REMARK  Name = ZINC48545271
REMARK  5 active torsions:
REMARK  status: ('A' for Active; 'I' for Inactive)
REMARK    1  A    between atoms: C_3  and  N_10
REMARK    2  A    between atoms: C_5  and  N_7
REMARK    3  A    between atoms: C_11  and  C_13
REMARK    4  A    between atoms: C_14  and  C_15
REMARK    5  A    between atoms: C_18  and  C_20
REMARK                            x       y       z     vdW  Elec       q    Type
REMARK                         _______ _______ _______ _____ _____    ______ ____
ROOT
ATOM      1  C   UNL     1       4.783   4.181  -0.231  0.00  0.00    +0.071 C 
ATOM      2  C   UNL     1       4.767   5.536  -0.326  0.00  0.00    +0.051 C 
ENDROOT
BRANCH   2   3
ATOM      3  C   UNL     1       5.982   6.250  -0.441  0.00  0.00    +0.129 A 
ATOM      4  C   UNL     1       6.108   7.623  -0.540  0.00  0.00    +0.050 A 
ATOM      5  C   UNL     1       7.475   7.898  -0.633  0.00  0.00    +0.050 A 
ATOM      6  C   UNL     1       8.132   6.689  -0.588  0.00  0.00    +0.136 A 
ATOM      7  O   UNL     1       7.218   5.710  -0.467  0.00  0.00    -0.455 OA
BRANCH   6   8
ATOM      8  C   UNL     1       9.594   6.500  -0.656  0.00  0.00    +0.017 A 
ATOM      9  C   UNL     1      10.440   7.606  -0.771  0.00  0.00    +0.013 A 
ATOM     10  C   UNL     1      11.805   7.422  -0.834  0.00  0.00    +0.021 A 
ATOM     11  C   UNL     1      12.338   6.145  -0.783  0.00  0.00    +0.041 A 
ATOM     12  C   UNL     1      11.505   5.044  -0.669  0.00  0.00    +0.021 A 
ATOM     13  C   UNL     1      10.138   5.215  -0.600  0.00  0.00    +0.013 A 
ATOM     14 CL   UNL     1      14.057   5.922  -0.864  0.00  0.00    -0.084 Cl
ENDBRANCH   6   8
ENDBRANCH   2   3
BRANCH   1  16
ATOM     15  N   UNL     1       3.583   2.123  -0.021  0.00  0.00    -0.282 N 
ATOM     16  C   UNL     1       3.568   3.467  -0.116  0.00  0.00    +0.241 C 
ATOM     17  O   UNL     1       2.508   4.066  -0.103  0.00  0.00    -0.270 OA
ATOM     18  H   UNL     1       4.428   1.651   0.045  0.00  0.00    +0.155 HD
BRANCH  15  21
ATOM     19  C   UNL     1       0.112   1.159  -0.753  0.00  0.00    +0.004 A 
ATOM     20  C   UNL     1       1.298   1.867  -0.757  0.00  0.00    +0.023 A 
ATOM     21  C   UNL     1       2.381   1.408  -0.019  0.00  0.00    +0.036 A 
ATOM     22  C   UNL     1       2.268   0.238   0.721  0.00  0.00    +0.056 A 
ATOM     23  C   UNL     1       1.080  -0.465   0.721  0.00  0.00    +0.128 A 
ATOM     24  C   UNL     1       0.003  -0.006  -0.015  0.00  0.00    +0.033 A 
BRANCH  23  25
ATOM     25  N   UNL     1       0.959  -1.712   1.509  0.00  0.00    +0.056 N 
ATOM     26  O   UNL     1       1.900  -2.114   2.153  0.00  0.00    -0.126 OA
ATOM     27  O   UNL     1      -0.081  -2.328   1.510  0.00  0.00    -0.126 OA
ENDBRANCH  23  25
ENDBRANCH  15  21
ENDBRANCH   1  16
TORSDOF 5
