REMARK  Name = ZINC30943363
REMARK  10 active torsions:
REMARK  status: ('A' for Active; 'I' for Inactive)
REMARK    1  A    between atoms: C_1  and  C_2
REMARK    2  A    between atoms: C_2  and  C_3
REMARK    3  A    between atoms: C_3  and  C_4
REMARK    4  A    between atoms: C_4  and  O_5
REMARK    5  A    between atoms: O_5  and  C_6
REMARK    6  A    between atoms: C_6  and  C_8
REMARK    7  A    between atoms: C_11  and  N_14
REMARK    8  A    between atoms: C_15  and  C_17
REMARK    9  A    between atoms: N_22  and  C_24
REMARK   10  A    between atoms: C_24  and  C_25
REMARK                            x       y       z     vdW  Elec       q    Type
REMARK                         _______ _______ _______ _____ _____    ______ ____
ROOT
ATOM      1  N   UNL     1      -0.017   1.390   0.010  0.00  0.00    -0.285 N 
ATOM      2  C   UNL     1      -1.162   2.101   0.018  0.00  0.00    +0.218 C 
ATOM      3  O   UNL     1      -2.228   1.532   0.110  0.00  0.00    -0.275 OA
ATOM      4  H   UNL     1       0.953   1.909   0.002  0.00  0.00    +0.155 HD
ENDROOT
BRANCH   2   5
ATOM      5  C   UNL     1      -1.116   3.604  -0.089  0.00  0.00    +0.059 C 
ATOM      6  C   UNL     1      -0.322   4.176   1.089  0.00  0.00    +0.009 C 
ATOM      7  C   UNL     1      -0.331   5.705   1.006  0.00  0.00    -0.018 C 
ATOM      8  C   UNL     1      -1.778   6.202   1.006  0.00  0.00    -0.078 C 
ATOM      9  N   UNL     1      -2.495   5.627  -0.139  0.00  0.00    +0.383 N 
ATOM     10  C   UNL     1      -2.540   4.162  -0.057  0.00  0.00    -0.066 C 
ATOM     11  H   UNL     1      -1.940   5.895  -1.051  0.00  0.00    -0.081 HD
BRANCH   9  12
ATOM     12  C   UNL     1      -3.848   6.190  -0.250  0.00  0.00    -0.043 C 
BRANCH  12  13
ATOM     13  C   UNL     1      -3.756   7.658  -0.578  0.00  0.00    -0.064 A 
ATOM     14  C   UNL     1      -3.707   8.592   0.441  0.00  0.00    +0.003 A 
ATOM     15  C   UNL     1      -3.617   9.938   0.141  0.00  0.00    +0.015 A 
ATOM     16  C   UNL     1      -3.587  10.352  -1.179  0.00  0.00    +0.018 A 
ATOM     17  C   UNL     1      -3.641   9.418  -2.198  0.00  0.00    +0.015 A 
ATOM     18  C   UNL     1      -3.726   8.071  -1.897  0.00  0.00    +0.003 A 
ATOM     19 BR   UNL     1      -3.473  12.194  -1.590  0.00  0.00    -0.050 Br
ENDBRANCH  12  13
ENDBRANCH   9  12
ENDBRANCH   2   5
BRANCH   1  23
ATOM     20  C   UNL     1      -0.151  -2.773   0.016  0.00  0.00    +0.059 A 
ATOM     21  C   UNL     1       0.855  -2.106  -0.689  0.00  0.00    +0.017 A 
ATOM     22  C   UNL     1       0.896  -0.730  -0.689  0.00  0.00    +0.024 A 
ATOM     23  C   UNL     1      -0.062  -0.004   0.012  0.00  0.00    +0.033 A 
ATOM     24  C   UNL     1      -1.062  -0.665   0.718  0.00  0.00    +0.024 A 
ATOM     25  C   UNL     1      -1.112  -2.040   0.719  0.00  0.00    +0.017 A 
BRANCH  20  26
ATOM     26  C   UNL     1      -0.199  -4.247   0.018  0.00  0.00    +0.339 C 
ATOM     27  O   UNL     1       0.637  -4.883  -0.593  0.00  0.00    -0.245 OA
BRANCH  26  28
ATOM     28  O   UNL     1      -1.169  -4.889   0.698  0.00  0.00    -0.461 OA
BRANCH  28  29
ATOM     29  C   UNL     1      -1.154  -6.340   0.656  0.00  0.00    +0.232 C 
BRANCH  29  30
ATOM     30  C   UNL     1      -2.323  -6.886   1.479  0.00  0.00    +0.041 C 
BRANCH  30  32
ATOM     31  C   UNL     1      -3.475  -8.962   2.258  0.00  0.00    +0.004 C 
ATOM     32  C   UNL     1      -2.307  -8.416   1.434  0.00  0.00    -0.000 C 
ENDBRANCH  30  32
ENDBRANCH  29  30
ENDBRANCH  28  29
ENDBRANCH  26  28
ENDBRANCH  20  26
ENDBRANCH   1  23
TORSDOF 9
