REMARK  Name = ZINC34778456
REMARK  11 active torsions:
REMARK  status: ('A' for Active; 'I' for Inactive)
REMARK    1  A    between atoms: C_1  and  C_2
REMARK    2  A    between atoms: C_7  and  N_8
REMARK    3  A    between atoms: C_9  and  C_11
REMARK    4  A    between atoms: C_11  and  N_12
REMARK    5  A    between atoms: C_15  and  C_21
REMARK    6  A    between atoms: C_16  and  C_18
REMARK    7  A    between atoms: C_18  and  C_20
REMARK    8  A    between atoms: N_24  and  C_27
REMARK    9  A    between atoms: C_27  and  C_28
REMARK   10  A    between atoms: N_30  and  C_31
REMARK   11  A    between atoms: C_31  and  C_32
REMARK                            x       y       z     vdW  Elec       q    Type
REMARK                         _______ _______ _______ _____ _____    ______ ____
ROOT
ATOM      1  N   UNL     1      -0.241  -0.905   5.988  0.00  0.00    -0.278 N 
ATOM      2  C   UNL     1      -1.459  -1.366   6.402  0.00  0.00    +0.098 A 
ATOM      3  C   UNL     1      -1.565  -2.284   7.458  0.00  0.00    +0.074 A 
ATOM      4  C   UNL     1      -2.862  -2.683   7.792  0.00  0.00    -0.018 A 
ATOM      5  C   UNL     1      -3.892  -2.135   7.053  0.00  0.00    +0.060 A 
ATOM      6  S   UNL     1      -3.029  -1.077   5.909  0.00  0.00    -0.067 S 
ATOM      7  C   UNL     1      -3.125  -3.664   8.905  0.00  0.00    +0.046 C 
ATOM      8  C   UNL     1      -0.282  -2.704   8.075  0.00  0.00    +0.266 A 
ATOM      9  O   UNL     1      -0.272  -3.498   8.998  0.00  0.00    -0.267 OA
ATOM     10  N   UNL     1       0.870  -2.197   7.601  0.00  0.00    -0.251 N 
ATOM     11  C   UNL     1       0.892  -1.324   6.581  0.00  0.00    +0.334 A 
ATOM     12  O   UNL     1       1.960  -0.899   6.187  0.00  0.00    -0.246 OA
ENDROOT
BRANCH   5  13
ATOM     13  C   UNL     1      -5.279  -2.358   7.173  0.00  0.00    +0.167 C 
ATOM     14  O   UNL     1      -5.701  -3.122   8.019  0.00  0.00    -0.292 OA
ATOM     15  C   UNL     1      -6.239  -1.649   6.253  0.00  0.00    +0.092 C 
ENDBRANCH   5  13
BRANCH   1  16
ATOM     16  C   UNL     1      -0.168   0.052   4.882  0.00  0.00    +0.223 C 
BRANCH  16  18
ATOM     17  N   UNL     1       0.025  -0.015   2.417  0.00  0.00    -0.284 N 
ATOM     18  C   UNL     1      -0.056  -0.694   3.578  0.00  0.00    +0.237 C 
ATOM     19  O   UNL     1      -0.040  -1.907   3.573  0.00  0.00    -0.274 OA
ATOM     20  H   UNL     1       0.078   0.954   2.425  0.00  0.00    +0.155 HD
BRANCH  17  27
ATOM     21  C   UNL     1      -1.264   1.184   0.181  0.00  0.00    +0.045 C 
ATOM     22  C   UNL     1      -0.584  -0.158   0.084  0.00  0.00    -0.029 A 
ATOM     23  C   UNL     1      -0.568  -0.840  -1.117  0.00  0.00    +0.005 A 
ATOM     24  C   UNL     1       0.055  -2.071  -1.206  0.00  0.00    +0.000 A 
ATOM     25  C   UNL     1       0.666  -2.622  -0.095  0.00  0.00    +0.002 A 
ATOM     26  C   UNL     1       0.655  -1.945   1.108  0.00  0.00    +0.023 A 
ATOM     27  C   UNL     1       0.034  -0.706   1.201  0.00  0.00    +0.036 A 
ENDBRANCH  17  27
ENDBRANCH  16  18
ENDBRANCH   1  16
BRANCH  10  28
ATOM     28  C   UNL     1       2.135  -2.612   8.211  0.00  0.00    +0.225 C 
BRANCH  28  29
ATOM     29  C   UNL     1       2.662  -3.830   7.495  0.00  0.00    +0.233 C 
ATOM     30  O   UNL     1       2.041  -4.303   6.567  0.00  0.00    -0.274 OA
ATOM     31  N   UNL     1       3.823  -4.392   7.886  0.00  0.00    -0.310 N 
ATOM     32  H   UNL     1       4.319  -4.013   8.629  0.00  0.00    +0.149 HD
BRANCH  31  33
ATOM     33  C   UNL     1       4.335  -5.575   7.191  0.00  0.00    +0.139 C 
BRANCH  33  34
ATOM     34  C   UNL     1       5.637  -6.002   7.818  0.00  0.00    -0.030 A 
ATOM     35  C   UNL     1       6.832  -5.488   7.349  0.00  0.00    +0.005 A 
ATOM     36  C   UNL     1       8.026  -5.880   7.924  0.00  0.00    +0.000 A 
ATOM     37  C   UNL     1       8.025  -6.786   8.969  0.00  0.00    +0.000 A 
ATOM     38  C   UNL     1       6.831  -7.299   9.438  0.00  0.00    +0.000 A 
ATOM     39  C   UNL     1       5.636  -6.904   8.866  0.00  0.00    +0.005 A 
ENDBRANCH  33  34
ENDBRANCH  31  33
ENDBRANCH  28  29
ENDBRANCH  10  28
TORSDOF 8
