REMARK  Name = ZINC65000429
REMARK  8 active torsions:
REMARK  status: ('A' for Active; 'I' for Inactive)
REMARK    1  A    between atoms: C_1  and  C_2
REMARK    2  A    between atoms: C_5  and  N_8
REMARK    3  A    between atoms: C_12  and  C_15
REMARK    4  A    between atoms: N_17  and  C_18
REMARK    5  A    between atoms: N_21  and  C_24
REMARK    6  A    between atoms: C_24  and  C_25
REMARK    7  A    between atoms: C_32  and  C_36
REMARK    8  A    between atoms: C_32  and  C_37
REMARK                            x       y       z     vdW  Elec       q    Type
REMARK                         _______ _______ _______ _____ _____    ______ ____
ROOT
ATOM      1  N   UNL     1       0.018  -4.172  -0.017  0.00  0.00    -0.283 N 
ATOM      2  C   UNL     1       0.168  -4.835   1.142  0.00  0.00    +0.106 A 
ATOM      3  C   UNL     1       0.228  -6.218   1.180  0.00  0.00    +0.038 A 
ATOM      4  C   UNL     1       0.128  -6.969  -0.007  0.00  0.00    -0.018 A 
ATOM      5  C   UNL     1      -0.023  -6.290  -1.212  0.00  0.00    +0.105 A 
ATOM      6  C   UNL     1      -0.082  -4.827  -1.189  0.00  0.00    +0.268 A 
ATOM      7  O   UNL     1      -0.215  -4.205  -2.227  0.00  0.00    -0.266 OA
ATOM      8  C   UNL     1       0.174  -8.470  -0.002  0.00  0.00    +0.043 C 
ATOM      9  C   UNL     1       0.867  -8.995   1.254  0.00  0.00    -0.024 C 
ATOM     10  C   UNL     1       0.185  -8.409   2.496  0.00  0.00    +0.086 C 
ATOM     11  C   UNL     1       0.399  -6.910   2.469  0.00  0.00    +0.165 C 
ATOM     12  O   UNL     1       0.701  -6.300   3.474  0.00  0.00    -0.292 OA
ATOM     13  C   UNL     1       0.768 -10.522   1.290  0.00  0.00    +0.011 C 
ATOM     14  C   UNL     1       2.339  -8.580   1.235  0.00  0.00    +0.011 C 
ENDROOT
BRANCH   1  19
ATOM     15  C   UNL     1      -0.221   1.497   0.031  0.00  0.00    +0.044 C 
ATOM     16  C   UNL     1      -0.158  -0.009   0.018  0.00  0.00    -0.050 A 
ATOM     17  C   UNL     1      -1.192  -0.738  -0.538  0.00  0.00    +0.005 A 
ATOM     18  C   UNL     1      -1.137  -2.118  -0.551  0.00  0.00    +0.026 A 
ATOM     19  C   UNL     1      -0.041  -2.773  -0.005  0.00  0.00    +0.049 A 
ATOM     20  C   UNL     1       0.997  -2.037   0.552  0.00  0.00    +0.026 A 
ATOM     21  C   UNL     1       0.938  -0.657   0.558  0.00  0.00    +0.005 A 
ENDBRANCH   1  19
BRANCH   5  22
ATOM     22  C   UNL     1      -0.127  -7.027  -2.482  0.00  0.00    +0.250 C 
ATOM     23  O   UNL     1      -0.207  -8.240  -2.476  0.00  0.00    -0.270 OA
ATOM     24  N   UNL     1      -0.133  -6.356  -3.651  0.00  0.00    -0.308 N 
ATOM     25  H   UNL     1       0.004  -5.396  -3.660  0.00  0.00    +0.149 HD
BRANCH  24  26
ATOM     26  C   UNL     1      -0.346  -7.078  -4.908  0.00  0.00    +0.070 C 
ATOM     27  C   UNL     1       0.989  -7.633  -5.412  0.00  0.00    +0.004 C 
ATOM     28  C   UNL     1       0.773  -8.317  -6.764  0.00  0.00    -0.077 C 
ATOM     29  N   UNL     1       0.250  -7.344  -7.731  0.00  0.00    +0.382 N 
ATOM     30  C   UNL     1      -1.064  -6.860  -7.289  0.00  0.00    -0.077 C 
ATOM     31  C   UNL     1      -0.918  -6.121  -5.957  0.00  0.00    +0.004 C 
ATOM     32  H   UNL     1       0.887  -6.565  -7.801  0.00  0.00    -0.081 HD
BRANCH  29  33
ATOM     33  C   UNL     1       0.117  -7.984  -9.046  0.00  0.00    -0.043 C 
BRANCH  33  34
ATOM     34  C   UNL     1      -0.302  -6.957 -10.065  0.00  0.00    -0.064 A 
ATOM     35  C   UNL     1      -1.645  -6.721 -10.296  0.00  0.00    +0.002 A 
ATOM     36  C   UNL     1      -2.030  -5.778 -11.231  0.00  0.00    +0.000 A 
ATOM     37  C   UNL     1      -1.072  -5.071 -11.935  0.00  0.00    +0.000 A 
ATOM     38  C   UNL     1       0.270  -5.307 -11.703  0.00  0.00    +0.000 A 
ATOM     39  C   UNL     1       0.655  -6.246 -10.765  0.00  0.00    +0.002 A 
ENDBRANCH  33  34
ENDBRANCH  29  33
ENDBRANCH  24  26
ENDBRANCH   5  22
TORSDOF 5
