REMARK  Name = ZINC08432035
REMARK  9 active torsions:
REMARK  status: ('A' for Active; 'I' for Inactive)
REMARK    1  A    between atoms: C_4  and  C_7
REMARK    2  A    between atoms: N_18  and  C_26
REMARK    3  A    between atoms: C_19  and  C_20
REMARK    4  A    between atoms: C_26  and  C_27
REMARK    5  A    between atoms: C_27  and  C_29
REMARK    6  A    between atoms: C_27  and  O_36
REMARK    7  A    between atoms: C_29  and  N_63
REMARK    8  A    between atoms: C_30  and  C_31
REMARK    9  A    between atoms: C_30  and  N_63
REMARK                            x       y       z     vdW  Elec       q    Type
REMARK                         _______ _______ _______ _____ _____    ______ ____
ROOT
ATOM      1  C   UNL     1      -0.804   7.544   0.557  0.00  0.00    +0.015 A 
ATOM      2  C   UNL     1      -1.232   6.178   0.225  0.00  0.00    +0.009 A 
ATOM      3  C   UNL     1      -2.494   5.575   0.072  0.00  0.00    +0.011 A 
ATOM      4  C   UNL     1      -2.602   4.263  -0.245  0.00  0.00    +0.009 A 
ATOM      5  C   UNL     1      -1.445   3.477  -0.428  0.00  0.00    -0.016 A 
ATOM      6  C   UNL     1      -1.544   2.117  -0.764  0.00  0.00    +0.008 A 
ATOM      7  C   UNL     1      -0.411   1.378  -0.931  0.00  0.00    +0.001 A 
ATOM      8  C   UNL     1       0.847   1.954  -0.784  0.00  0.00    +0.001 A 
ATOM      9  C   UNL     1       0.980   3.272  -0.464  0.00  0.00    +0.010 A 
ATOM     10  C   UNL     1      -0.165   4.061  -0.280  0.00  0.00    +0.006 A 
ATOM     11  C   UNL     1      -0.062   5.432   0.051  0.00  0.00    +0.058 A 
ATOM     12  N   UNL     1       1.010   6.265   0.258  0.00  0.00    -0.336 N 
ATOM     13  C   UNL     1       0.576   7.530   0.561  0.00  0.00    +0.058 A 
ENDROOT
BRANCH   1  17
ATOM     14  C   UNL     1      -3.320  10.876   1.347  0.00  0.00    +0.000 A 
ATOM     15  C   UNL     1      -3.305   9.802   2.219  0.00  0.00    +0.001 A 
ATOM     16  C   UNL     1      -2.490   8.717   1.968  0.00  0.00    +0.008 A 
ATOM     17  C   UNL     1      -1.681   8.704   0.832  0.00  0.00    -0.015 A 
ATOM     18  C   UNL     1      -1.696   9.793  -0.041  0.00  0.00    +0.008 A 
ATOM     19  C   UNL     1      -2.519  10.870   0.219  0.00  0.00    +0.001 A 
ENDBRANCH   1  17
BRANCH  13  20
ATOM     20  C   UNL     1       1.444   8.690   0.845  0.00  0.00    -0.001 A 
ATOM     21  C   UNL     1       1.283   9.414   2.029  0.00  0.00    +0.010 A 
ATOM     22  C   UNL     1       2.102  10.492   2.291  0.00  0.00    +0.001 A 
ATOM     23  C   UNL     1       3.073  10.865   1.379  0.00  0.00    +0.000 A 
ATOM     24  C   UNL     1       3.235  10.157   0.201  0.00  0.00    +0.001 A 
ATOM     25  C   UNL     1       2.427   9.072  -0.071  0.00  0.00    +0.010 A 
ENDBRANCH  13  20
BRANCH  12  26
ATOM     26  C   UNL     1       2.415   5.860   0.168  0.00  0.00    +0.151 C 
BRANCH  26  27
ATOM     27  C   UNL     1       2.902   5.397   1.542  0.00  0.00    +0.117 C 
BRANCH  27  28
ATOM     28  O   UNL     1       2.178   4.229   1.935  0.00  0.00    -0.392 OA
ATOM     29  H   UNL     1       2.279   3.482   1.330  0.00  0.00    +0.210 HD
ENDBRANCH  27  28
BRANCH  27  30
ATOM     30  C   UNL     1       4.395   5.071   1.472  0.00  0.00    -0.049 C 
BRANCH  30  31
ATOM     31  N   UNL     1       4.856   4.626   2.800  0.00  0.00    +0.385 N 
ATOM     32  H   UNL     1       4.330   3.789   3.078  0.00  0.00    -0.085 HD
ATOM     33  H   UNL     1       4.695   5.375   3.483  0.00  0.00    -0.085 HD
BRANCH  31  34
ATOM     34  C   UNL     1       6.296   4.305   2.762  0.00  0.00    -0.007 C 
BRANCH  34  35
ATOM     35  C   UNL     1       6.738   3.853   4.130  0.00  0.00    +0.088 A 
ATOM     36  C   UNL     1       6.731   2.586   4.580  0.00  0.00    +0.042 A 
ATOM     37  C   UNL     1       7.223   2.620   5.905  0.00  0.00    +0.041 A 
ATOM     38  C   UNL     1       7.501   3.906   6.185  0.00  0.00    +0.195 A 
ATOM     39  O   UNL     1       7.210   4.648   5.104  0.00  0.00    -0.470 OA
ENDBRANCH  34  35
ENDBRANCH  31  34
ENDBRANCH  30  31
ENDBRANCH  27  30
ENDBRANCH  26  27
ENDBRANCH  12  26
TORSDOF 9
