REMARK  Name = ZINC39675484
REMARK  11 active torsions:
REMARK  status: ('A' for Active; 'I' for Inactive)
REMARK    1  A    between atoms: C_1  and  C_2
REMARK    2  A    between atoms: C_3  and  C_8
REMARK    3  A    between atoms: C_4  and  C_7
REMARK    4  A    between atoms: C_12  and  C_21
REMARK    5  A    between atoms: N_23  and  C_24
REMARK    6  A    between atoms: C_24  and  C_26
REMARK    7  A    between atoms: C_24  and  C_27
REMARK    8  A    between atoms: C_27  and  C_28
REMARK    9  A    between atoms: C_28  and  C_29
REMARK   10  A    between atoms: C_32  and  O_35
REMARK   11  A    between atoms: O_35  and  C_36
REMARK                            x       y       z     vdW  Elec       q    Type
REMARK                         _______ _______ _______ _____ _____    ______ ____
ROOT
ATOM      1  C   UNL     1       0.027  -0.416  -2.736  0.00  0.00    +0.252 C 
ATOM      2  O   UNL     1       1.058  -0.166  -3.330  0.00  0.00    -0.270 OA
ATOM      3  N   UNL     1      -1.163  -0.211  -3.336  0.00  0.00    -0.296 N 
ATOM      4  C   UNL     1      -2.514  -0.449  -2.777  0.00  0.00    +0.121 C 
ATOM      5  C   UNL     1      -3.361   0.741  -3.283  0.00  0.00    +0.100 C 
ATOM      6  C   UNL     1      -2.635   1.229  -4.548  0.00  0.00    -0.004 C 
ATOM      7  C   UNL     1      -1.414   0.309  -4.701  0.00  0.00    +0.115 C 
ATOM      8  C   UNL     1      -2.180   2.674  -4.372  0.00  0.00    -0.010 C 
ATOM      9  C   UNL     1      -1.512   3.155  -5.663  0.00  0.00    -0.082 C 
ATOM     10  N   UNL     1      -2.463   3.053  -6.776  0.00  0.00    +0.379 N 
ATOM     11  C   UNL     1      -2.824   1.647  -6.999  0.00  0.00    -0.082 C 
ATOM     12  C   UNL     1      -3.548   1.103  -5.764  0.00  0.00    -0.010 C 
ATOM     13  H   UNL     1      -3.294   3.581  -6.556  0.00  0.00    -0.086 HD
ATOM     14  H   UNL     1      -2.041   3.426  -7.613  0.00  0.00    -0.086 HD
ENDROOT
BRANCH   1  17
ATOM     15  C   UNL     1       0.041   1.341  -0.017  0.00  0.00    +0.070 C 
ATOM     16  C   UNL     1       0.084  -0.162  -0.125  0.00  0.00    +0.093 A 
ATOM     17  C   UNL     1       0.078  -0.945  -1.361  0.00  0.00    +0.101 A 
ATOM     18  C   UNL     1       0.127  -2.260  -0.996  0.00  0.00    +0.147 A 
ATOM     19  O   UNL     1       0.162  -2.318   0.338  0.00  0.00    -0.359 OA
ATOM     20  N   UNL     1       0.140  -1.006   0.863  0.00  0.00    -0.083 NA
ATOM     21  C   UNL     1       0.141  -3.439  -1.934  0.00  0.00    +0.090 C 
ENDBRANCH   1  17
BRANCH   5  22
ATOM     22  C   UNL     1      -4.757   0.286  -3.620  0.00  0.00    +0.218 C 
ATOM     23  O   UNL     1      -4.947  -0.843  -4.021  0.00  0.00    -0.275 OA
ATOM     24  N   UNL     1      -5.796   1.133  -3.474  0.00  0.00    -0.312 N 
ATOM     25  H   UNL     1      -5.644   2.035  -3.153  0.00  0.00    +0.149 HD
BRANCH  24  26
ATOM     26  C   UNL     1      -7.153   0.690  -3.801  0.00  0.00    +0.070 C 
ATOM     27  C   UNL     1      -7.403   0.874  -5.300  0.00  0.00    +0.028 C 
BRANCH  26  28
ATOM     28  C   UNL     1      -8.165   1.522  -3.010  0.00  0.00    +0.026 C 
BRANCH  28  29
ATOM     29  C   UNL     1      -7.997   1.242  -1.515  0.00  0.00    +0.037 C 
BRANCH  29  30
ATOM     30  C   UNL     1      -8.994   2.061  -0.736  0.00  0.00    -0.047 A 
ATOM     31  C   UNL     1      -8.657   3.331  -0.306  0.00  0.00    +0.007 A 
ATOM     32  C   UNL     1      -9.569   4.083   0.409  0.00  0.00    +0.046 A 
ATOM     33  C   UNL     1     -10.823   3.564   0.695  0.00  0.00    +0.120 A 
ATOM     34  C   UNL     1     -11.158   2.289   0.262  0.00  0.00    +0.046 A 
ATOM     35  C   UNL     1     -10.245   1.542  -0.457  0.00  0.00    +0.007 A 
BRANCH  33  36
ATOM     36  O   UNL     1     -11.721   4.302   1.399  0.00  0.00    -0.495 OA
ATOM     37  C   UNL     1     -12.993   3.703   1.657  0.00  0.00    +0.277 C 
ENDBRANCH  33  36
ENDBRANCH  29  30
ENDBRANCH  28  29
ENDBRANCH  26  28
ENDBRANCH  24  26
ENDBRANCH   5  22
TORSDOF 7
