REMARK  Name = ZINC02644704
REMARK  9 active torsions:
REMARK  status: ('A' for Active; 'I' for Inactive)
REMARK    1  A    between atoms: C_1  and  C_2
REMARK    2  A    between atoms: C_3  and  C_31
REMARK    3  A    between atoms: C_4  and  C_30
REMARK    4  A    between atoms: C_7  and  C_8
REMARK    5  A    between atoms: C_8  and  C_10
REMARK    6  A    between atoms: C_10  and  S_11
REMARK    7  A    between atoms: S_11  and  C_12
REMARK    8  A    between atoms: N_22  and  C_23
REMARK    9  A    between atoms: C_31  and  C_33
REMARK                            x       y       z     vdW  Elec       q    Type
REMARK                         _______ _______ _______ _____ _____    ______ ____
ROOT
ATOM      1  C   UNL     1       1.870   2.206   2.693  0.00  0.00    +0.177 A 
ATOM      2  N   UNL     1       0.872   2.980   2.346  0.00  0.00    -0.223 NA
ATOM      3  C   UNL     1       0.908   4.313   2.546  0.00  0.00    +0.079 A 
ATOM      4  C   UNL     1      -0.159   5.138   2.180  0.00  0.00    +0.028 A 
ATOM      5  C   UNL     1      -0.078   6.485   2.396  0.00  0.00    +0.002 A 
ATOM      6  C   UNL     1       1.051   7.049   2.975  0.00  0.00    +0.001 A 
ATOM      7  C   UNL     1       2.112   6.269   3.344  0.00  0.00    +0.015 A 
ATOM      8  C   UNL     1       2.056   4.891   3.135  0.00  0.00    +0.065 A 
ATOM      9  C   UNL     1       3.165   4.004   3.511  0.00  0.00    +0.267 A 
ATOM     10  O   UNL     1       4.179   4.442   4.021  0.00  0.00    -0.267 OA
ATOM     11  N   UNL     1       3.017   2.681   3.268  0.00  0.00    -0.253 N 
ENDROOT
BRANCH  11  12
ATOM     12  C   UNL     1       4.045   1.791   3.607  0.00  0.00    +0.087 A 
ATOM     13  C   UNL     1       5.038   1.491   2.684  0.00  0.00    +0.029 A 
ATOM     14  C   UNL     1       6.053   0.618   3.023  0.00  0.00    +0.002 A 
ATOM     15  C   UNL     1       6.077   0.033   4.276  0.00  0.00    +0.003 A 
ATOM     16  C   UNL     1       5.087   0.325   5.197  0.00  0.00    +0.040 A 
ATOM     17  C   UNL     1       4.071   1.202   4.866  0.00  0.00    +0.147 A 
ATOM     18  F   UNL     1       3.103   1.487   5.766  0.00  0.00    -0.203 F 
ENDBRANCH  11  12
BRANCH   1  19
ATOM     19  S   UNL     1       1.732   0.474   2.399  0.00  0.00    -0.079 S 
BRANCH  19  20
ATOM     20  C   UNL     1       0.083   0.412   1.656  0.00  0.00    +0.158 C 
BRANCH  20  21
ATOM     21  C   UNL     1      -0.260  -1.014   1.312  0.00  0.00    +0.190 C 
ATOM     22  O   UNL     1       0.534  -1.903   1.546  0.00  0.00    -0.290 OA
BRANCH  21  29
ATOM     23  C   UNL     1      -1.187  -3.868   0.502  0.00  0.00    +0.047 C 
ATOM     24  C   UNL     1      -1.942  -2.573   0.347  0.00  0.00    -0.012 A 
ATOM     25  C   UNL     1      -3.235  -2.411  -0.203  0.00  0.00    +0.041 A 
ATOM     26  C   UNL     1      -3.533  -1.057  -0.154  0.00  0.00    +0.024 A 
ATOM     27  N   UNL     1      -2.496  -0.410   0.396  0.00  0.00    -0.355 N 
ATOM     28  H   UNL     1      -2.447   0.547   0.546  0.00  0.00    +0.166 HD
ATOM     29  C   UNL     1      -1.507  -1.319   0.715  0.00  0.00    +0.087 A 
ATOM     30  C   UNL     1      -4.809  -0.420  -0.639  0.00  0.00    +0.064 C 
BRANCH  25  31
ATOM     31  C   UNL     1      -4.096  -3.474  -0.730  0.00  0.00    +0.162 C 
ATOM     32  O   UNL     1      -4.077  -3.739  -1.914  0.00  0.00    -0.292 OA
ATOM     33  C   UNL     1      -5.005  -4.238   0.199  0.00  0.00    +0.091 C 
ENDBRANCH  25  31
ENDBRANCH  21  29
ENDBRANCH  20  21
ENDBRANCH  19  20
ENDBRANCH   1  19
TORSDOF 6
