REMARK  Name = ZINC59272629
REMARK  11 active torsions:
REMARK  status: ('A' for Active; 'I' for Inactive)
REMARK    1  A    between atoms: C_1  and  C_2
REMARK    2  A    between atoms: C_2  and  N_3
REMARK    3  A    between atoms: N_3  and  C_4
REMARK    4  A    between atoms: N_3  and  C_6
REMARK    5  A    between atoms: C_4  and  C_5
REMARK    6  A    between atoms: C_6  and  C_7
REMARK    7  A    between atoms: C_7  and  N_8
REMARK    8  A    between atoms: N_17  and  C_18
REMARK    9  A    between atoms: C_18  and  C_20
REMARK   10  A    between atoms: N_22  and  C_27
REMARK   11  A    between atoms: C_27  and  C_28
REMARK                            x       y       z     vdW  Elec       q    Type
REMARK                         _______ _______ _______ _____ _____    ______ ____
ROOT
ATOM      1  N   UNL     1       2.223  -3.715  -0.499  0.00  0.00    -0.314 N 
ATOM      2  C   UNL     1       3.342  -4.390  -0.021  0.00  0.00    +0.068 A 
ATOM      3  C   UNL     1       4.450  -3.987   0.711  0.00  0.00    +0.028 A 
ATOM      4  C   UNL     1       5.424  -4.906   1.046  0.00  0.00    +0.002 A 
ATOM      5  C   UNL     1       5.302  -6.228   0.653  0.00  0.00    +0.002 A 
ATOM      6  C   UNL     1       4.204  -6.639  -0.076  0.00  0.00    +0.028 A 
ATOM      7  C   UNL     1       3.218  -5.723  -0.417  0.00  0.00    +0.066 A 
ATOM      8  N   UNL     1       2.027  -5.832  -1.127  0.00  0.00    -0.326 N 
ATOM      9  C   UNL     1       1.437  -4.607  -1.160  0.00  0.00    +0.201 A 
ATOM     10  N   UNL     1       0.281  -4.325  -1.747  0.00  0.00    -0.141 NA
ATOM     11  H   UNL     1       1.675  -6.644  -1.526  0.00  0.00    +0.169 HD
ENDROOT
BRANCH  10  12
ATOM     12  C   UNL     1      -0.465  -5.311  -2.266  0.00  0.00    +0.286 C 
ATOM     13  O   UNL     1      -0.128  -6.473  -2.117  0.00  0.00    -0.267 OA
BRANCH  12  14
ATOM     14  C   UNL     1      -1.690  -4.990  -3.015  0.00  0.00    +0.123 C 
ATOM     15  N   UNL     1      -2.037  -3.752  -3.172  0.00  0.00    -0.177 NA
ATOM     16  N   UNL     1      -3.195  -3.409  -3.876  0.00  0.00    -0.188 N 
ATOM     17  C   UNL     1      -4.168  -4.320  -4.074  0.00  0.00    +0.235 C 
ATOM     18  O   UNL     1      -5.172  -4.016  -4.682  0.00  0.00    -0.274 OA
ATOM     19  C   UNL     1      -4.002  -5.719  -3.538  0.00  0.00    +0.104 C 
ATOM     20  C   UNL     1      -2.519  -6.105  -3.593  0.00  0.00    +0.072 C 
BRANCH  16  21
ATOM     21  C   UNL     1      -3.352  -2.050  -4.402  0.00  0.00    +0.170 C 
BRANCH  21  22
ATOM     22  C   UNL     1      -4.026  -1.186  -3.368  0.00  0.00    -0.028 A 
ATOM     23  C   UNL     1      -5.405  -1.092  -3.339  0.00  0.00    +0.008 A 
ATOM     24  C   UNL     1      -6.024  -0.300  -2.391  0.00  0.00    +0.038 A 
ATOM     25  C   UNL     1      -5.263   0.399  -1.469  0.00  0.00    +0.123 A 
ATOM     26  C   UNL     1      -3.882   0.304  -1.499  0.00  0.00    +0.038 A 
ATOM     27  C   UNL     1      -3.265  -0.492  -2.445  0.00  0.00    +0.008 A 
ATOM     28  F   UNL     1      -5.868   1.174  -0.542  0.00  0.00    -0.205 F 
ENDBRANCH  21  22
ENDBRANCH  16  21
ENDBRANCH  12  14
ENDBRANCH  10  12
BRANCH   1  29
ATOM     29  C   UNL     1       1.938  -2.289  -0.315  0.00  0.00    +0.106 C 
BRANCH  29  30
ATOM     30  C   UNL     1       1.143  -2.091   0.976  0.00  0.00    -0.057 C 
BRANCH  30  31
ATOM     31  N   UNL     1       0.856  -0.661   1.160  0.00  0.00    +0.380 N 
ATOM     32  H   UNL     1       1.720  -0.140   1.135  0.00  0.00    -0.082 HD
BRANCH  31  34
ATOM     33  C   UNL     1      -0.212   1.318   0.192  0.00  0.00    -0.017 C 
ATOM     34  C   UNL     1      -0.028  -0.197   0.083  0.00  0.00    -0.082 C 
ENDBRANCH  31  34
BRANCH  31  35
ATOM     35  C   UNL     1       0.198  -0.457   2.457  0.00  0.00    -0.082 C 
ATOM     36  C   UNL     1       1.172  -0.806   3.584  0.00  0.00    -0.017 C 
ENDBRANCH  31  35
ENDBRANCH  30  31
ENDBRANCH  29  30
ENDBRANCH   1  29
TORSDOF 9
