REMARK  Name = ZINC40399195
REMARK  5 active torsions:
REMARK  status: ('A' for Active; 'I' for Inactive)
REMARK    1  A    between atoms: C_4  and  N_7
REMARK    2  A    between atoms: C_20  and  C_22
REMARK    3  A    between atoms: N_24  and  C_25
REMARK    4  A    between atoms: C_30  and  S_31
REMARK    5  A    between atoms: S_31  and  C_32
REMARK                            x       y       z     vdW  Elec       q    Type
REMARK                         _______ _______ _______ _____ _____    ______ ____
ROOT
ATOM      1  N   UNL     1       5.202  -2.487  -4.059  0.00  0.00    -0.285 N 
ATOM      2  C   UNL     1       4.889  -3.377  -3.064  0.00  0.00    +0.202 A 
ATOM      3  N   UNL     1       5.826  -4.277  -2.658  0.00  0.00    -0.295 N 
ATOM      4  H   UNL     1       6.707  -4.275  -3.063  0.00  0.00    +0.172 HD
ATOM      5  C   UNL     1       5.529  -5.172  -1.692  0.00  0.00    +0.258 A 
ATOM      6  O   UNL     1       6.355  -5.995  -1.329  0.00  0.00    -0.267 OA
ATOM      7  C   UNL     1       4.255  -5.138  -1.115  0.00  0.00    +0.069 A 
ATOM      8  C   UNL     1       3.345  -4.191  -1.548  0.00  0.00    +0.138 A 
ATOM      9  N   UNL     1       3.691  -3.339  -2.521  0.00  0.00    -0.200 NA
ATOM     10  N   UNL     1       2.093  -4.107  -0.963  0.00  0.00    -0.270 N 
ATOM     11  C   UNL     1       1.824  -4.747   0.188  0.00  0.00    +0.219 C 
ATOM     12  O   UNL     1       0.693  -4.746   0.623  0.00  0.00    -0.275 OA
ATOM     13  C   UNL     1       2.912  -5.464   0.943  0.00  0.00    +0.114 C 
ATOM     14  C   UNL     1       3.876  -6.125  -0.044  0.00  0.00    +0.122 C 
ATOM     15  H   UNL     1       6.074  -2.519  -4.481  0.00  0.00    +0.155 HD
ATOM     16  H   UNL     1       1.400  -3.579  -1.390  0.00  0.00    +0.156 HD
ENDROOT
BRANCH   1  20
ATOM     17  C   UNL     1       2.408   0.357  -5.265  0.00  0.00    +0.000 A 
ATOM     18  C   UNL     1       2.461  -0.039  -3.942  0.00  0.00    +0.002 A 
ATOM     19  C   UNL     1       3.386  -0.982  -3.538  0.00  0.00    +0.023 A 
ATOM     20  C   UNL     1       4.263  -1.532  -4.464  0.00  0.00    +0.034 A 
ATOM     21  C   UNL     1       4.207  -1.132  -5.793  0.00  0.00    +0.023 A 
ATOM     22  C   UNL     1       3.279  -0.189  -6.189  0.00  0.00    +0.002 A 
ENDBRANCH   1  20
BRANCH  14  23
ATOM     23  C   UNL     1       5.115  -6.572   0.689  0.00  0.00    +0.225 C 
ATOM     24  O   UNL     1       5.775  -5.767   1.311  0.00  0.00    -0.275 OA
ATOM     25  N   UNL     1       5.490  -7.866   0.652  0.00  0.00    -0.284 N 
ATOM     26  H   UNL     1       4.930  -8.520   0.206  0.00  0.00    +0.155 HD
BRANCH  25  27
ATOM     27  C   UNL     1       6.688  -8.266   1.258  0.00  0.00    +0.047 A 
ATOM     28  C   UNL     1       7.195  -7.553   2.334  0.00  0.00    +0.024 A 
ATOM     29  C   UNL     1       8.377  -7.949   2.931  0.00  0.00    +0.002 A 
ATOM     30  C   UNL     1       9.058  -9.056   2.458  0.00  0.00    +0.001 A 
ATOM     31  C   UNL     1       8.561  -9.773   1.386  0.00  0.00    +0.017 A 
ATOM     32  C   UNL     1       7.372  -9.386   0.784  0.00  0.00    +0.034 A 
BRANCH  32  33
ATOM     33  S   UNL     1       6.732 -10.301  -0.579  0.00  0.00    -0.088 S 
BRANCH  33  34
ATOM     34  C   UNL     1       7.825 -11.675  -0.720  0.00  0.00    +0.013 A 
ATOM     35  C   UNL     1       7.531 -12.869  -0.072  0.00  0.00    +0.015 A 
ATOM     36  C   UNL     1       8.390 -13.944  -0.185  0.00  0.00    +0.001 A 
ATOM     37  C   UNL     1       9.543 -13.834  -0.942  0.00  0.00    +0.000 A 
ATOM     38  C   UNL     1       9.838 -12.648  -1.589  0.00  0.00    +0.001 A 
ATOM     39  C   UNL     1       8.981 -11.570  -1.485  0.00  0.00    +0.015 A 
ENDBRANCH  33  34
ENDBRANCH  32  33
ENDBRANCH  25  27
ENDBRANCH  14  23
TORSDOF 5
