REMARK  Name = ZINC01436652
REMARK  7 active torsions:
REMARK  status: ('A' for Active; 'I' for Inactive)
REMARK    1  A    between atoms: C_1  and  C_2
REMARK    2  A    between atoms: C_2  and  O_3
REMARK    3  A    between atoms: O_3  and  C_4
REMARK    4  A    between atoms: C_6  and  C_11
REMARK    5  A    between atoms: C_9  and  O_10
REMARK    6  A    between atoms: C_12  and  N_20
REMARK    7  A    between atoms: C_21  and  C_22
REMARK                            x       y       z     vdW  Elec       q    Type
REMARK                         _______ _______ _______ _____ _____    ______ ____
ROOT
ATOM      1  C   UNL     1      -0.214  -4.966   0.453  0.00  0.00    +0.091 A 
ATOM      2  C   UNL     1       0.415  -6.090   0.986  0.00  0.00    +0.163 A 
ATOM      3  N   UNL     1      -0.470  -6.643   1.884  0.00  0.00    -0.286 N 
ATOM      4  C   UNL     1      -0.393  -7.742   2.690  0.00  0.00    +0.094 A 
ATOM      5  C   UNL     1      -1.423  -8.076   3.497  0.00  0.00    +0.018 A 
ATOM      6  C   UNL     1      -2.590  -7.295   3.514  0.00  0.00    +0.005 A 
ATOM      7  C   UNL     1      -2.679  -6.197   2.715  0.00  0.00    +0.045 A 
ATOM      8  C   UNL     1      -1.597  -5.860   1.879  0.00  0.00    +0.117 A 
ATOM      9  N   UNL     1      -1.420  -4.862   1.023  0.00  0.00    -0.338 N 
ATOM     10  H   UNL     1      -2.068  -4.164   0.837  0.00  0.00    +0.167 HD
ENDROOT
BRANCH   1  13
ATOM     11  C   UNL     1       0.777  -1.811  -1.336  0.00  0.00    +0.162 A 
ATOM     12  C   UNL     1       0.244  -2.666  -0.389  0.00  0.00    +0.059 A 
ATOM     13  C   UNL     1       0.354  -4.046  -0.559  0.00  0.00    +0.006 A 
ATOM     14  C   UNL     1       1.002  -4.559  -1.683  0.00  0.00    +0.014 A 
ATOM     15  C   UNL     1       1.531  -3.701  -2.625  0.00  0.00    +0.050 A 
ATOM     16  C   UNL     1       1.417  -2.329  -2.460  0.00  0.00    +0.158 A 
BRANCH  16  17
ATOM     17  O   UNL     1       1.935  -1.487  -3.393  0.00  0.00    -0.503 OA
ATOM     18  H   UNL     1       2.854  -1.235  -3.229  0.00  0.00    +0.292 HD
ENDBRANCH  16  17
BRANCH  11  19
ATOM     19  O   UNL     1       0.671  -0.465  -1.174  0.00  0.00    -0.489 OA
BRANCH  19  21
ATOM     20  C   UNL     1      -0.019   1.526   0.010  0.00  0.00    +0.048 C 
ATOM     21  C   UNL     1       0.002  -0.004   0.002  0.00  0.00    +0.226 C 
ENDBRANCH  19  21
ENDBRANCH  11  19
ENDBRANCH   1  13
BRANCH   2  22
ATOM     22  N   UNL     1       1.649  -6.546   0.680  0.00  0.00    -0.235 NA
ATOM     23  C   UNL     1       1.806  -7.405  -0.293  0.00  0.00    +0.122 C 
BRANCH  23  24
ATOM     24  C   UNL     1       3.148  -7.901  -0.625  0.00  0.00    +0.015 A 
ATOM     25  C   UNL     1       3.320  -8.816  -1.671  0.00  0.00    +0.060 A 
ATOM     26  C   UNL     1       4.583  -9.280  -1.979  0.00  0.00    +0.167 A 
ATOM     27  C   UNL     1       5.688  -8.837  -1.249  0.00  0.00    +0.168 A 
ATOM     28  C   UNL     1       5.519  -7.930  -0.213  0.00  0.00    +0.070 A 
ATOM     29  C   UNL     1       4.261  -7.457   0.099  0.00  0.00    +0.053 A 
ATOM     30 CL   UNL     1       4.057  -6.317   1.392  0.00  0.00    -0.083 Cl
ATOM     31  O   UNL     1       6.807  -9.439  -1.746  0.00  0.00    -0.453 OA
ATOM     32  C   UNL     1       6.333 -10.561  -2.514  0.00  0.00    +0.466 C 
ATOM     33  O   UNL     1       5.015 -10.158  -2.932  0.00  0.00    -0.453 OA
ENDBRANCH  23  24
ENDBRANCH   2  22
TORSDOF 6
