REMARK  Name = ZINC52879489
REMARK  6 active torsions:
REMARK  status: ('A' for Active; 'I' for Inactive)
REMARK    1  A    between atoms: C_1  and  C_2
REMARK    2  A    between atoms: C_5  and  C_8
REMARK    3  A    between atoms: C_10  and  C_13
REMARK    4  A    between atoms: C_13  and  C_14
REMARK    5  A    between atoms: C_13  and  C_15
REMARK    6  A    between atoms: C_13  and  N_21
REMARK                            x       y       z     vdW  Elec       q    Type
REMARK                         _______ _______ _______ _____ _____    ______ ____
ROOT
ATOM      1  C   UNL     1       1.559  -4.077  -0.717  0.00  0.00    +0.175 A 
ATOM      2  N   UNL     1       2.639  -4.830  -0.476  0.00  0.00    -0.197 NA
ATOM      3  C   UNL     1       2.292  -6.079  -0.339  0.00  0.00    +0.220 A 
ATOM      4  O   UNL     1       0.964  -6.165  -0.491  0.00  0.00    -0.339 OA
ATOM      5  N   UNL     1       0.506  -4.842  -0.732  0.00  0.00    -0.061 NA
ENDROOT
BRANCH   1  10
ATOM      6  C   UNL     1       0.134   1.432  -1.675  0.00  0.00    +0.007 C 
ATOM      7  C   UNL     1       0.132  -0.083  -1.458  0.00  0.00    -0.014 C 
ATOM      8  C   UNL     1       0.993  -0.753  -2.531  0.00  0.00    +0.004 C 
ATOM      9  C   UNL     1       0.991  -2.267  -2.314  0.00  0.00    +0.011 C 
ATOM     10  C   UNL     1       1.561  -2.585  -0.930  0.00  0.00    +0.060 C 
ATOM     11  C   UNL     1       0.700  -1.915   0.142  0.00  0.00    +0.011 C 
ATOM     12  C   UNL     1       0.702  -0.401  -0.074  0.00  0.00    +0.004 C 
ENDBRANCH   1  10
BRANCH   3  13
ATOM     13  C   UNL     1       3.224  -7.229  -0.059  0.00  0.00    +0.033 C 
ATOM     14  C   UNL     1       3.880  -7.033   1.309  0.00  0.00    +0.004 C 
BRANCH  13  15
ATOM     15  C   UNL     1       2.446  -8.520  -0.063  0.00  0.00    -0.050 A 
ATOM     16  C   UNL     1       2.676  -9.463  -1.046  0.00  0.00    +0.003 A 
ATOM     17  C   UNL     1       1.962 -10.647  -1.050  0.00  0.00    +0.000 A 
ATOM     18  C   UNL     1       1.018 -10.887  -0.069  0.00  0.00    +0.000 A 
ATOM     19  C   UNL     1       0.788  -9.944   0.915  0.00  0.00    +0.000 A 
ATOM     20  C   UNL     1       1.506  -8.762   0.921  0.00  0.00    +0.003 A 
ENDBRANCH  13  15
BRANCH  13  21
ATOM     21  N   UNL     1       4.263  -7.281  -1.097  0.00  0.00    +0.390 N 
ATOM     22  H   UNL     1       4.784  -6.417  -1.095  0.00  0.00    -0.088 HD
ATOM     23  H   UNL     1       4.888  -8.051  -0.909  0.00  0.00    -0.088 HD
ATOM     24  H   UNL     1       3.831  -7.411  -1.999  0.00  0.00    -0.088 HD
ENDBRANCH  13  21
ENDBRANCH   3  13
TORSDOF 4
