REMARK  Name = ZINC03011892
REMARK  4 active torsions:
REMARK  status: ('A' for Active; 'I' for Inactive)
REMARK    1  A    between atoms: C_6  and  C_7
REMARK    2  A    between atoms: C_10  and  C_29
REMARK    3  A    between atoms: C_15  and  C_17
REMARK    4  A    between atoms: N_19  and  C_20
REMARK                            x       y       z     vdW  Elec       q    Type
REMARK                         _______ _______ _______ _____ _____    ______ ____
ROOT
ATOM      1  C   UNL     1      -1.274  -0.790   0.028  0.00  0.00    +0.104 C 
ATOM      2  C   UNL     1      -1.565  -1.292   1.446  0.00  0.00    +0.063 C 
ATOM      3  C   UNL     1      -2.916  -2.014   1.478  0.00  0.00    +0.215 C 
ATOM      4  N   UNL     1      -2.955  -2.996   0.391  0.00  0.00    -0.238 N 
ATOM      5  C   UNL     1      -2.128  -2.955  -0.697  0.00  0.00    +0.119 A 
ATOM      6  C   UNL     1      -2.429  -4.002  -1.491  0.00  0.00    +0.078 A 
ATOM      7  C   UNL     1      -3.481  -4.717  -0.876  0.00  0.00    +0.149 A 
ATOM      8  N   UNL     1      -3.790  -4.104   0.254  0.00  0.00    -0.164 NA
ATOM      9  N   UNL     1      -1.168  -1.954  -0.874  0.00  0.00    -0.322 N 
ATOM     10  H   UNL     1      -0.472  -2.022  -1.546  0.00  0.00    +0.148 HD
ENDROOT
BRANCH   1  16
ATOM     11  C   UNL     1       0.008   1.360   0.033  0.00  0.00    +0.007 A 
ATOM     12  C   UNL     1       1.197   2.064   0.025  0.00  0.00    +0.020 A 
ATOM     13  C   UNL     1       2.403   1.386   0.001  0.00  0.00    +0.041 A 
ATOM     14  C   UNL     1       2.417   0.002  -0.015  0.00  0.00    +0.020 A 
ATOM     15  C   UNL     1       1.227  -0.701  -0.006  0.00  0.00    +0.007 A 
ATOM     16  C   UNL     1       0.023  -0.022   0.018  0.00  0.00    -0.027 A 
ATOM     17 CL   UNL     1       3.897   2.270  -0.011  0.00  0.00    -0.084 Cl
ENDBRANCH   1  16
BRANCH   7  18
ATOM     18  C   UNL     1      -4.125  -5.937  -1.404  0.00  0.00    +0.268 C 
ATOM     19  O   UNL     1      -3.754  -6.411  -2.460  0.00  0.00    -0.268 OA
ATOM     20  N   UNL     1      -5.123  -6.524  -0.715  0.00  0.00    -0.280 N 
ATOM     21  H   UNL     1      -5.374  -6.186   0.159  0.00  0.00    +0.155 HD
BRANCH  20  22
ATOM     22  C   UNL     1      -5.798  -7.622  -1.259  0.00  0.00    +0.036 A 
ATOM     23  C   UNL     1      -7.157  -7.787  -1.029  0.00  0.00    +0.043 A 
ATOM     24  C   UNL     1      -7.821  -8.872  -1.569  0.00  0.00    +0.044 A 
ATOM     25  C   UNL     1      -7.133  -9.794  -2.338  0.00  0.00    +0.040 A 
ATOM     26  C   UNL     1      -5.778  -9.632  -2.568  0.00  0.00    +0.044 A 
ATOM     27  C   UNL     1      -5.110  -8.545  -2.035  0.00  0.00    +0.043 A 
ATOM     28 CL   UNL     1      -4.917 -10.791  -3.533  0.00  0.00    -0.083 Cl
ATOM     29 CL   UNL     1      -9.521  -9.080  -1.282  0.00  0.00    -0.083 Cl
ENDBRANCH  20  22
ENDBRANCH   7  18
BRANCH   3  30
ATOM     30  C   UNL     1      -3.085  -2.726   2.821  0.00  0.00    +0.412 C 
ATOM     31  F   UNL     1      -3.035  -1.787   3.857  0.00  0.00    -0.168 F 
ATOM     32  F   UNL     1      -4.319  -3.385   2.848  0.00  0.00    -0.168 F 
ATOM     33  F   UNL     1      -2.055  -3.658   2.988  0.00  0.00    -0.168 F 
ENDBRANCH   3  30
TORSDOF 4
