REMARK  Name = ZINC06443575
REMARK  12 active torsions:
REMARK  status: ('A' for Active; 'I' for Inactive)
REMARK    1  A    between atoms: C_1  and  C_2
REMARK    2  A    between atoms: C_12  and  C_14
REMARK    3  A    between atoms: C_14  and  C_16
REMARK    4  A    between atoms: C_14  and  N_69
REMARK    5  A    between atoms: N_20  and  C_21
REMARK    6  A    between atoms: C_21  and  C_22
REMARK    7  A    between atoms: C_21  and  C_23
REMARK    8  A    between atoms: C_21  and  C_24
REMARK    9  A    between atoms: C_25  and  C_26
REMARK   10  A    between atoms: C_25  and  N_69
REMARK   11  A    between atoms: C_32  and  C_33
REMARK   12  A    between atoms: C_32  and  N_69
REMARK                            x       y       z     vdW  Elec       q    Type
REMARK                         _______ _______ _______ _____ _____    ______ ____
ROOT
ATOM      1  C   UNL     1      -0.686  -3.894   5.282  0.00  0.00    +0.040 C 
ENDROOT
BRANCH   1  13
ATOM      2  C   UNL     1      -1.119  -1.994  -0.996  0.00  0.00    +0.046 C 
ATOM      3  C   UNL     1       0.066  -2.119  -0.073  0.00  0.00    -0.026 A 
ATOM      4  C   UNL     1       1.331  -1.810  -0.525  0.00  0.00    +0.005 A 
ATOM      5  C   UNL     1       2.430  -1.915   0.316  0.00  0.00    +0.001 A 
ATOM      6  C   UNL     1       2.279  -2.338   1.607  0.00  0.00    +0.010 A 
ATOM      7  C   UNL     1       1.006  -2.663   2.086  0.00  0.00    -0.001 A 
ATOM      8  C   UNL     1      -0.111  -2.552   1.237  0.00  0.00    +0.052 A 
ATOM      9  N   UNL     1      -1.364  -2.873   1.714  0.00  0.00    -0.322 N 
ATOM     10  H   UNL     1      -2.133  -2.797   1.128  0.00  0.00    +0.169 HD
ATOM     11  C   UNL     1      -1.535  -3.292   2.980  0.00  0.00    +0.251 A 
ATOM     12  O   UNL     1      -2.658  -3.568   3.368  0.00  0.00    -0.268 OA
ATOM     13  C   UNL     1      -0.448  -3.421   3.871  0.00  0.00    +0.011 A 
ATOM     14  C   UNL     1       0.809  -3.120   3.462  0.00  0.00    +0.017 A 
ENDBRANCH   1  13
BRANCH   1  15
ATOM     15  C   UNL     1       0.630  -3.985   6.010  0.00  0.00    +0.143 A 
ATOM     16  N   UNL     1       1.353  -2.983   6.449  0.00  0.00    -0.115 NA
ATOM     17  N   UNL     1       2.403  -3.468   7.015  0.00  0.00    -0.023 NA
ATOM     18  N   UNL     1       2.370  -4.753   6.949  0.00  0.00    -0.043 NA
ATOM     19  N   UNL     1       1.290  -5.111   6.341  0.00  0.00    -0.225 N 
BRANCH  19  20
ATOM     20  C   UNL     1       0.862  -6.484   6.061  0.00  0.00    +0.059 C 
ATOM     21  C   UNL     1       0.612  -6.644   4.560  0.00  0.00    +0.036 C 
ATOM     22  C   UNL     1       1.956  -7.458   6.502  0.00  0.00    +0.036 C 
ATOM     23  C   UNL     1      -0.427  -6.783   6.827  0.00  0.00    +0.036 C 
ENDBRANCH  19  20
ENDBRANCH   1  15
BRANCH   1  24
ATOM     24  N   UNL     1      -1.590  -2.943   5.962  0.00  0.00    +0.395 N 
ATOM     25  H   UNL     1      -2.484  -2.913   5.457  0.00  0.00    -0.079 HD
BRANCH  24  26
ATOM     26  C   UNL     1      -0.993  -1.591   5.961  0.00  0.00    -0.041 C 
BRANCH  26  27
ATOM     27  C   UNL     1      -1.441  -0.869   4.716  0.00  0.00    -0.064 A 
ATOM     28  C   UNL     1      -0.543  -0.635   3.692  0.00  0.00    +0.002 A 
ATOM     29  C   UNL     1      -0.956   0.022   2.548  0.00  0.00    +0.000 A 
ATOM     30  C   UNL     1      -2.264   0.455   2.433  0.00  0.00    +0.000 A 
ATOM     31  C   UNL     1      -3.160   0.225   3.459  0.00  0.00    +0.000 A 
ATOM     32  C   UNL     1      -2.749  -0.437   4.601  0.00  0.00    +0.002 A 
ENDBRANCH  26  27
ENDBRANCH  24  26
BRANCH  24  33
ATOM     33  C   UNL     1      -1.837  -3.385   7.350  0.00  0.00    -0.041 C 
BRANCH  33  34
ATOM     34  C   UNL     1      -3.015  -2.622   7.899  0.00  0.00    -0.064 A 
ATOM     35  C   UNL     1      -2.814  -1.437   8.581  0.00  0.00    +0.003 A 
ATOM     36  C   UNL     1      -3.895  -0.734   9.079  0.00  0.00    +0.020 A 
ATOM     37  C   UNL     1      -5.177  -1.222   8.905  0.00  0.00    +0.041 A 
ATOM     38  C   UNL     1      -5.378  -2.412   8.227  0.00  0.00    +0.020 A 
ATOM     39  C   UNL     1      -4.297  -3.111   7.725  0.00  0.00    +0.003 A 
ATOM     40 CL   UNL     1      -6.535  -0.343   9.537  0.00  0.00    -0.084 Cl
ENDBRANCH  33  34
ENDBRANCH  24  33
ENDBRANCH   1  24
TORSDOF 8
