REMARK  Name = ZINC01868964
REMARK  8 active torsions:
REMARK  status: ('A' for Active; 'I' for Inactive)
REMARK    1  A    between atoms: C_4  and  N_34
REMARK    2  A    between atoms: C_5  and  C_7
REMARK    3  A    between atoms: C_8  and  C_9
REMARK    4  A    between atoms: N_10  and  N_11
REMARK    5  A    between atoms: C_12  and  C_14
REMARK    6  A    between atoms: C_14  and  S_15
REMARK    7  A    between atoms: S_15  and  C_16
REMARK    8  A    between atoms: N_26  and  C_27
REMARK                            x       y       z     vdW  Elec       q    Type
REMARK                         _______ _______ _______ _____ _____    ______ ____
ROOT
ATOM      1  S   UNL     1      -2.704  -2.759  -1.122  0.00  0.00    -0.078 S 
ENDROOT
BRANCH   1   2
ATOM      2  C   UNL     1      -1.324  -1.924  -0.413  0.00  0.00    +0.177 A 
ATOM      3  N   UNL     1      -1.211  -0.633  -0.602  0.00  0.00    -0.223 NA
ATOM      4  C   UNL     1      -0.180   0.069  -0.089  0.00  0.00    +0.079 A 
ATOM      5  C   UNL     1      -0.060   1.447  -0.289  0.00  0.00    +0.028 A 
ATOM      6  C   UNL     1       1.001   2.119   0.249  0.00  0.00    +0.002 A 
ATOM      7  C   UNL     1       1.964   1.453   0.996  0.00  0.00    +0.001 A 
ATOM      8  C   UNL     1       1.875   0.105   1.210  0.00  0.00    +0.015 A 
ATOM      9  C   UNL     1       0.803  -0.606   0.671  0.00  0.00    +0.065 A 
ATOM     10  C   UNL     1       0.655  -2.054   0.870  0.00  0.00    +0.267 A 
ATOM     11  O   UNL     1       1.469  -2.689   1.514  0.00  0.00    -0.267 OA
ATOM     12  N   UNL     1      -0.420  -2.655   0.308  0.00  0.00    -0.255 N 
BRANCH  12  13
ATOM     13  C   UNL     1      -0.608  -4.034   0.467  0.00  0.00    +0.052 A 
ATOM     14  C   UNL     1      -1.429  -4.512   1.479  0.00  0.00    +0.028 A 
ATOM     15  C   UNL     1      -1.617  -5.872   1.630  0.00  0.00    +0.022 A 
ATOM     16  C   UNL     1      -0.979  -6.758   0.780  0.00  0.00    +0.041 A 
ATOM     17  C   UNL     1      -0.156  -6.285  -0.226  0.00  0.00    +0.022 A 
ATOM     18  C   UNL     1       0.031  -4.926  -0.385  0.00  0.00    +0.028 A 
ATOM     19 CL   UNL     1      -1.211  -8.467   0.977  0.00  0.00    -0.084 Cl
ENDBRANCH  12  13
ENDBRANCH   1   2
BRANCH   1  20
ATOM     20  C   UNL     1      -3.533  -1.367  -1.929  0.00  0.00    +0.174 C 
BRANCH  20  22
ATOM     21  N   UNL     1      -5.561  -0.990  -3.293  0.00  0.00    -0.206 N 
ATOM     22  C   UNL     1      -4.779  -1.857  -2.621  0.00  0.00    +0.242 C 
ATOM     23  O   UNL     1      -5.077  -3.032  -2.574  0.00  0.00    -0.273 OA
ATOM     24  H   UNL     1      -5.323  -0.050  -3.331  0.00  0.00    +0.177 HD
BRANCH  21  26
ATOM     25  C   UNL     1      -7.476  -0.608  -4.587  0.00  0.00    +0.130 C 
ATOM     26  N   UNL     1      -6.719  -1.445  -3.937  0.00  0.00    -0.188 NA
BRANCH  25  28
ATOM     27  C   UNL     1      -9.431  -0.201  -5.911  0.00  0.00    +0.012 C 
ATOM     28  C   UNL     1      -8.648  -1.069  -5.238  0.00  0.00    +0.022 C 
BRANCH  27  33
ATOM     29  C   UNL     1     -11.964  -2.484  -7.473  0.00  0.00    +0.001 A 
ATOM     30  C   UNL     1     -12.937  -1.580  -7.860  0.00  0.00    +0.002 A 
ATOM     31  C   UNL     1     -12.773  -0.228  -7.615  0.00  0.00    +0.033 A 
ATOM     32  C   UNL     1     -11.638   0.228  -6.976  0.00  0.00    +0.133 A 
ATOM     33  C   UNL     1     -10.648  -0.679  -6.587  0.00  0.00    +0.005 A 
ATOM     34  C   UNL     1     -10.821  -2.044  -6.839  0.00  0.00    +0.010 A 
BRANCH  32  35
ATOM     35  N   UNL     1     -11.467   1.674  -6.709  0.00  0.00    +0.057 N 
ATOM     36  O   UNL     1     -12.357   2.455  -6.993  0.00  0.00    -0.126 OA
ATOM     37  O   UNL     1     -10.436   2.082  -6.205  0.00  0.00    -0.126 OA
ENDBRANCH  32  35
ENDBRANCH  27  33
ENDBRANCH  25  28
ENDBRANCH  21  26
ENDBRANCH  20  22
ENDBRANCH   1  20
TORSDOF 8
