REMARK  Name = ZINC01315222
REMARK  6 active torsions:
REMARK  status: ('A' for Active; 'I' for Inactive)
REMARK    1  A    between atoms: C_1  and  C_2
REMARK    2  A    between atoms: C_6  and  N_8
REMARK    3  A    between atoms: C_9  and  C_26
REMARK    4  A    between atoms: C_16  and  C_25
REMARK    5  A    between atoms: C_17  and  C_24
REMARK    6  A    between atoms: C_30  and  O_32
REMARK                            x       y       z     vdW  Elec       q    Type
REMARK                         _______ _______ _______ _____ _____    ______ ____
ROOT
ATOM      1  N   UNL     1       0.060  -2.637   2.416  0.00  0.00    -0.238 N 
ATOM      2  C   UNL     1      -0.033  -1.998   3.734  0.00  0.00    +0.151 C 
ATOM      3  C   UNL     1       0.030  -3.115   4.742  0.00  0.00    +0.072 A 
ATOM      4  C   UNL     1      -0.013  -3.135   6.207  0.00  0.00    +0.199 A 
ATOM      5  O   UNL     1      -0.127  -2.110   6.857  0.00  0.00    -0.287 OA
ATOM      6  C   UNL     1       0.086  -4.457   6.856  0.00  0.00    +0.065 A 
ATOM      7  C   UNL     1       0.054  -4.591   8.242  0.00  0.00    +0.019 A 
ATOM      8  C   UNL     1       0.149  -5.835   8.804  0.00  0.00    -0.047 A 
ATOM      9  C   UNL     1       0.277  -6.959   8.000  0.00  0.00    -0.044 A 
ATOM     10  C   UNL     1       0.311  -6.845   6.627  0.00  0.00    +0.050 A 
ATOM     11  C   UNL     1       0.215  -5.590   6.033  0.00  0.00    +0.140 A 
ATOM     12  O   UNL     1       0.246  -5.461   4.694  0.00  0.00    -0.450 OA
ATOM     13  C   UNL     1       0.158  -4.277   4.056  0.00  0.00    +0.199 A 
ATOM     14  C   UNL     1       0.175  -3.963   2.606  0.00  0.00    +0.288 C 
ATOM     15  O   UNL     1       0.278  -4.785   1.718  0.00  0.00    -0.266 OA
ATOM     16  C   UNL     1       0.380  -8.321   8.636  0.00  0.00    +0.044 C 
ATOM     17  C   UNL     1       0.115  -5.985  10.303  0.00  0.00    +0.044 C 
ENDROOT
BRANCH   1  23
ATOM     18  C   UNL     1      -0.018   1.503   0.010  0.00  0.00    +0.065 C 
ATOM     19  C   UNL     1       0.002  -0.004   0.002  0.00  0.00    +0.040 A 
ATOM     20  C   UNL     1      -0.006  -0.679  -1.203  0.00  0.00    +0.023 A 
ATOM     21  C   UNL     1       0.018  -2.067  -1.204  0.00  0.00    +0.005 A 
ATOM     22  C   UNL     1       0.039  -2.728   0.011  0.00  0.00    +0.044 A 
ATOM     23  C   UNL     1       0.040  -1.984   1.186  0.00  0.00    +0.129 A 
ATOM     24  N   UNL     1       0.022  -0.661   1.145  0.00  0.00    -0.237 NA
ENDBRANCH   1  23
BRANCH   2  25
ATOM     25  C   UNL     1       1.120  -1.048   3.934  0.00  0.00    -0.019 A 
ATOM     26  C   UNL     1       2.381  -1.387   3.476  0.00  0.00    +0.006 A 
ATOM     27  C   UNL     1       3.440  -0.516   3.653  0.00  0.00    +0.004 A 
ATOM     28  C   UNL     1       3.243   0.690   4.298  0.00  0.00    +0.045 A 
ATOM     29  C   UNL     1       1.981   1.030   4.762  0.00  0.00    +0.117 A 
ATOM     30  C   UNL     1       0.919   0.156   4.578  0.00  0.00    +0.051 A 
BRANCH  29  31
ATOM     31  O   UNL     1       1.785   2.216   5.395  0.00  0.00    -0.507 OA
ATOM     32  H   UNL     1       1.910   2.176   6.353  0.00  0.00    +0.292 HD
ENDBRANCH  29  31
ENDBRANCH   2  25
TORSDOF 3
