REMARK  Name = ZINC44170152
REMARK  15 active torsions:
REMARK  status: ('A' for Active; 'I' for Inactive)
REMARK    1  A    between atoms: C_1  and  C_2
REMARK    2  A    between atoms: C_5  and  O_19
REMARK    3  A    between atoms: C_6  and  C_10
REMARK    4  A    between atoms: C_7  and  O_8
REMARK    5  A    between atoms: O_8  and  C_9
REMARK    6  A    between atoms: C_10  and  C_11
REMARK    7  A    between atoms: C_12  and  C_13
REMARK    8  A    between atoms: C_12  and  C_14
REMARK    9  A    between atoms: C_14  and  C_15
REMARK   10  A    between atoms: C_15  and  C_16
REMARK   11  A    between atoms: O_19  and  C_20
REMARK   12  A    between atoms: C_22  and  O_36
REMARK   13  A    between atoms: C_24  and  O_35
REMARK   14  A    between atoms: C_26  and  O_34
REMARK   15  A    between atoms: C_28  and  C_31
REMARK                            x       y       z     vdW  Elec       q    Type
REMARK                         _______ _______ _______ _____ _____    ______ ____
ROOT
ATOM      1  C   UNL     1      -1.041   0.712   1.038  0.00  0.00    +0.048 C 
ATOM      2  C   UNL     1      -0.723  -0.741   0.792  0.00  0.00    -0.001 A 
ATOM      3  C   UNL     1      -0.817  -1.257  -0.474  0.00  0.00    +0.014 A 
ATOM      4  C   UNL     1      -0.523  -2.606  -0.713  0.00  0.00    +0.108 A 
ATOM      5  C   UNL     1      -0.132  -3.427   0.356  0.00  0.00    +0.145 A 
ATOM      6  C   UNL     1      -0.040  -2.895   1.631  0.00  0.00    +0.041 A 
ATOM      7  C   UNL     1      -0.328  -1.556   1.851  0.00  0.00    +0.130 A 
ATOM      8  C   UNL     1      -0.713  -2.857  -2.147  0.00  0.00    +0.343 C 
ATOM      9  O   UNL     1      -0.543  -3.929  -2.695  0.00  0.00    -0.245 OA
ATOM     10  O   UNL     1      -1.102  -1.729  -2.766  0.00  0.00    -0.456 OA
ATOM     11  C   UNL     1      -1.198  -0.670  -1.810  0.00  0.00    +0.269 C 
ENDROOT
BRANCH   7  12
ATOM     12  O   UNL     1      -0.231  -1.040   3.102  0.00  0.00    -0.494 OA
ATOM     13  C   UNL     1      -1.401  -1.097   3.920  0.00  0.00    +0.277 C 
ENDBRANCH   7  12
BRANCH   6  14
ATOM     14  C   UNL     1       0.380  -3.772   2.782  0.00  0.00    +0.069 C 
BRANCH  14  15
ATOM     15  C   UNL     1       1.859  -3.614   3.021  0.00  0.00    -0.023 C 
ATOM     16  C   UNL     1       2.300  -3.302   4.214  0.00  0.00    -0.076 C 
ATOM     17  C   UNL     1       1.325  -3.010   5.326  0.00  0.00    +0.039 C 
BRANCH  16  18
ATOM     18  C   UNL     1       3.783  -3.235   4.476  0.00  0.00    +0.041 C 
BRANCH  18  19
ATOM     19  C   UNL     1       4.263  -1.790   4.321  0.00  0.00    +0.129 C 
BRANCH  19  20
ATOM     20  C   UNL     1       5.746  -1.723   4.582  0.00  0.00    +0.356 C 
ATOM     21  O   UNL     1       6.361  -2.737   4.867  0.00  0.00    -0.246 OA
ATOM     22  O   UNL     1       6.330  -0.656   4.510  0.00  0.00    -0.246 OA
ENDBRANCH  19  20
ENDBRANCH  18  19
ENDBRANCH  16  18
ENDBRANCH  14  15
ENDBRANCH   6  14
BRANCH   5  23
ATOM     23  O   UNL     1       0.155  -4.735   0.140  0.00  0.00    -0.460 OA
BRANCH  23  24
ATOM     24  C   UNL     1       1.524  -5.068  -0.099  0.00  0.00    +0.340 C 
ATOM     25  C   UNL     1       1.691  -6.590  -0.077  0.00  0.00    +0.214 C 
ATOM     26  C   UNL     1       3.148  -6.940  -0.394  0.00  0.00    +0.180 C 
ATOM     27  C   UNL     1       3.524  -6.334  -1.749  0.00  0.00    +0.186 C 
ATOM     28  C   UNL     1       3.287  -4.823  -1.707  0.00  0.00    +0.266 C 
ATOM     29  O   UNL     1       1.920  -4.565  -1.377  0.00  0.00    -0.322 OA
BRANCH  28  30
ATOM     30  C   UNL     1       3.599  -4.227  -3.056  0.00  0.00    +0.387 C 
ATOM     31  O   UNL     1       2.710  -3.717  -3.717  0.00  0.00    -0.243 OA
ATOM     32  O   UNL     1       4.739  -4.256  -3.486  0.00  0.00    -0.243 OA
ENDBRANCH  28  30
BRANCH  27  33
ATOM     33  O   UNL     1       2.717  -6.918  -2.774  0.00  0.00    -0.386 OA
ATOM     34  H   UNL     1       2.902  -6.580  -3.661  0.00  0.00    +0.210 HD
ENDBRANCH  27  33
BRANCH  26  35
ATOM     35  O   UNL     1       3.298  -8.361  -0.445  0.00  0.00    -0.386 OA
ATOM     36  H   UNL     1       4.198  -8.655  -0.642  0.00  0.00    +0.210 HD
ENDBRANCH  26  35
BRANCH  25  37
ATOM     37  O   UNL     1       1.350  -7.088   1.218  0.00  0.00    -0.383 OA
ATOM     38  H   UNL     1       0.440  -6.897   1.486  0.00  0.00    +0.210 HD
ENDBRANCH  25  37
ENDBRANCH  23  24
ENDBRANCH   5  23
TORSDOF 12
