REMARK  Name = ZINC14270406
REMARK  7 active torsions:
REMARK  status: ('A' for Active; 'I' for Inactive)
REMARK    1  A    between atoms: C_6  and  C_7
REMARK    2  A    between atoms: C_10  and  C_12
REMARK    3  A    between atoms: N_14  and  C_15
REMARK    4  A    between atoms: C_15  and  N_17
REMARK    5  A    between atoms: N_17  and  N_18
REMARK    6  A    between atoms: N_18  and  C_19
REMARK    7  A    between atoms: C_22  and  N_25
REMARK                            x       y       z     vdW  Elec       q    Type
REMARK                         _______ _______ _______ _____ _____    ______ ____
ROOT
ATOM      1  C   UNL     1       1.350  -6.146  -0.042  0.00  0.00    +0.285 C 
ATOM      2  O   UNL     1       2.413  -6.737  -0.056  0.00  0.00    -0.266 OA
ATOM      3  N   UNL     1       1.328  -4.798  -0.035  0.00  0.00    -0.260 N 
ATOM      4  H   UNL     1       0.480  -4.327  -0.024  0.00  0.00    +0.157 HD
ENDROOT
BRANCH   1   8
ATOM      5  C   UNL     1      -2.054  -7.359  -0.014  0.00  0.00    +0.136 A 
ATOM      6  C   UNL     1      -1.396  -8.556  -0.027  0.00  0.00    +0.050 A 
ATOM      7  C   UNL     1      -0.027  -8.271  -0.039  0.00  0.00    +0.055 A 
ATOM      8  C   UNL     1       0.094  -6.898  -0.034  0.00  0.00    +0.190 A 
ATOM      9  O   UNL     1      -1.147  -6.368  -0.013  0.00  0.00    -0.450 OA
BRANCH   5  15
ATOM     10  C   UNL     1      -4.360  -8.300   0.000  0.00  0.00    +0.012 A 
ATOM     11  C   UNL     1      -5.729  -8.130   0.020  0.00  0.00    +0.016 A 
ATOM     12  C   UNL     1      -6.271  -6.856   0.032  0.00  0.00    +0.018 A 
ATOM     13  C   UNL     1      -5.444  -5.745   0.029  0.00  0.00    +0.016 A 
ATOM     14  C   UNL     1      -4.074  -5.902   0.014  0.00  0.00    +0.012 A 
ATOM     15  C   UNL     1      -3.521  -7.184   0.002  0.00  0.00    +0.017 A 
ATOM     16 BR   UNL     1      -8.148  -6.631   0.051  0.00  0.00    -0.050 Br
ENDBRANCH   5  15
ENDBRANCH   1   8
BRANCH   3  17
ATOM     17  C   UNL     1       2.484  -4.105  -0.043  0.00  0.00    +0.153 C 
ATOM     18  S   UNL     1       3.980  -4.937  -0.062  0.00  0.00    -0.017 S 
BRANCH  17  19
ATOM     19  N   UNL     1       2.462  -2.758  -0.036  0.00  0.00    -0.248 N 
ATOM     20  H   UNL     1       3.294  -2.259  -0.042  0.00  0.00    +0.172 HD
BRANCH  19  21
ATOM     21  N   UNL     1       1.238  -2.077  -0.021  0.00  0.00    -0.265 N 
ATOM     22  H   UNL     1       0.406  -2.576  -0.015  0.00  0.00    +0.170 HD
BRANCH  21  23
ATOM     23  C   UNL     1       1.215  -0.681  -0.013  0.00  0.00    +0.045 A 
ATOM     24  C   UNL     1       0.002  -0.004   0.002  0.00  0.00    +0.026 A 
ATOM     25  C   UNL     1      -0.017   1.377   0.010  0.00  0.00    +0.034 A 
ATOM     26  C   UNL     1       1.171   2.086   0.002  0.00  0.00    +0.126 A 
ATOM     27  C   UNL     1       2.380   1.416  -0.013  0.00  0.00    +0.034 A 
ATOM     28  C   UNL     1       2.406   0.035  -0.021  0.00  0.00    +0.026 A 
BRANCH  26  29
ATOM     29  N   UNL     1       1.147   3.566   0.010  0.00  0.00    +0.056 N 
ATOM     30  O   UNL     1       0.082   4.158   0.023  0.00  0.00    -0.126 OA
ATOM     31  O   UNL     1       2.191   4.192   0.003  0.00  0.00    -0.126 OA
ENDBRANCH  26  29
ENDBRANCH  21  23
ENDBRANCH  19  21
ENDBRANCH  17  19
ENDBRANCH   3  17
TORSDOF 7
