REMARK  Name = ZINC12803215
REMARK  10 active torsions:
REMARK  status: ('A' for Active; 'I' for Inactive)
REMARK    1  A    between atoms: C_1  and  C_2
REMARK    2  A    between atoms: C_5  and  N_8
REMARK    3  A    between atoms: C_9  and  C_11
REMARK    4  A    between atoms: C_11  and  N_50
REMARK    5  A    between atoms: C_12  and  N_50
REMARK    6  A    between atoms: C_13  and  C_14
REMARK    7  A    between atoms: C_13  and  N_50
REMARK    8  A    between atoms: C_17  and  C_19
REMARK    9  A    between atoms: C_24  and  O_25
REMARK   10  A    between atoms: O_25  and  C_26
REMARK                            x       y       z     vdW  Elec       q    Type
REMARK                         _______ _______ _______ _____ _____    ______ ____
ROOT
ATOM      1  C   UNL     1       3.861  -6.128  -0.727  0.00  0.00    -0.022 C 
ENDROOT
BRANCH   1   2
ATOM      2  C   UNL     1       5.277  -6.512  -1.074  0.00  0.00    +0.033 A 
ATOM      3  C   UNL     1       6.086  -7.055  -0.127  0.00  0.00    +0.068 A 
ATOM      4  S   UNL     1       7.584  -7.298  -1.072  0.00  0.00    -0.075 S 
ATOM      5  C   UNL     1       6.971  -6.652  -2.622  0.00  0.00    +0.112 A 
ATOM      6  N   UNL     1       5.729  -6.327  -2.293  0.00  0.00    -0.246 NA
BRANCH   5   7
ATOM      7  C   UNL     1       7.661  -6.520  -3.922  0.00  0.00    +0.050 A 
ATOM      8  C   UNL     1       6.989  -5.987  -5.022  0.00  0.00    +0.029 A 
ATOM      9  C   UNL     1       7.640  -5.862  -6.233  0.00  0.00    +0.019 A 
ATOM     10  C   UNL     1       8.956  -6.274  -6.362  0.00  0.00    +0.019 A 
ATOM     11  C   UNL     1       9.631  -6.808  -5.280  0.00  0.00    +0.047 A 
ATOM     12  C   UNL     1       8.992  -6.935  -4.058  0.00  0.00    +0.130 A 
ATOM     13 BR   UNL     1       6.731  -5.133  -7.721  0.00  0.00    -0.050 Br
BRANCH  12  14
ATOM     14  O   UNL     1       9.654  -7.459  -2.994  0.00  0.00    -0.494 OA
ATOM     15  C   UNL     1      11.009  -7.861  -3.207  0.00  0.00    +0.277 C 
ENDBRANCH  12  14
ENDBRANCH   5   7
ENDBRANCH   1   2
BRANCH   1  17
ATOM     16  C   UNL     1       4.558  -4.446   0.868  0.00  0.00    -0.095 C 
ATOM     17  N   UNL     1       3.826  -4.689  -0.392  0.00  0.00    +0.387 N 
ATOM     18  H   UNL     1       4.277  -4.160  -1.148  0.00  0.00    -0.081 HD
BRANCH  17  19
ATOM     19  C   UNL     1       2.425  -4.236  -0.258  0.00  0.00    +0.019 C 
BRANCH  19  21
ATOM     20  N   UNL     1       1.237  -2.079  -0.020  0.00  0.00    -0.287 N 
ATOM     21  C   UNL     1       2.410  -2.734  -0.137  0.00  0.00    +0.201 C 
ATOM     22  O   UNL     1       3.452  -2.114  -0.144  0.00  0.00    -0.278 OA
ATOM     23  H   UNL     1       0.409  -2.578   0.062  0.00  0.00    +0.155 HD
BRANCH  20  28
ATOM     24  C   UNL     1       1.143   3.593  -0.015  0.00  0.00    +0.044 C 
ATOM     25  C   UNL     1       1.168   2.086  -0.017  0.00  0.00    -0.050 A 
ATOM     26  C   UNL     1       2.111   1.412  -0.771  0.00  0.00    +0.005 A 
ATOM     27  C   UNL     1       2.137   0.031  -0.774  0.00  0.00    +0.023 A 
ATOM     28  C   UNL     1       1.214  -0.680  -0.019  0.00  0.00    +0.033 A 
ATOM     29  C   UNL     1       0.268  -0.001   0.737  0.00  0.00    +0.023 A 
ATOM     30  C   UNL     1       0.248   1.380   0.736  0.00  0.00    +0.005 A 
ENDBRANCH  20  28
ENDBRANCH  19  21
ENDBRANCH  17  19
ENDBRANCH   1  17
TORSDOF 7
