REMARK  Name = ZINC04178177
REMARK  9 active torsions:
REMARK  status: ('A' for Active; 'I' for Inactive)
REMARK    1  A    between atoms: C_1  and  C_2
REMARK    2  A    between atoms: N_7  and  C_8
REMARK    3  A    between atoms: C_8  and  C_10
REMARK    4  A    between atoms: C_8  and  C_20
REMARK    5  A    between atoms: C_13  and  O_16
REMARK    6  A    between atoms: O_16  and  C_17
REMARK    7  A    between atoms: C_17  and  C_18
REMARK    8  A    between atoms: C_17  and  C_19
REMARK    9  A    between atoms: C_29  and  O_30
REMARK                            x       y       z     vdW  Elec       q    Type
REMARK                         _______ _______ _______ _____ _____    ______ ____
ROOT
ATOM      1  C   UNL     1       1.911   2.542   4.006  0.00  0.00    +0.136 C 
ENDROOT
BRANCH   1   8
ATOM      2  C   UNL     1       2.178   6.706   6.984  0.00  0.00    +0.044 C 
ATOM      3  C   UNL     1       1.074   5.987   6.252  0.00  0.00    -0.046 A 
ATOM      4  C   UNL     1      -0.229   6.465   6.285  0.00  0.00    +0.021 A 
ATOM      5  C   UNL     1      -1.216   5.787   5.599  0.00  0.00    +0.084 A 
ATOM      6  C   UNL     1       0.291   4.196   4.873  0.00  0.00    +0.097 A 
ATOM      7  C   UNL     1       1.335   4.832   5.536  0.00  0.00    +0.045 A 
ATOM      8  N   UNL     1       0.539   3.035   4.151  0.00  0.00    -0.320 N 
ATOM      9  H   UNL     1      -0.196   2.551   3.743  0.00  0.00    +0.148 HD
ATOM     10  N   UNL     1      -0.996   4.649   4.886  0.00  0.00    -0.350 N 
ATOM     11  H   UNL     1      -1.751   4.163   4.389  0.00  0.00    +0.166 HD
ENDBRANCH   1   8
BRANCH   1  12
ATOM     12  C   UNL     1       2.594   3.280   2.884  0.00  0.00    +0.021 A 
ATOM     13  C   UNL     1       1.829   3.825   1.856  0.00  0.00    +0.010 A 
ATOM     14  C   UNL     1       2.415   4.503   0.831  0.00  0.00    +0.010 A 
ATOM     15  C   UNL     1       3.812   4.647   0.799  0.00  0.00    +0.004 A 
ATOM     16  C   UNL     1       4.454   5.336  -0.247  0.00  0.00    +0.011 A 
ATOM     17  C   UNL     1       5.816   5.437  -0.212  0.00  0.00    +0.020 A 
ATOM     18  C   UNL     1       6.528   4.866   0.841  0.00  0.00    +0.111 A 
ATOM     19  N   UNL     1       5.926   4.225   1.814  0.00  0.00    -0.251 NA
ATOM     20  C   UNL     1       4.597   4.090   1.839  0.00  0.00    +0.113 A 
ATOM     21  C   UNL     1       3.954   3.400   2.888  0.00  0.00    +0.148 A 
BRANCH  21  22
ATOM     22  O   UNL     1       4.685   2.857   3.896  0.00  0.00    -0.504 OA
ATOM     23  H   UNL     1       4.964   1.946   3.733  0.00  0.00    +0.292 HD
ENDBRANCH  21  22
ENDBRANCH   1  12
BRANCH   1  24
ATOM     24  C   UNL     1       1.884   1.068   3.694  0.00  0.00    -0.023 A 
ATOM     25  C   UNL     1       1.014   0.580   2.736  0.00  0.00    +0.009 A 
ATOM     26  C   UNL     1       0.992  -0.770   2.445  0.00  0.00    +0.046 A 
ATOM     27  C   UNL     1       1.835  -1.639   3.122  0.00  0.00    +0.121 A 
ATOM     28  C   UNL     1       2.704  -1.148   4.086  0.00  0.00    +0.046 A 
ATOM     29  C   UNL     1       2.726   0.204   4.369  0.00  0.00    +0.009 A 
BRANCH  27  30
ATOM     30  O   UNL     1       1.811  -2.968   2.841  0.00  0.00    -0.489 OA
BRANCH  30  31
ATOM     31  C   UNL     1       0.812  -3.419   1.923  0.00  0.00    +0.167 C 
ATOM     32  C   UNL     1       1.325  -3.257   0.491  0.00  0.00    +0.051 C 
ATOM     33  C   UNL     1       0.503  -4.894   2.191  0.00  0.00    +0.051 C 
ENDBRANCH  30  31
ENDBRANCH  27  30
ENDBRANCH   1  24
TORSDOF 6
