REMARK  Name = ZINC09408986
REMARK  7 active torsions:
REMARK  status: ('A' for Active; 'I' for Inactive)
REMARK    1  A    between atoms: C_4  and  O_7
REMARK    2  A    between atoms: O_7  and  C_8
REMARK    3  A    between atoms: C_12  and  C_14
REMARK    4  A    between atoms: C_17  and  C_31
REMARK    5  A    between atoms: N_24  and  C_25
REMARK    6  A    between atoms: C_25  and  C_26
REMARK    7  A    between atoms: C_36  and  O_37
REMARK                            x       y       z     vdW  Elec       q    Type
REMARK                         _______ _______ _______ _____ _____    ______ ____
ROOT
ATOM      1  C   UNL     1       5.967  -4.836   0.373  0.00  0.00    +0.142 C 
ATOM      2  C   UNL     1       6.187  -5.333   1.775  0.00  0.00    +0.035 A 
ATOM      3  C   UNL     1       6.358  -5.013   3.127  0.00  0.00    +0.102 A 
ATOM      4  N   UNL     1       6.507  -6.146   3.784  0.00  0.00    -0.173 NA
ATOM      5  N   UNL     1       6.447  -7.149   2.982  0.00  0.00    -0.272 N 
ATOM      6  H   UNL     1       6.531  -8.079   3.246  0.00  0.00    +0.189 HD
ATOM      7  C   UNL     1       6.247  -6.711   1.704  0.00  0.00    +0.126 A 
ATOM      8  C   UNL     1       6.074  -7.114   0.303  0.00  0.00    +0.266 C 
ATOM      9  O   UNL     1       6.077  -8.263  -0.094  0.00  0.00    -0.268 OA
ATOM     10  N   UNL     1       5.911  -6.030  -0.480  0.00  0.00    -0.278 N 
ENDROOT
BRANCH   1  15
ATOM     11  C   UNL     1       3.481  -2.017  -0.019  0.00  0.00    +0.129 A 
ATOM     12  C   UNL     1       2.277  -2.689   0.137  0.00  0.00    +0.046 A 
ATOM     13  C   UNL     1       2.273  -4.051   0.368  0.00  0.00    +0.004 A 
ATOM     14  C   UNL     1       3.467  -4.745   0.444  0.00  0.00    +0.006 A 
ATOM     15  C   UNL     1       4.668  -4.077   0.289  0.00  0.00    -0.019 A 
ATOM     16  C   UNL     1       4.678  -2.716   0.052  0.00  0.00    +0.052 A 
BRANCH  11  17
ATOM     17  O   UNL     1       3.488  -0.677  -0.247  0.00  0.00    -0.456 OA
BRANCH  17  21
ATOM     18  C   UNL     1      -0.119   1.322  -0.153  0.00  0.00    +0.000 A 
ATOM     19  C   UNL     1       0.431   0.836   1.019  0.00  0.00    +0.004 A 
ATOM     20  C   UNL     1       1.639   0.166   0.990  0.00  0.00    +0.046 A 
ATOM     21  C   UNL     1       2.300  -0.019  -0.216  0.00  0.00    +0.128 A 
ATOM     22  C   UNL     1       1.745   0.469  -1.390  0.00  0.00    +0.046 A 
ATOM     23  C   UNL     1       0.537   1.139  -1.356  0.00  0.00    +0.004 A 
ENDBRANCH  17  21
ENDBRANCH  11  17
ENDBRANCH   1  15
BRANCH   3  24
ATOM     24  C   UNL     1       6.370  -3.650   3.712  0.00  0.00    +0.044 A 
ATOM     25  C   UNL     1       6.323  -2.532   2.883  0.00  0.00    +0.014 A 
ATOM     26  C   UNL     1       6.335  -1.266   3.432  0.00  0.00    +0.001 A 
ATOM     27  C   UNL     1       6.393  -1.102   4.805  0.00  0.00    +0.004 A 
ATOM     28  C   UNL     1       6.441  -2.205   5.637  0.00  0.00    +0.046 A 
ATOM     29  C   UNL     1       6.423  -3.482   5.099  0.00  0.00    +0.126 A 
BRANCH  29  30
ATOM     30  O   UNL     1       6.463  -4.566   5.916  0.00  0.00    -0.506 OA
ATOM     31  H   UNL     1       7.358  -4.874   6.118  0.00  0.00    +0.292 HD
ENDBRANCH  29  30
ENDBRANCH   3  24
BRANCH  10  32
ATOM     32  C   UNL     1       5.711  -6.041  -1.931  0.00  0.00    +0.183 C 
BRANCH  32  33
ATOM     33  C   UNL     1       7.048  -5.972  -2.623  0.00  0.00    +0.122 A 
ATOM     34  C   UNL     1       7.799  -7.026  -2.989  0.00  0.00    +0.046 A 
ATOM     35  C   UNL     1       8.963  -6.506  -3.601  0.00  0.00    +0.041 A 
ATOM     36  C   UNL     1       8.853  -5.166  -3.572  0.00  0.00    +0.195 A 
ATOM     37  O   UNL     1       7.688  -4.848  -2.984  0.00  0.00    -0.466 OA
ENDBRANCH  32  33
ENDBRANCH  10  32
TORSDOF 7
