REMARK  Name = ZINC11910334
REMARK  9 active torsions:
REMARK  status: ('A' for Active; 'I' for Inactive)
REMARK    1  A    between atoms: C_1  and  N_2
REMARK    2  A    between atoms: C_5  and  C_7
REMARK    3  A    between atoms: N_9  and  C_10
REMARK    4  A    between atoms: N_9  and  C_11
REMARK    5  A    between atoms: C_11  and  C_13
REMARK    6  A    between atoms: C_11  and  C_20
REMARK    7  A    between atoms: C_13  and  C_14
REMARK    8  A    between atoms: C_25  and  C_26
REMARK    9  A    between atoms: C_25  and  N_66
REMARK                            x       y       z     vdW  Elec       q    Type
REMARK                         _______ _______ _______ _____ _____    ______ ____
ROOT
ATOM      1  C   UNL     1      -0.007   1.136   0.005  0.00  0.00    +0.083 C 
ENDROOT
BRANCH   1   2
ATOM      2  C   UNL     1      -0.618   1.542  -1.338  0.00  0.00    +0.006 C 
ATOM      3  C   UNL     1      -1.985   0.872  -1.502  0.00  0.00    -0.013 C 
ATOM      4  C   UNL     1      -2.563   1.232  -2.873  0.00  0.00    -0.078 C 
ATOM      5  C   UNL     1      -0.342   1.448  -3.818  0.00  0.00    -0.078 C 
ATOM      6  C   UNL     1       0.303   1.093  -2.476  0.00  0.00    -0.013 C 
ATOM      7  N   UNL     1      -1.641   0.751  -3.924  0.00  0.00    +0.382 N 
ATOM      8  H   UNL     1      -1.490  -0.257  -3.800  0.00  0.00    -0.081 HD
BRANCH   7   9
ATOM      9  C   UNL     1      -2.232   0.986  -5.258  0.00  0.00    -0.041 C 
BRANCH   9  10
ATOM     10  C   UNL     1      -3.660   0.506  -5.257  0.00  0.00    -0.042 A 
ATOM     11  C   UNL     1      -4.696   1.421  -5.236  0.00  0.00    +0.052 A 
ATOM     12  C   UNL     1      -6.010   0.982  -5.236  0.00  0.00    +0.167 A 
ATOM     13  C   UNL     1      -6.285  -0.383  -5.257  0.00  0.00    +0.168 A 
ATOM     14  C   UNL     1      -5.242  -1.296  -5.278  0.00  0.00    +0.069 A 
ATOM     15  C   UNL     1      -3.932  -0.850  -5.284  0.00  0.00    +0.046 A 
ATOM     16 CL   UNL     1      -2.628  -1.995  -5.318  0.00  0.00    -0.083 Cl
ATOM     17  O   UNL     1      -7.638  -0.556  -5.252  0.00  0.00    -0.453 OA
ATOM     18  C   UNL     1      -8.185   0.703  -4.816  0.00  0.00    +0.466 C 
ATOM     19  O   UNL     1      -7.192   1.665  -5.218  0.00  0.00    -0.453 OA
ENDBRANCH   9  10
ENDBRANCH   7   9
ENDBRANCH   1   2
BRANCH   1  22
ATOM     20  C   UNL     1      -1.327   0.798   2.025  0.00  0.00    +0.267 C 
ATOM     21  O   UNL     1      -1.157  -0.400   1.903  0.00  0.00    -0.268 OA
ATOM     22  N   UNL     1      -0.842   1.645   1.095  0.00  0.00    -0.296 N 
ATOM     23  C   UNL     1      -1.150   3.075   1.175  0.00  0.00    +0.132 C 
BRANCH  20  28
ATOM     24  C   UNL     1      -3.564   3.936   5.065  0.00  0.00    +0.172 C 
ATOM     25  N   UNL     1      -3.038   2.685   4.514  0.00  0.00    -0.274 N 
ATOM     26  C   UNL     1      -3.151   1.474   5.103  0.00  0.00    +0.109 A 
ATOM     27  C   UNL     1      -2.549   0.576   4.289  0.00  0.00    +0.054 A 
ATOM     28  C   UNL     1      -2.065   1.325   3.190  0.00  0.00    +0.147 A 
ATOM     29  N   UNL     1      -2.404   2.581   3.402  0.00  0.00    -0.167 NA
ENDBRANCH  20  28
ENDBRANCH   1  22
BRANCH   1  30
ATOM     30  C   UNL     1       1.401   1.724   0.123  0.00  0.00    +0.058 C 
BRANCH  30  31
ATOM     31  C   UNL     1       2.049   1.224   1.389  0.00  0.00    -0.046 A 
ATOM     32  C   UNL     1       1.909   1.936   2.565  0.00  0.00    +0.004 A 
ATOM     33  C   UNL     1       2.499   1.475   3.727  0.00  0.00    +0.000 A 
ATOM     34  C   UNL     1       3.238   0.307   3.710  0.00  0.00    +0.000 A 
ATOM     35  C   UNL     1       3.383  -0.402   2.532  0.00  0.00    +0.000 A 
ATOM     36  C   UNL     1       2.788   0.056   1.372  0.00  0.00    +0.004 A 
ENDBRANCH  30  31
ENDBRANCH   1  30
TORSDOF 7
