REMARK  Name = ZINC06282090
REMARK  6 active torsions:
REMARK  status: ('A' for Active; 'I' for Inactive)
REMARK    1  A    between atoms: C_1  and  C_2
REMARK    2  A    between atoms: C_7  and  C_14
REMARK    3  A    between atoms: C_14  and  C_16
REMARK    4  A    between atoms: C_14  and  N_69
REMARK    5  A    between atoms: N_20  and  C_21
REMARK    6  A    between atoms: N_29  and  C_32
REMARK                            x       y       z     vdW  Elec       q    Type
REMARK                         _______ _______ _______ _____ _____    ______ ____
ROOT
ATOM      1  C   UNL     1       4.959   1.184  -0.043  0.00  0.00    +0.039 C 
ENDROOT
BRANCH   1   8
ATOM      2  C   UNL     1      -2.719   3.258   0.561  0.00  0.00    +0.044 C 
ATOM      3  C   UNL     1      -1.347   2.646   0.452  0.00  0.00    -0.048 A 
ATOM      4  C   UNL     1      -1.210   1.265   0.427  0.00  0.00    +0.004 A 
ATOM      5  C   UNL     1       0.025   0.690   0.335  0.00  0.00    +0.010 A 
ATOM      6  C   UNL     1       1.163   1.499   0.253  0.00  0.00    -0.001 A 
ATOM      7  C   UNL     1       2.501   0.916   0.147  0.00  0.00    +0.017 A 
ATOM      8  C   UNL     1       3.567   1.751   0.068  0.00  0.00    +0.011 A 
ATOM      9  C   UNL     1       3.378   3.150   0.092  0.00  0.00    +0.251 A 
ATOM     10  O   UNL     1       4.349   3.882   0.021  0.00  0.00    -0.268 OA
ATOM     11  N   UNL     1       2.152   3.694   0.190  0.00  0.00    -0.322 N 
ATOM     12  H   UNL     1       2.058   4.660   0.202  0.00  0.00    +0.169 HD
ATOM     13  C   UNL     1       1.028   2.900   0.272  0.00  0.00    +0.049 A 
ATOM     14  C   UNL     1      -0.240   3.463   0.372  0.00  0.00    +0.029 A 
ENDBRANCH   1   8
BRANCH   1  20
ATOM     15  C   UNL     1       7.190   1.274   0.894  0.00  0.00    -0.058 C 
ATOM     16  C   UNL     1       8.055   1.952   1.960  0.00  0.00    +0.086 C 
ATOM     17  N   UNL     1       7.509   1.655   3.292  0.00  0.00    -0.331 N 
ATOM     18  C   UNL     1       6.125   2.135   3.410  0.00  0.00    +0.086 C 
ATOM     19  C   UNL     1       5.260   1.458   2.344  0.00  0.00    -0.058 C 
ATOM     20  N   UNL     1       5.807   1.782   1.010  0.00  0.00    +0.391 N 
ATOM     21  H   UNL     1       5.815   2.802   0.892  0.00  0.00    -0.080 HD
BRANCH  17  22
ATOM     22  C   UNL     1       8.316   2.198   4.296  0.00  0.00    +0.065 A 
ATOM     23  C   UNL     1       8.014   1.968   5.632  0.00  0.00    +0.026 A 
ATOM     24  C   UNL     1       8.815   2.503   6.622  0.00  0.00    +0.002 A 
ATOM     25  C   UNL     1       9.912   3.275   6.286  0.00  0.00    +0.003 A 
ATOM     26  C   UNL     1      10.214   3.512   4.957  0.00  0.00    +0.040 A 
ATOM     27  C   UNL     1       9.419   2.976   3.960  0.00  0.00    +0.144 A 
ATOM     28  F   UNL     1       9.714   3.207   2.662  0.00  0.00    -0.204 F 
ENDBRANCH  17  22
ENDBRANCH   1  20
BRANCH   1  29
ATOM     29  C   UNL     1       5.535   1.529  -1.392  0.00  0.00    +0.143 A 
ATOM     30  N   UNL     1       5.987   2.698  -1.774  0.00  0.00    -0.115 NA
ATOM     31  N   UNL     1       6.395   2.589  -2.991  0.00  0.00    -0.023 NA
ATOM     32  N   UNL     1       6.215   1.380  -3.395  0.00  0.00    -0.044 NA
ATOM     33  N   UNL     1       5.692   0.694  -2.436  0.00  0.00    -0.227 N 
BRANCH  33  34
ATOM     34  C   UNL     1       5.333  -0.726  -2.476  0.00  0.00    +0.111 C 
ATOM     35  C   UNL     1       6.584  -1.560  -2.760  0.00  0.00    +0.027 C 
ATOM     36  C   UNL     1       6.209  -3.043  -2.802  0.00  0.00    +0.002 C 
ATOM     37  C   UNL     1       5.179  -3.277  -3.909  0.00  0.00    +0.000 C 
ATOM     38  C   UNL     1       3.928  -2.443  -3.625  0.00  0.00    +0.002 C 
ATOM     39  C   UNL     1       4.303  -0.960  -3.583  0.00  0.00    +0.027 C 
ENDBRANCH  33  34
ENDBRANCH   1  29
TORSDOF 5
