REMARK  Name = ZINC16958276
REMARK  5 active torsions:
REMARK  status: ('A' for Active; 'I' for Inactive)
REMARK    1  A    between atoms: C_1  and  C_2
REMARK    2  A    between atoms: C_2  and  O_4
REMARK    3  A    between atoms: O_4  and  C_5
REMARK    4  A    between atoms: C_13  and  O_22
REMARK    5  A    between atoms: C_19  and  O_21
REMARK                            x       y       z     vdW  Elec       q    Type
REMARK                         _______ _______ _______ _____ _____    ______ ____
ROOT
ATOM      1  C   UNL     1       1.066   2.829   1.834  0.00  0.00    +0.124 C 
ATOM      2  C   UNL     1      -0.199   2.614   2.634  0.00  0.00    +0.049 C 
ATOM      3  C   UNL     1       0.056   2.595   4.124  0.00  0.00    +0.004 C 
ATOM      4  C   UNL     1       0.464   1.261   4.675  0.00  0.00    +0.000 C 
ATOM      5  C   UNL     1       1.813   0.881   4.005  0.00  0.00    +0.000 C 
ATOM      6  C   UNL     1       1.482   0.395   2.582  0.00  0.00    +0.010 C 
ATOM      7  C   UNL     1       1.813   1.487   1.567  0.00  0.00    +0.068 C 
ATOM      8  C   UNL     1       0.962   1.392   0.296  0.00  0.00    +0.105 C 
ATOM      9  C   UNL     1       0.842   2.910   0.312  0.00  0.00    +0.068 C 
ATOM     10  C   UNL     1       1.988   3.651  -0.380  0.00  0.00    +0.010 C 
ATOM     11  C   UNL     1       2.254   3.011  -1.743  0.00  0.00    +0.003 C 
ATOM     12  C   UNL     1       2.717   1.573  -1.530  0.00  0.00    +0.034 C 
ATOM     13  C   UNL     1       1.633   0.757  -0.893  0.00  0.00    +0.147 C 
ENDROOT
BRANCH  13  14
ATOM     14  O   UNL     1       2.216  -0.479  -0.479  0.00  0.00    -0.389 OA
ATOM     15  H   UNL     1       2.671  -0.956  -1.186  0.00  0.00    +0.210 HD
ENDBRANCH  13  14
BRANCH   8  16
ATOM     16  O   UNL     1      -0.296   0.771   0.565  0.00  0.00    -0.385 OA
ATOM     17  H   UNL     1      -0.255  -0.194   0.621  0.00  0.00    +0.210 HD
ENDBRANCH   8  16
BRANCH   1  18
ATOM     18  O   UNL     1       1.913   3.876   2.377  0.00  0.00    -0.457 OA
BRANCH  18  20
ATOM     19  C   UNL     1       2.139   6.197   3.189  0.00  0.00    +0.136 C 
ATOM     20  C   UNL     1       1.362   5.091   2.522  0.00  0.00    +0.304 C 
ATOM     21  O   UNL     1       0.243   5.300   2.116  0.00  0.00    -0.251 OA
ENDBRANCH  18  20
ENDBRANCH   1  18
TORSDOF 4
