REMARK  Name = ZINC59118039
REMARK  4 active torsions:
REMARK  status: ('A' for Active; 'I' for Inactive)
REMARK    1  A    between atoms: C_8  and  C_19
REMARK    2  A    between atoms: C_12  and  C_14
REMARK    3  A    between atoms: N_21  and  C_22
REMARK    4  A    between atoms: C_22  and  C_23
REMARK                            x       y       z     vdW  Elec       q    Type
REMARK                         _______ _______ _______ _____ _____    ______ ____
ROOT
ATOM      1  C   UNL     1       2.331  -4.239  -0.049  0.00  0.00    +0.234 C 
ATOM      2  O   UNL     1       3.316  -4.747   0.444  0.00  0.00    -0.274 OA
ATOM      3  N   UNL     1       1.376  -5.016  -0.597  0.00  0.00    -0.310 N 
ATOM      4  H   UNL     1       0.588  -4.611  -0.991  0.00  0.00    +0.149 HD
ENDROOT
BRANCH   1  12
ATOM      5  C   UNL     1      -0.803   1.010  -1.001  0.00  0.00    +0.000 A 
ATOM      6  C   UNL     1      -0.215   1.732   0.022  0.00  0.00    +0.000 A 
ATOM      7  C   UNL     1       0.732   1.131   0.825  0.00  0.00    +0.005 A 
ATOM      8  C   UNL     1       1.097  -0.192   0.617  0.00  0.00    -0.027 A 
ATOM      9  C   UNL     1       0.506  -0.914  -0.395  0.00  0.00    -0.040 A 
ATOM     10  C   UNL     1      -0.442  -0.305  -1.208  0.00  0.00    +0.004 A 
ATOM     11  C   UNL     1       0.828  -2.361  -0.662  0.00  0.00    +0.067 C 
ATOM     12  C   UNL     1       2.175  -2.740  -0.049  0.00  0.00    +0.167 C 
ATOM     13  N   UNL     1       2.202  -2.236   1.334  0.00  0.00    -0.279 N 
ATOM     14  C   UNL     1       2.148  -0.783   1.522  0.00  0.00    +0.144 C 
ATOM     15  C   UNL     1       2.273  -3.077   2.385  0.00  0.00    +0.283 C 
ATOM     16  O   UNL     1       2.376  -4.275   2.200  0.00  0.00    -0.267 OA
BRANCH  15  17
ATOM     17  C   UNL     1       2.225  -2.547   3.752  0.00  0.00    +0.189 A 
ATOM     18  C   UNL     1       2.423  -3.264   4.897  0.00  0.00    +0.054 A 
ATOM     19  C   UNL     1       2.287  -2.363   5.965  0.00  0.00    +0.042 A 
ATOM     20  C   UNL     1       2.016  -1.152   5.432  0.00  0.00    +0.196 A 
ATOM     21  O   UNL     1       1.984  -1.266   4.098  0.00  0.00    -0.458 OA
ENDBRANCH  15  17
ENDBRANCH   1  12
BRANCH   3  22
ATOM     22  C   UNL     1       1.527  -6.473  -0.597  0.00  0.00    +0.141 C 
BRANCH  22  23
ATOM     23  C   UNL     1       0.331  -7.103  -1.264  0.00  0.00    -0.014 A 
ATOM     24  C   UNL     1      -0.787  -7.449  -0.517  0.00  0.00    +0.010 A 
ATOM     25  C   UNL     1      -1.863  -8.024  -1.168  0.00  0.00    +0.042 A 
ATOM     26  C   UNL     1      -1.789  -8.236  -2.541  0.00  0.00    +0.099 A 
ATOM     27  N   UNL     1      -0.705  -7.892  -3.218  0.00  0.00    -0.349 N 
ATOM     28  C   UNL     1       0.334  -7.336  -2.625  0.00  0.00    +0.089 A 
ATOM     29  N   UNL     1      -2.864  -8.814  -3.208  0.00  0.00    -0.317 N 
ATOM     30  C   UNL     1      -4.090  -9.043  -2.477  0.00  0.00    +0.106 C 
ATOM     31  C   UNL     1      -4.048 -10.444  -1.817  0.00  0.00    +0.019 C 
ATOM     32  C   UNL     1      -4.170 -11.494  -2.840  0.00  0.00    +0.002 C 
ATOM     33  C   UNL     1      -3.030 -11.520  -3.854  0.00  0.00    +0.002 C 
ATOM     34  C   UNL     1      -3.324 -10.538  -4.962  0.00  0.00    +0.019 C 
ATOM     35  C   UNL     1      -2.707  -9.162  -4.633  0.00  0.00    +0.106 C 
ATOM     36  H   UNL     1      -0.675  -8.049  -4.175  0.00  0.00    +0.167 HD
ENDBRANCH  22  23
ENDBRANCH   3  22
TORSDOF 4
