REMARK  Name = ZINC44878511
REMARK  9 active torsions:
REMARK  status: ('A' for Active; 'I' for Inactive)
REMARK    1  A    between atoms: C_1  and  C_2
REMARK    2  A    between atoms: C_5  and  S_8
REMARK    3  A    between atoms: S_8  and  N_11
REMARK    4  A    between atoms: C_13  and  C_22
REMARK    5  A    between atoms: N_24  and  C_25
REMARK    6  A    between atoms: C_25  and  C_26
REMARK    7  A    between atoms: C_29  and  C_32
REMARK    8  A    between atoms: C_32  and  N_33
REMARK    9  A    between atoms: C_37  and  C_40
REMARK                            x       y       z     vdW  Elec       q    Type
REMARK                         _______ _______ _______ _____ _____    ______ ____
ROOT
ATOM      1  N   UNL     1       1.651  -4.999  -0.034  0.00  0.00    -0.195 N 
ATOM      2  C   UNL     1       2.345  -5.308  -1.296  0.00  0.00    +0.186 C 
ATOM      3  C   UNL     1       3.749  -4.690  -1.216  0.00  0.00    +0.277 C 
ATOM      4  O   UNL     1       4.426  -5.232  -0.080  0.00  0.00    -0.476 OA
ATOM      5  C   UNL     1       3.769  -5.230   1.110  0.00  0.00    +0.144 A 
ATOM      6  C   UNL     1       2.384  -5.111   1.158  0.00  0.00    +0.093 A 
ATOM      7  C   UNL     1       1.728  -5.109   2.379  0.00  0.00    +0.028 A 
ATOM      8  C   UNL     1       2.455  -5.216   3.551  0.00  0.00    +0.002 A 
ATOM      9  C   UNL     1       3.832  -5.326   3.504  0.00  0.00    +0.004 A 
ATOM     10  C   UNL     1       4.487  -5.341   2.291  0.00  0.00    +0.047 A 
ENDROOT
BRANCH   3  11
ATOM     11  C   UNL     1       4.517  -5.018  -2.470  0.00  0.00    +0.256 C 
ATOM     12  O   UNL     1       5.503  -5.722  -2.410  0.00  0.00    -0.272 OA
ATOM     13  N   UNL     1       4.109  -4.530  -3.658  0.00  0.00    -0.308 N 
ATOM     14  H   UNL     1       3.320  -3.967  -3.706  0.00  0.00    +0.149 HD
BRANCH  13  15
ATOM     15  C   UNL     1       4.856  -4.849  -4.877  0.00  0.00    +0.139 C 
BRANCH  15  16
ATOM     16  C   UNL     1       4.197  -4.185  -6.058  0.00  0.00    -0.030 A 
ATOM     17  C   UNL     1       3.208  -4.848  -6.761  0.00  0.00    +0.005 A 
ATOM     18  C   UNL     1       2.603  -4.239  -7.845  0.00  0.00    +0.002 A 
ATOM     19  C   UNL     1       2.987  -2.967  -8.226  0.00  0.00    -0.064 A 
ATOM     20  C   UNL     1       3.974  -2.303  -7.522  0.00  0.00    +0.002 A 
ATOM     21  C   UNL     1       4.576  -2.911  -6.436  0.00  0.00    +0.005 A 
BRANCH  19  22
ATOM     22  C   UNL     1       2.328  -2.304  -9.407  0.00  0.00    -0.043 C 
BRANCH  22  23
ATOM     23  N   UNL     1       1.153  -1.548  -8.953  0.00  0.00    +0.383 N 
ATOM     24  C   UNL     1       0.154  -2.478  -8.412  0.00  0.00    -0.078 C 
ATOM     25  C   UNL     1      -1.037  -1.690  -7.863  0.00  0.00    -0.018 C 
ATOM     26  C   UNL     1      -1.662  -0.867  -8.993  0.00  0.00    -0.001 C 
ATOM     27  C   UNL     1      -0.592   0.046  -9.599  0.00  0.00    -0.031 C 
ATOM     28  C   UNL     1       0.583  -0.806 -10.084  0.00  0.00    -0.075 C 
ATOM     29  C   UNL     1      -1.187   0.817 -10.780  0.00  0.00    +0.005 C 
ATOM     30  H   UNL     1       1.431  -0.899  -8.232  0.00  0.00    -0.081 HD
ENDBRANCH  22  23
ENDBRANCH  19  22
ENDBRANCH  15  16
ENDBRANCH  13  15
ENDBRANCH   3  11
BRANCH   1  31
ATOM     31  S   UNL     1       0.063  -4.530  -0.023  0.00  0.00    +0.075 S 
ATOM     32  O   UNL     1      -0.239  -4.088  -1.339  0.00  0.00    -0.150 OA
ATOM     33  O   UNL     1      -0.107  -3.700   1.118  0.00  0.00    -0.150 OA
BRANCH  31  38
ATOM     34  C   UNL     1      -3.255  -9.478   0.935  0.00  0.00    +0.044 C 
ATOM     35  C   UNL     1      -2.426  -8.242   0.696  0.00  0.00    -0.050 A 
ATOM     36  C   UNL     1      -1.982  -7.490   1.767  0.00  0.00    +0.005 A 
ATOM     37  C   UNL     1      -1.222  -6.356   1.548  0.00  0.00    +0.029 A 
ATOM     38  C   UNL     1      -0.905  -5.976   0.257  0.00  0.00    +0.109 A 
ATOM     39  C   UNL     1      -1.349  -6.729  -0.814  0.00  0.00    +0.029 A 
ATOM     40  C   UNL     1      -2.106  -7.864  -0.594  0.00  0.00    +0.005 A 
ENDBRANCH  31  38
ENDBRANCH   1  31
TORSDOF 7
