REMARK  Name = ZINC63141784
REMARK  9 active torsions:
REMARK  status: ('A' for Active; 'I' for Inactive)
REMARK    1  A    between atoms: C_1  and  O_2
REMARK    2  A    between atoms: O_2  and  C_3
REMARK    3  A    between atoms: C_6  and  C_11
REMARK    4  A    between atoms: C_8  and  O_9
REMARK    5  A    between atoms: O_9  and  C_10
REMARK    6  A    between atoms: C_11  and  N_12
REMARK    7  A    between atoms: C_32  and  C_34
REMARK    8  A    between atoms: C_34  and  C_35
REMARK    9  A    between atoms: C_35  and  C_36
REMARK                            x       y       z     vdW  Elec       q    Type
REMARK                         _______ _______ _______ _____ _____    ______ ____
ROOT
ATOM      1  N   UNL     1      -5.430  -2.852  -1.343  0.00  0.00    -0.287 N 
ATOM      2  C   UNL     1      -6.240  -1.856  -2.068  0.00  0.00    +0.204 C 
ATOM      3  C   UNL     1      -5.661  -1.683  -3.456  0.00  0.00    +0.234 C 
ATOM      4  O   UNL     1      -5.519  -0.585  -3.952  0.00  0.00    -0.274 OA
ATOM      5  N   UNL     1      -5.302  -2.826  -4.127  0.00  0.00    -0.283 N 
ATOM      6  C   UNL     1      -5.602  -4.067  -3.445  0.00  0.00    +0.167 C 
ATOM      7  C   UNL     1      -5.107  -3.992  -2.023  0.00  0.00    +0.237 C 
ATOM      8  O   UNL     1      -4.466  -4.888  -1.514  0.00  0.00    -0.274 OA
ATOM      9  C   UNL     1      -5.223  -5.362  -4.116  0.00  0.00    +0.065 C 
ATOM     10  C   UNL     1      -4.369  -5.082  -5.322  0.00  0.00    -0.034 C 
ATOM     11  C   UNL     1      -3.290  -5.681  -5.806  0.00  0.00    -0.001 A 
ATOM     12  C   UNL     1      -2.549  -6.874  -5.365  0.00  0.00    +0.010 A 
ATOM     13  C   UNL     1      -1.459  -7.210  -6.103  0.00  0.00    +0.001 A 
ATOM     14  C   UNL     1      -1.035  -6.488  -7.223  0.00  0.00    +0.002 A 
ATOM     15  C   UNL     1      -1.657  -5.382  -7.702  0.00  0.00    +0.026 A 
ATOM     16  C   UNL     1      -2.821  -4.932  -7.012  0.00  0.00    +0.043 A 
ATOM     17  N   UNL     1      -3.604  -3.925  -7.254  0.00  0.00    -0.376 N 
ATOM     18  C   UNL     1      -4.683  -3.916  -6.258  0.00  0.00    +0.127 C 
ATOM     19  C   UNL     1      -4.627  -2.658  -5.406  0.00  0.00    +0.104 C 
ATOM     20  H   UNL     1      -3.494  -3.284  -7.974  0.00  0.00    +0.160 HD
ENDROOT
BRANCH   1  21
ATOM     21  C   UNL     1      -4.987  -2.627   0.035  0.00  0.00    +0.143 C 
BRANCH  21  25
ATOM     22  C   UNL     1      -1.201  -0.638   0.010  0.00  0.00    +0.162 A 
ATOM     23  C   UNL     1      -2.374   0.099   0.019  0.00  0.00    +0.050 A 
ATOM     24  C   UNL     1      -3.596  -0.546   0.027  0.00  0.00    +0.009 A 
ATOM     25  C   UNL     1      -3.652  -1.928   0.026  0.00  0.00    -0.026 A 
ATOM     26  C   UNL     1      -2.485  -2.669   0.017  0.00  0.00    +0.054 A 
ATOM     27  C   UNL     1      -1.257  -2.028   0.003  0.00  0.00    +0.162 A 
BRANCH  22  29
ATOM     28  C   UNL     1      -0.017   1.425   0.010  0.00  0.00    +0.277 C 
ATOM     29  O   UNL     1       0.002  -0.004   0.002  0.00  0.00    -0.491 OA
ENDBRANCH  22  29
BRANCH  27  30
ATOM     30  O   UNL     1      -0.108  -2.756  -0.012  0.00  0.00    -0.491 OA
ATOM     31  C   UNL     1      -0.242  -4.179  -0.018  0.00  0.00    +0.277 C 
ENDBRANCH  27  30
ENDBRANCH  21  25
ENDBRANCH   1  21
BRANCH  19  32
ATOM     32  C   UNL     1      -3.152  -2.341  -5.152  0.00  0.00    +0.029 C 
BRANCH  32  33
ATOM     33  C   UNL     1      -3.035  -0.989  -4.445  0.00  0.00    +0.037 C 
BRANCH  33  34
ATOM     34  C   UNL     1      -1.582  -0.677  -4.195  0.00  0.00    -0.047 A 
ATOM     35  C   UNL     1      -0.979  -1.088  -3.021  0.00  0.00    +0.003 A 
ATOM     36  C   UNL     1       0.354  -0.802  -2.792  0.00  0.00    +0.000 A 
ATOM     37  C   UNL     1       1.084  -0.104  -3.736  0.00  0.00    +0.000 A 
ATOM     38  C   UNL     1       0.481   0.306  -4.910  0.00  0.00    +0.000 A 
ATOM     39  C   UNL     1      -0.851   0.016  -5.141  0.00  0.00    +0.003 A 
ENDBRANCH  33  34
ENDBRANCH  32  33
ENDBRANCH  19  32
TORSDOF 7
