REMARK  Name = ZINC39749343
REMARK  8 active torsions:
REMARK  status: ('A' for Active; 'I' for Inactive)
REMARK    1  A    between atoms: C_1  and  C_2
REMARK    2  A    between atoms: C_2  and  C_3
REMARK    3  A    between atoms: C_2  and  C_4
REMARK    4  A    between atoms: C_7  and  C_10
REMARK    5  A    between atoms: C_16  and  S_20
REMARK    6  A    between atoms: S_20  and  C_21
REMARK    7  A    between atoms: C_21  and  C_22
REMARK    8  A    between atoms: C_25  and  N_28
REMARK                            x       y       z     vdW  Elec       q    Type
REMARK                         _______ _______ _______ _____ _____    ______ ____
ROOT
ATOM      1  C   UNL     1      -5.419  -2.005   0.043  0.00  0.00    +0.073 C 
ATOM      2  C   UNL     1      -5.404  -3.530   0.026  0.00  0.00    +0.156 C 
ATOM      3  C   UNL     1      -6.790  -4.045  -0.250  0.00  0.00    +0.145 C 
ATOM      4  N   UNL     1      -7.284  -5.046   0.447  0.00  0.00    -0.208 NA
ATOM      5  C   UNL     1      -6.638  -5.571   1.489  0.00  0.00    +0.182 C 
ATOM      6  N   UNL     1      -5.485  -5.083   1.929  0.00  0.00    -0.154 NA
ATOM      7  C   UNL     1      -4.876  -4.098   1.305  0.00  0.00    +0.250 C 
ATOM      8  O   UNL     1      -3.851  -3.649   1.782  0.00  0.00    -0.273 OA
ATOM      9  N   UNL     1      -7.542  -3.439  -1.164  0.00  0.00    -0.236 NA
ATOM     10  C   UNL     1      -7.200  -2.289  -1.714  0.00  0.00    +0.050 C 
ATOM     11  C   UNL     1      -6.152  -1.523  -1.192  0.00  0.00    +0.025 C 
ATOM     12  C   UNL     1      -5.772  -0.360  -1.766  0.00  0.00    +0.162 C 
ATOM     13  O   UNL     1      -4.737   0.321  -1.240  0.00  0.00    -0.292 OA
ATOM     14  C   UNL     1      -6.471   0.196  -2.975  0.00  0.00    +0.080 C 
ATOM     15  C   UNL     1      -7.080  -0.947  -3.791  0.00  0.00    +0.014 C 
ATOM     16  C   UNL     1      -8.001  -1.766  -2.881  0.00  0.00    +0.056 C 
ENDROOT
BRANCH   1  20
ATOM     17  C   UNL     1      -1.412  -0.526   0.013  0.00  0.00    -0.045 A 
ATOM     18  C   UNL     1      -2.259  -0.204   1.056  0.00  0.00    +0.004 A 
ATOM     19  C   UNL     1      -3.556  -0.683   1.066  0.00  0.00    +0.004 A 
ATOM     20  C   UNL     1      -4.006  -1.482   0.032  0.00  0.00    -0.039 A 
ATOM     21  C   UNL     1      -3.159  -1.803  -1.012  0.00  0.00    +0.004 A 
ATOM     22  C   UNL     1      -1.863  -1.321  -1.024  0.00  0.00    +0.004 A 
BRANCH  17  24
ATOM     23  C   UNL     1      -0.019   1.526   0.010  0.00  0.00    +0.012 C 
ATOM     24  C   UNL     1       0.002  -0.004   0.002  0.00  0.00    +0.013 C 
ATOM     25  C   UNL     1       0.742  -0.511   1.242  0.00  0.00    +0.012 C 
ENDBRANCH  17  24
ENDBRANCH   1  20
BRANCH   5  26
ATOM     26  S   UNL     1      -7.341  -6.961   2.311  0.00  0.00    -0.084 S 
BRANCH  26  27
ATOM     27  C   UNL     1      -6.157  -7.334   3.634  0.00  0.00    +0.112 C 
BRANCH  27  28
ATOM     28  C   UNL     1      -6.645  -8.520   4.425  0.00  0.00    -0.037 A 
ATOM     29  C   UNL     1      -7.465  -8.329   5.522  0.00  0.00    +0.007 A 
ATOM     30  C   UNL     1      -7.912  -9.417   6.248  0.00  0.00    +0.033 A 
ATOM     31  C   UNL     1      -7.540 -10.696   5.877  0.00  0.00    +0.126 A 
ATOM     32  C   UNL     1      -6.720 -10.886   4.780  0.00  0.00    +0.033 A 
ATOM     33  C   UNL     1      -6.277  -9.799   4.051  0.00  0.00    +0.007 A 
BRANCH  31  34
ATOM     34  N   UNL     1      -8.018 -11.861   6.655  0.00  0.00    +0.056 N 
ATOM     35  O   UNL     1      -8.734 -11.694   7.615  0.00  0.00    -0.126 OA
ATOM     36  O   UNL     1      -7.692 -12.979   6.331  0.00  0.00    -0.126 OA
ENDBRANCH  31  34
ENDBRANCH  27  28
ENDBRANCH  26  27
ENDBRANCH   5  26
TORSDOF 6
