REMARK  Name = ZINC41006986
REMARK  12 active torsions:
REMARK  status: ('A' for Active; 'I' for Inactive)
REMARK    1  A    between atoms: C_1  and  C_2
REMARK    2  A    between atoms: C_2  and  C_3
REMARK    3  A    between atoms: C_3  and  C_4
REMARK    4  A    between atoms: C_4  and  O_5
REMARK    5  A    between atoms: O_5  and  C_6
REMARK    6  A    between atoms: C_11  and  C_12
REMARK    7  A    between atoms: C_14  and  C_33
REMARK    8  A    between atoms: C_19  and  C_31
REMARK    9  A    between atoms: C_19  and  O_32
REMARK   10  A    between atoms: C_20  and  C_22
REMARK   11  A    between atoms: N_24  and  C_25
REMARK   12  A    between atoms: N_35  and  C_36
REMARK                            x       y       z     vdW  Elec       q    Type
REMARK                         _______ _______ _______ _____ _____    ______ ____
ROOT
ATOM      1  C   UNL     1       2.853  -3.988  -4.518  0.00  0.00    +0.056 C 
ATOM      2  C   UNL     1       4.379  -4.118  -4.565  0.00  0.00    +0.150 C 
ATOM      3  C   UNL     1       4.938  -2.942  -5.333  0.00  0.00    +0.148 C 
ATOM      4  O   UNL     1       5.825  -2.265  -4.870  0.00  0.00    -0.296 OA
ATOM      5  C   UNL     1       4.360  -2.635  -6.697  0.00  0.00    +0.110 C 
ATOM      6  C   UNL     1       2.835  -2.559  -6.573  0.00  0.00    +0.082 C 
ATOM      7  C   UNL     1       2.311  -3.850  -5.942  0.00  0.00    +0.116 C 
ATOM      8  C   UNL     1       2.453  -1.368  -5.691  0.00  0.00    +0.042 C 
ENDROOT
BRANCH   1  14
ATOM      9  C   UNL     1       2.174  -5.298  -2.491  0.00  0.00    +0.124 A 
ATOM     10  C   UNL     1       1.626  -6.428  -1.900  0.00  0.00    +0.046 A 
ATOM     11  C   UNL     1       1.175  -7.468  -2.688  0.00  0.00    +0.004 A 
ATOM     12  C   UNL     1       1.269  -7.385  -4.066  0.00  0.00    +0.001 A 
ATOM     13  C   UNL     1       1.815  -6.261  -4.657  0.00  0.00    +0.007 A 
ATOM     14  C   UNL     1       2.263  -5.215  -3.873  0.00  0.00    -0.001 A 
BRANCH   9  15
ATOM     15  O   UNL     1       2.618  -4.273  -1.718  0.00  0.00    -0.492 OA
BRANCH  15  16
ATOM     16  C   UNL     1       2.495  -4.427  -0.302  0.00  0.00    +0.229 C 
BRANCH  16  17
ATOM     17  C   UNL     1       3.043  -3.181   0.396  0.00  0.00    +0.041 C 
BRANCH  17  19
ATOM     18  C   UNL     1       3.460  -2.101   2.610  0.00  0.00    +0.004 C 
ATOM     19  C   UNL     1       2.912  -3.347   1.911  0.00  0.00    -0.000 C 
ENDBRANCH  17  19
ENDBRANCH  16  17
ENDBRANCH  15  16
ENDBRANCH   9  15
ENDBRANCH   1  14
BRANCH   7  20
ATOM     20  C   UNL     1       0.804  -3.813  -5.903  0.00  0.00    +0.224 C 
ATOM     21  O   UNL     1       0.233  -3.410  -4.912  0.00  0.00    -0.275 OA
ATOM     22  N   UNL     1       0.092  -4.228  -6.970  0.00  0.00    -0.285 N 
ATOM     23  H   UNL     1       0.548  -4.479  -7.789  0.00  0.00    +0.155 HD
BRANCH  22  24
ATOM     24  C   UNL     1      -1.303  -4.295  -6.896  0.00  0.00    +0.033 A 
ATOM     25  C   UNL     1      -1.986  -5.308  -7.557  0.00  0.00    +0.023 A 
ATOM     26  C   UNL     1      -3.364  -5.372  -7.482  0.00  0.00    +0.002 A 
ATOM     27  C   UNL     1      -4.063  -4.430  -6.750  0.00  0.00    +0.000 A 
ATOM     28  C   UNL     1      -3.385  -3.420  -6.091  0.00  0.00    +0.002 A 
ATOM     29  C   UNL     1      -2.007  -3.354  -6.157  0.00  0.00    +0.023 A 
ENDBRANCH  22  24
ENDBRANCH   7  20
BRANCH   2  30
ATOM     30  C   UNL     1       4.756  -5.404  -5.254  0.00  0.00    +0.228 C 
ATOM     31  O   UNL     1       3.903  -6.075  -5.795  0.00  0.00    -0.275 OA
ATOM     32  N   UNL     1       6.042  -5.808  -5.269  0.00  0.00    -0.285 N 
ATOM     33  H   UNL     1       6.715  -5.301  -4.789  0.00  0.00    +0.155 HD
BRANCH  32  34
ATOM     34  C   UNL     1       6.405  -6.958  -5.979  0.00  0.00    +0.033 A 
ATOM     35  C   UNL     1       7.418  -7.779  -5.500  0.00  0.00    +0.023 A 
ATOM     36  C   UNL     1       7.775  -8.914  -6.203  0.00  0.00    +0.002 A 
ATOM     37  C   UNL     1       7.124  -9.233  -7.381  0.00  0.00    +0.000 A 
ATOM     38  C   UNL     1       6.116  -8.417  -7.859  0.00  0.00    +0.002 A 
ATOM     39  C   UNL     1       5.750  -7.284  -7.159  0.00  0.00    +0.023 A 
ENDBRANCH  32  34
ENDBRANCH   2  30
BRANCH   6  40
ATOM     40  O   UNL     1       2.259  -2.395  -7.871  0.00  0.00    -0.388 OA
ATOM     41  H   UNL     1       2.548  -1.596  -8.332  0.00  0.00    +0.210 HD
ENDBRANCH   6  40
TORSDOF 10
