REMARK  Name = ZINC40881155
REMARK  10 active torsions:
REMARK  status: ('A' for Active; 'I' for Inactive)
REMARK    1  A    between atoms: C_1  and  C_2
REMARK    2  A    between atoms: C_2  and  C_3
REMARK    3  A    between atoms: C_6  and  O_9
REMARK    4  A    between atoms: O_9  and  C_10
REMARK    5  A    between atoms: C_10  and  C_11
REMARK    6  A    between atoms: C_11  and  O_13
REMARK    7  A    between atoms: O_13  and  C_14
REMARK    8  A    between atoms: C_19  and  C_25
REMARK    9  A    between atoms: N_27  and  C_28
REMARK   10  A    between atoms: C_28  and  C_29
REMARK                            x       y       z     vdW  Elec       q    Type
REMARK                         _______ _______ _______ _____ _____    ______ ____
ROOT
ATOM      1  C   UNL     1       3.070  -3.372   9.068  0.00  0.00    +0.135 A 
ATOM      2  C   UNL     1       4.449  -3.499   8.906  0.00  0.00    +0.047 A 
ATOM      3  C   UNL     1       5.222  -3.988   9.916  0.00  0.00    +0.015 A 
ATOM      4  C   UNL     1       4.627  -4.377  11.127  0.00  0.00    +0.019 A 
ATOM      5  C   UNL     1       5.414  -4.920  12.172  0.00  0.00    +0.031 A 
ATOM      6  C   UNL     1       4.758  -5.473  13.266  0.00  0.00    +0.122 A 
ATOM      7  C   UNL     1       3.284  -5.481  13.238  0.00  0.00    +0.350 A 
ATOM      8  O   UNL     1       2.647  -6.305  13.867  0.00  0.00    -0.244 OA
ATOM      9  O   UNL     1       2.664  -4.539  12.490  0.00  0.00    -0.422 OA
ATOM     10  C   UNL     1       3.238  -4.222  11.304  0.00  0.00    +0.143 A 
ATOM     11  C   UNL     1       2.467  -3.724  10.265  0.00  0.00    +0.093 A 
ENDROOT
BRANCH   6  12
ATOM     12  C   UNL     1       5.505  -6.029  14.406  0.00  0.00    +0.251 C 
ATOM     13  O   UNL     1       6.721  -6.010  14.403  0.00  0.00    -0.270 OA
ATOM     14  N   UNL     1       4.841  -6.558  15.452  0.00  0.00    -0.304 N 
ATOM     15  H   UNL     1       3.872  -6.574  15.454  0.00  0.00    +0.149 HD
BRANCH  14  16
ATOM     16  C   UNL     1       5.585  -7.111  16.587  0.00  0.00    +0.179 C 
BRANCH  16  17
ATOM     17  C   UNL     1       4.616  -7.636  17.615  0.00  0.00    +0.122 A 
ATOM     18  C   UNL     1       4.129  -8.889  17.669  0.00  0.00    +0.046 A 
ATOM     19  C   UNL     1       3.261  -8.942  18.785  0.00  0.00    +0.041 A 
ATOM     20  C   UNL     1       3.270  -7.720  19.345  0.00  0.00    +0.195 A 
ATOM     21  O   UNL     1       4.097  -6.934  18.636  0.00  0.00    -0.466 OA
ENDBRANCH  16  17
ENDBRANCH  14  16
ENDBRANCH   6  12
BRANCH   1  22
ATOM     22  O   UNL     1       2.313  -2.894   8.048  0.00  0.00    -0.423 OA
BRANCH  22  23
ATOM     23  C   UNL     1       2.031  -3.723   7.030  0.00  0.00    +0.350 C 
ATOM     24  O   UNL     1       2.520  -4.827   6.997  0.00  0.00    -0.247 OA
BRANCH  23  25
ATOM     25  C   UNL     1       1.103  -3.277   5.929  0.00  0.00    +0.349 C 
BRANCH  25  26
ATOM     26  O   UNL     1       0.962  -4.327   4.971  0.00  0.00    -0.481 OA
BRANCH  26  30
ATOM     27  C   UNL     1      -1.495  -3.594   1.739  0.00  0.00    -0.047 A 
ATOM     28  C   UNL     1      -0.853  -4.813   1.855  0.00  0.00    +0.007 A 
ATOM     29  C   UNL     1      -0.030  -5.061   2.936  0.00  0.00    +0.046 A 
ATOM     30  C   UNL     1       0.153  -4.085   3.906  0.00  0.00    +0.121 A 
ATOM     31  C   UNL     1      -0.492  -2.863   3.786  0.00  0.00    +0.046 A 
ATOM     32  C   UNL     1      -1.310  -2.618   2.700  0.00  0.00    +0.007 A 
BRANCH  27  34
ATOM     33  C   UNL     1      -1.571  -2.720  -0.581  0.00  0.00    +0.009 C 
ATOM     34  C   UNL     1      -2.393  -3.326   0.558  0.00  0.00    +0.032 C 
ENDBRANCH  27  34
ENDBRANCH  26  30
ENDBRANCH  25  26
ENDBRANCH  23  25
ENDBRANCH  22  23
ENDBRANCH   1  22
TORSDOF 9
