REMARK  Name = ZINC33525805
REMARK  13 active torsions:
REMARK  status: ('A' for Active; 'I' for Inactive)
REMARK    1  A    between atoms: C_1  and  C_2
REMARK    2  A    between atoms: C_2  and  O_3
REMARK    3  A    between atoms: O_3  and  C_4
REMARK    4  A    between atoms: C_7  and  C_13
REMARK    5  A    between atoms: C_9  and  O_10
REMARK    6  A    between atoms: O_10  and  C_11
REMARK    7  A    between atoms: C_11  and  C_12
REMARK    8  A    between atoms: C_15  and  C_31
REMARK    9  A    between atoms: C_22  and  C_29
REMARK   10  A    between atoms: C_23  and  C_25
REMARK   11  A    between atoms: C_25  and  O_27
REMARK   12  A    between atoms: O_27  and  C_28
REMARK   13  A    between atoms: C_31  and  C_33
REMARK                            x       y       z     vdW  Elec       q    Type
REMARK                         _______ _______ _______ _____ _____    ______ ____
ROOT
ATOM      1  C   UNL     1       1.553  -0.374   0.688  0.00  0.00    +0.152 C 
ATOM      2  C   UNL     1       0.123  -0.136   0.263  0.00  0.00    +0.080 C 
ATOM      3  C   UNL     1      -0.025   1.202   0.121  0.00  0.00    +0.250 C 
ATOM      4  C   UNL     1       1.254   1.867   0.435  0.00  0.00    +0.293 C 
ATOM      5  O   UNL     1       1.443   3.067   0.399  0.00  0.00    -0.266 OA
ATOM      6  N   UNL     1       2.181   0.950   0.767  0.00  0.00    -0.232 N 
ATOM      7  C   UNL     1       3.492   1.210   1.120  0.00  0.00    +0.169 A 
ATOM      8  N   UNL     1       4.111   2.377   1.209  0.00  0.00    -0.229 NA
ATOM      9  C   UNL     1       5.367   2.461   1.560  0.00  0.00    +0.062 A 
ATOM     10  C   UNL     1       6.041   1.280   1.840  0.00  0.00    +0.120 A 
ATOM     11  S   UNL     1       4.738   0.086   1.567  0.00  0.00    -0.045 S 
ATOM     12  C   UNL     1       6.060   3.796   1.658  0.00  0.00    +0.067 C 
ATOM     13  O   UNL     1      -1.164   1.830  -0.255  0.00  0.00    -0.282 OA
ENDROOT
BRANCH   1  17
ATOM     14  C   UNL     1       1.658  -2.291   4.509  0.00  0.00    +0.162 A 
ATOM     15  C   UNL     1       2.196  -2.922   3.399  0.00  0.00    +0.050 A 
ATOM     16  C   UNL     1       2.155  -2.302   2.164  0.00  0.00    +0.009 A 
ATOM     17  C   UNL     1       1.589  -1.048   2.035  0.00  0.00    -0.018 A 
ATOM     18  C   UNL     1       1.050  -0.412   3.138  0.00  0.00    +0.055 A 
ATOM     19  C   UNL     1       1.083  -1.030   4.378  0.00  0.00    +0.162 A 
BRANCH  14  20
ATOM     20  O   UNL     1       1.691  -2.901   5.724  0.00  0.00    -0.489 OA
BRANCH  20  22
ATOM     21  C   UNL     1       2.242  -4.718   7.220  0.00  0.00    +0.048 C 
ATOM     22  C   UNL     1       2.297  -4.194   5.783  0.00  0.00    +0.226 C 
ENDBRANCH  20  22
ENDBRANCH  14  20
BRANCH  19  23
ATOM     23  O   UNL     1       0.553  -0.407   5.464  0.00  0.00    -0.489 OA
BRANCH  23  24
ATOM     24  C   UNL     1       0.102   0.937   5.285  0.00  0.00    +0.226 C 
ATOM     25  C   UNL     1      -0.351   1.507   6.631  0.00  0.00    +0.048 C 
ENDBRANCH  23  24
ENDBRANCH  19  23
ENDBRANCH   1  17
BRANCH  10  26
ATOM     26  C   UNL     1       7.428   1.071   2.251  0.00  0.00    +0.347 C 
ATOM     27  O   UNL     1       8.171   2.024   2.390  0.00  0.00    -0.244 OA
BRANCH  26  28
ATOM     28  O   UNL     1       7.884  -0.179   2.474  0.00  0.00    -0.464 OA
ATOM     29  C   UNL     1       9.250  -0.309   2.872  0.00  0.00    +0.280 C 
ENDBRANCH  26  28
ENDBRANCH  10  26
BRANCH   2  30
ATOM     30  C   UNL     1      -0.907  -1.158   0.046  0.00  0.00    +0.230 C 
ATOM     31  O   UNL     1      -2.060  -0.825  -0.169  0.00  0.00    -0.283 OA
BRANCH  30  32
ATOM     32  C   UNL     1      -0.550  -2.579   0.089  0.00  0.00    +0.175 A 
ATOM     33  C   UNL     1      -1.430  -3.639   0.037  0.00  0.00    +0.053 A 
ATOM     34  C   UNL     1      -0.654  -4.805   0.106  0.00  0.00    +0.042 A 
ATOM     35  C   UNL     1       0.639  -4.420   0.195  0.00  0.00    +0.196 A 
ATOM     36  O   UNL     1       0.698  -3.083   0.179  0.00  0.00    -0.460 OA
ENDBRANCH  30  32
ENDBRANCH   2  30
TORSDOF 9
