REMARK  Name = ZINC35796886
REMARK  10 active torsions:
REMARK  status: ('A' for Active; 'I' for Inactive)
REMARK    1  A    between atoms: C_1  and  C_2
REMARK    2  A    between atoms: C_2  and  C_3
REMARK    3  A    between atoms: C_6  and  O_9
REMARK    4  A    between atoms: O_9  and  C_10
REMARK    5  A    between atoms: C_10  and  C_11
REMARK    6  A    between atoms: C_11  and  C_13
REMARK    7  A    between atoms: N_19  and  C_24
REMARK    8  A    between atoms: C_24  and  C_25
REMARK    9  A    between atoms: N_27  and  C_28
REMARK   10  A    between atoms: C_28  and  C_29
REMARK                            x       y       z     vdW  Elec       q    Type
REMARK                         _______ _______ _______ _____ _____    ______ ____
ROOT
ATOM      1  C   UNL     1      -8.148  -3.005  -2.177  0.00  0.00    +0.023 A 
ATOM      2  C   UNL     1      -7.657  -2.824  -3.475  0.00  0.00    +0.015 A 
ATOM      3  C   UNL     1      -8.452  -3.114  -4.562  0.00  0.00    +0.048 A 
ATOM      4  C   UNL     1      -9.743  -3.587  -4.373  0.00  0.00    +0.143 A 
ATOM      5  C   UNL     1     -10.241  -3.770  -3.080  0.00  0.00    +0.079 A 
ATOM      6  C   UNL     1      -9.450  -3.487  -1.986  0.00  0.00    +0.038 A 
ATOM      7  N   UNL     1     -11.549  -4.248  -2.911  0.00  0.00    -0.257 N 
ATOM      8  C   UNL     1     -12.180  -4.814  -3.963  0.00  0.00    +0.258 C 
ATOM      9  O   UNL     1     -13.321  -5.208  -3.849  0.00  0.00    -0.271 OA
ATOM     10  C   UNL     1     -11.459  -4.955  -5.279  0.00  0.00    +0.325 C 
ATOM     11  O   UNL     1     -10.534  -3.876  -5.438  0.00  0.00    -0.481 OA
ENDROOT
BRANCH   1  12
ATOM     12  C   UNL     1      -7.300  -2.697  -1.018  0.00  0.00    +0.200 C 
ATOM     13  O   UNL     1      -7.726  -2.859   0.106  0.00  0.00    -0.288 OA
BRANCH  12  14
ATOM     14  C   UNL     1      -5.900  -2.178  -1.227  0.00  0.00    +0.308 C 
BRANCH  14  15
ATOM     15  O   UNL     1      -5.282  -1.955   0.042  0.00  0.00    -0.484 OA
BRANCH  15  19
ATOM     16  C   UNL     1      -1.412  -0.526   0.013  0.00  0.00    -0.047 A 
ATOM     17  C   UNL     1      -2.050  -0.766   1.216  0.00  0.00    +0.007 A 
ATOM     18  C   UNL     1      -3.346  -1.244   1.228  0.00  0.00    +0.046 A 
ATOM     19  C   UNL     1      -4.007  -1.484   0.032  0.00  0.00    +0.121 A 
ATOM     20  C   UNL     1      -3.365  -1.242  -1.173  0.00  0.00    +0.046 A 
ATOM     21  C   UNL     1      -2.071  -0.758  -1.180  0.00  0.00    +0.007 A 
BRANCH  16  23
ATOM     22  C   UNL     1      -0.019   1.526   0.010  0.00  0.00    +0.009 C 
ATOM     23  C   UNL     1       0.002  -0.004   0.002  0.00  0.00    +0.032 C 
ENDBRANCH  16  23
ENDBRANCH  15  19
ENDBRANCH  14  15
ENDBRANCH  12  14
ENDBRANCH   1  12
BRANCH   7  24
ATOM     24  C   UNL     1     -12.221  -4.135  -1.614  0.00  0.00    +0.209 C 
BRANCH  24  25
ATOM     25  C   UNL     1     -12.964  -2.826  -1.545  0.00  0.00    +0.231 C 
ATOM     26  O   UNL     1     -12.936  -2.062  -2.487  0.00  0.00    -0.274 OA
ATOM     27  N   UNL     1     -13.661  -2.504  -0.437  0.00  0.00    -0.310 N 
ATOM     28  H   UNL     1     -13.684  -3.114   0.316  0.00  0.00    +0.149 HD
BRANCH  27  29
ATOM     29  C   UNL     1     -14.383  -1.231  -0.371  0.00  0.00    +0.139 C 
BRANCH  29  30
ATOM     30  C   UNL     1     -15.074  -1.115   0.964  0.00  0.00    -0.027 A 
ATOM     31  C   UNL     1     -16.361  -1.595   1.118  0.00  0.00    +0.009 A 
ATOM     32  C   UNL     1     -16.999  -1.491   2.340  0.00  0.00    +0.050 A 
ATOM     33  C   UNL     1     -16.349  -0.905   3.414  0.00  0.00    +0.166 A 
ATOM     34  C   UNL     1     -15.053  -0.421   3.258  0.00  0.00    +0.167 A 
ATOM     35  C   UNL     1     -14.418  -0.533   2.032  0.00  0.00    +0.054 A 
ATOM     36  O   UNL     1     -14.638   0.104   4.448  0.00  0.00    -0.453 OA
ATOM     37  C   UNL     1     -15.837   0.306   5.218  0.00  0.00    +0.466 C 
ATOM     38  O   UNL     1     -16.747  -0.683   4.701  0.00  0.00    -0.453 OA
ENDBRANCH  29  30
ENDBRANCH  27  29
ENDBRANCH  24  25
ENDBRANCH   7  24
TORSDOF 9
