REMARK  Name = ZINC01102593
REMARK  12 active torsions:
REMARK  status: ('A' for Active; 'I' for Inactive)
REMARK    1  A    between atoms: C_1  and  C_2
REMARK    2  A    between atoms: C_3  and  C_32
REMARK    3  A    between atoms: C_4  and  C_20
REMARK    4  A    between atoms: C_10  and  C_15
REMARK    5  A    between atoms: C_23  and  O_30
REMARK    6  A    between atoms: C_24  and  O_28
REMARK    7  A    between atoms: C_25  and  O_26
REMARK    8  A    between atoms: O_26  and  C_27
REMARK    9  A    between atoms: O_28  and  C_29
REMARK   10  A    between atoms: O_30  and  C_31
REMARK   11  A    between atoms: C_32  and  O_34
REMARK   12  A    between atoms: O_34  and  C_35
REMARK                            x       y       z     vdW  Elec       q    Type
REMARK                         _______ _______ _______ _____ _____    ______ ____
ROOT
ATOM      1  C   UNL     1      -6.025   7.092  -4.241  0.00  0.00    +0.061 C 
ATOM      2  C   UNL     1      -5.066   7.082  -3.079  0.00  0.00    +0.016 C 
ATOM      3  C   UNL     1      -5.412   7.674  -1.923  0.00  0.00    +0.065 C 
ATOM      4  C   UNL     1      -4.480   7.689  -0.747  0.00  0.00    +0.096 C 
ATOM      5  C   UNL     1      -3.403   6.644  -0.896  0.00  0.00    +0.024 C 
ATOM      6  C   UNL     1      -3.135   6.098  -2.101  0.00  0.00    +0.016 C 
ATOM      7  N   UNL     1      -3.849   6.472  -3.208  0.00  0.00    -0.321 N 
ATOM      8  C   UNL     1      -2.047   5.066  -2.264  0.00  0.00    +0.060 C 
ATOM      9  C   UNL     1      -1.911   4.255  -0.974  0.00  0.00    +0.039 C 
ATOM     10  C   UNL     1      -1.605   5.216   0.180  0.00  0.00    +0.088 C 
ATOM     11  C   UNL     1      -2.688   6.258   0.251  0.00  0.00    +0.162 C 
ATOM     12  O   UNL     1      -2.948   6.776   1.318  0.00  0.00    -0.292 OA
ATOM     13  H   UNL     1      -3.435   6.277  -4.208  0.00  0.00    +0.152 HD
ENDROOT
BRANCH   4  14
ATOM     14  C   UNL     1      -3.838   9.049  -0.644  0.00  0.00    +0.010 A 
ATOM     15  C   UNL     1      -2.873   9.428  -1.558  0.00  0.00    +0.012 A 
ATOM     16  C   UNL     1      -2.281  10.674  -1.468  0.00  0.00    +0.050 A 
ATOM     17  C   UNL     1      -2.654  11.549  -0.460  0.00  0.00    +0.165 A 
ATOM     18  C   UNL     1      -3.623  11.172   0.462  0.00  0.00    +0.204 A 
ATOM     19  C   UNL     1      -4.220   9.921   0.364  0.00  0.00    +0.169 A 
BRANCH  19  20
ATOM     20  O   UNL     1      -5.174   9.549   1.260  0.00  0.00    -0.491 OA
ATOM     21  C   UNL     1      -4.721   9.008   2.503  0.00  0.00    +0.277 C 
ENDBRANCH  19  20
BRANCH  18  22
ATOM     22  O   UNL     1      -3.992  12.028   1.453  0.00  0.00    -0.488 OA
ATOM     23  C   UNL     1      -5.073  12.921   1.172  0.00  0.00    +0.277 C 
ENDBRANCH  18  22
BRANCH  17  24
ATOM     24  O   UNL     1      -2.071  12.775  -0.372  0.00  0.00    -0.491 OA
ATOM     25  C   UNL     1      -1.082  13.095  -1.352  0.00  0.00    +0.277 C 
ENDBRANCH  17  24
ENDBRANCH   4  14
BRANCH   9  26
ATOM     26  C   UNL     1      -0.788   3.260  -1.116  0.00  0.00    -0.006 A 
ATOM     27  C   UNL     1      -0.829   1.908  -1.032  0.00  0.00    +0.011 A 
ATOM     28  C   UNL     1       0.341   1.190  -1.193  0.00  0.00    +0.008 A 
ATOM     29  C   UNL     1       1.493   1.859  -1.442  0.00  0.00    +0.045 A 
ATOM     30  S   UNL     1       0.941   3.557  -1.446  0.00  0.00    -0.101 S 
ENDBRANCH   9  26
BRANCH   3  31
ATOM     31  C   UNL     1      -6.678   8.293  -1.812  0.00  0.00    +0.338 C 
ATOM     32  O   UNL     1      -7.597   7.709  -1.268  0.00  0.00    -0.245 OA
BRANCH  31  33
ATOM     33  O   UNL     1      -6.869   9.533  -2.311  0.00  0.00    -0.458 OA
BRANCH  33  34
ATOM     34  C   UNL     1      -8.173  10.098  -2.164  0.00  0.00    +0.177 C 
ATOM     35  C   UNL     1      -9.024   9.795  -3.415  0.00  0.00    +0.044 C 
ATOM     36  C   UNL     1      -9.866  11.079  -3.621  0.00  0.00    +0.004 C 
ATOM     37  C   UNL     1      -8.870  12.205  -3.250  0.00  0.00    +0.004 C 
ATOM     38  C   UNL     1      -8.075  11.630  -2.059  0.00  0.00    +0.044 C 
ENDBRANCH  33  34
ENDBRANCH  31  33
ENDBRANCH   3  31
TORSDOF 8
