REMARK  Name = ZINC02372999
REMARK  8 active torsions:
REMARK  status: ('A' for Active; 'I' for Inactive)
REMARK    1  A    between atoms: C_1  and  O_2
REMARK    2  A    between atoms: O_2  and  C_3
REMARK    3  A    between atoms: C_6  and  C_9
REMARK    4  A    between atoms: C_20  and  C_22
REMARK    5  A    between atoms: C_26  and  O_28
REMARK    6  A    between atoms: O_28  and  C_29
REMARK    7  A    between atoms: C_34  and  S_36
REMARK    8  A    between atoms: S_36  and  C_37
REMARK                            x       y       z     vdW  Elec       q    Type
REMARK                         _______ _______ _______ _____ _____    ______ ____
ROOT
ATOM      1  C   UNL     1      -4.981  -2.629   0.035  0.00  0.00    +0.159 C 
ATOM      2  C   UNL     1      -5.308  -3.003   1.464  0.00  0.00    +0.025 C 
ATOM      3  C   UNL     1      -5.518  -4.305   1.747  0.00  0.00    +0.058 C 
ATOM      4  C   UNL     1      -5.848  -4.655   3.152  0.00  0.00    +0.040 A 
ATOM      5  C   UNL     1      -5.768  -5.963   3.611  0.00  0.00    +0.013 A 
ATOM      6  C   UNL     1      -6.082  -6.244   4.927  0.00  0.00    +0.001 A 
ATOM      7  C   UNL     1      -6.474  -5.229   5.782  0.00  0.00    +0.004 A 
ATOM      8  C   UNL     1      -6.557  -3.924   5.332  0.00  0.00    +0.046 A 
ATOM      9  C   UNL     1      -6.246  -3.628   4.017  0.00  0.00    +0.131 A 
ATOM     10  O   UNL     1      -6.325  -2.357   3.547  0.00  0.00    -0.479 OA
ATOM     11  C   UNL     1      -5.388  -1.963   2.543  0.00  0.00    +0.234 C 
ATOM     12  N   UNL     1      -5.435  -5.261   0.791  0.00  0.00    -0.326 N 
ATOM     13  C   UNL     1      -5.156  -5.024  -0.474  0.00  0.00    +0.216 C 
ATOM     14  N   UNL     1      -4.919  -3.743  -0.920  0.00  0.00    -0.209 N 
ATOM     15  N   UNL     1      -4.657  -3.835  -2.289  0.00  0.00    -0.239 N 
ATOM     16  C   UNL     1      -4.742  -5.164  -2.609  0.00  0.00    +0.174 C 
ATOM     17  N   UNL     1      -5.039  -5.846  -1.532  0.00  0.00    -0.192 NA
ATOM     18  H   UNL     1      -5.591  -6.182   1.055  0.00  0.00    +0.169 HD
ATOM     19  H   UNL     1      -4.455  -3.103  -2.893  0.00  0.00    +0.172 HD
ENDROOT
BRANCH   1  23
ATOM     20  C   UNL     1      -1.200  -0.637   0.010  0.00  0.00    +0.120 A 
ATOM     21  C   UNL     1      -2.375   0.101   0.019  0.00  0.00    +0.046 A 
ATOM     22  C   UNL     1      -3.596  -0.545   0.027  0.00  0.00    +0.009 A 
ATOM     23  C   UNL     1      -3.648  -1.927   0.026  0.00  0.00    -0.021 A 
ATOM     24  C   UNL     1      -2.479  -2.665   0.017  0.00  0.00    +0.009 A 
ATOM     25  C   UNL     1      -1.255  -2.024   0.003  0.00  0.00    +0.046 A 
BRANCH  20  27
ATOM     26  C   UNL     1      -0.017   1.425   0.010  0.00  0.00    +0.277 C 
ATOM     27  O   UNL     1       0.002  -0.004   0.002  0.00  0.00    -0.495 OA
ENDBRANCH  20  27
ENDBRANCH   1  23
BRANCH  11  28
ATOM     28  C   UNL     1      -4.029  -1.790   3.170  0.00  0.00    +0.000 A 
ATOM     29  C   UNL     1      -3.583  -2.697   4.115  0.00  0.00    +0.008 A 
ATOM     30  C   UNL     1      -2.337  -2.541   4.692  0.00  0.00    +0.004 A 
ATOM     31  C   UNL     1      -1.533  -1.479   4.327  0.00  0.00    +0.045 A 
ATOM     32  C   UNL     1      -1.978  -0.568   3.380  0.00  0.00    +0.120 A 
ATOM     33  C   UNL     1      -3.226  -0.730   2.798  0.00  0.00    +0.053 A 
BRANCH  32  34
ATOM     34  O   UNL     1      -1.189   0.478   3.019  0.00  0.00    -0.495 OA
ATOM     35  C   UNL     1       0.087   0.579   3.656  0.00  0.00    +0.277 C 
ENDBRANCH  32  34
ENDBRANCH  11  28
BRANCH  16  36
ATOM     36  S   UNL     1      -4.498  -5.847  -4.215  0.00  0.00    -0.092 S 
ATOM     37  C   UNL     1      -4.746  -7.628  -3.977  0.00  0.00    +0.093 C 
ENDBRANCH  16  36
TORSDOF 5
