REMARK  Name = ZINC30941817
REMARK  6 active torsions:
REMARK  status: ('A' for Active; 'I' for Inactive)
REMARK    1  A    between atoms: C_1  and  C_2
REMARK    2  A    between atoms: N_8  and  S_31
REMARK    3  A    between atoms: C_10  and  C_13
REMARK    4  A    between atoms: N_15  and  C_16
REMARK    5  A    between atoms: C_21  and  C_22
REMARK    6  A    between atoms: S_31  and  C_34
REMARK                            x       y       z     vdW  Elec       q    Type
REMARK                         _______ _______ _______ _____ _____    ______ ____
ROOT
ATOM      1  C   UNL     1       4.351   1.185  -1.278  0.00  0.00    +0.260 C 
ATOM      2  O   UNL     1       4.407  -0.022  -1.181  0.00  0.00    -0.271 OA
ATOM      3  N   UNL     1       5.482   1.903  -1.420  0.00  0.00    -0.282 N 
ATOM      4  H   UNL     1       5.427   2.988  -1.596  0.00  0.00    +0.155 HD
ENDROOT
BRANCH   1  14
ATOM      5  C   UNL     1      -3.276   2.680  -0.115  0.00  0.00    +0.044 C 
ATOM      6  C   UNL     1      -1.873   2.214  -0.403  0.00  0.00    -0.048 A 
ATOM      7  C   UNL     1      -1.663   0.998  -1.027  0.00  0.00    +0.007 A 
ATOM      8  C   UNL     1      -0.378   0.561  -1.290  0.00  0.00    +0.048 A 
ATOM      9  C   UNL     1       0.708   1.347  -0.937  0.00  0.00    +0.144 A 
ATOM     10  C   UNL     1       0.494   2.575  -0.316  0.00  0.00    +0.093 A 
ATOM     11  C   UNL     1      -0.795   3.005  -0.049  0.00  0.00    +0.031 A 
ATOM     12  N   UNL     1       1.591   3.377   0.038  0.00  0.00    -0.200 N 
ATOM     13  C   UNL     1       2.927   2.756   0.020  0.00  0.00    +0.185 C 
ATOM     14  C   UNL     1       3.015   1.883  -1.240  0.00  0.00    +0.278 C 
ATOM     15  O   UNL     1       1.968   0.910  -1.200  0.00  0.00    -0.476 OA
BRANCH  12  16
ATOM     16  S   UNL     1       1.390   4.965   0.462  0.00  0.00    +0.043 S 
ATOM     17  O   UNL     1       2.679   5.545   0.318  0.00  0.00    -0.155 OA
ATOM     18  O   UNL     1       0.300   5.416  -0.331  0.00  0.00    -0.155 OA
ATOM     19  C   UNL     1       0.915   4.924   2.212  0.00  0.00    +0.218 C 
ENDBRANCH  12  16
ENDBRANCH   1  14
BRANCH   3  20
ATOM     20  C   UNL     1       6.722   1.273  -1.344  0.00  0.00    +0.046 A 
ATOM     21  C   UNL     1       6.851   0.069  -0.665  0.00  0.00    +0.024 A 
ATOM     22  C   UNL     1       8.080  -0.557  -0.594  0.00  0.00    +0.002 A 
ATOM     23  C   UNL     1       9.193   0.014  -1.190  0.00  0.00    +0.001 A 
ATOM     24  C   UNL     1       9.084   1.211  -1.864  0.00  0.00    +0.015 A 
ATOM     25  C   UNL     1       7.847   1.854  -1.948  0.00  0.00    +0.058 A 
BRANCH  25  26
ATOM     26  C   UNL     1       7.723   3.136  -2.667  0.00  0.00    +0.248 C 
ATOM     27  O   UNL     1       6.936   3.244  -3.587  0.00  0.00    -0.270 OA
ATOM     28  N   UNL     1       8.484   4.188  -2.305  0.00  0.00    -0.297 N 
ATOM     29  C   UNL     1       9.320   4.067  -1.131  0.00  0.00    +0.108 C 
ATOM     30  C   UNL     1       8.532   4.503   0.122  0.00  0.00    +0.019 C 
ATOM     31  C   UNL     1       8.329   5.960   0.117  0.00  0.00    +0.002 C 
ATOM     32  C   UNL     1       7.496   6.474  -1.053  0.00  0.00    +0.002 C 
ATOM     33  C   UNL     1       8.391   6.688  -2.249  0.00  0.00    +0.019 C 
ATOM     34  C   UNL     1       8.425   5.418  -3.119  0.00  0.00    +0.108 C 
ENDBRANCH  25  26
ENDBRANCH   3  20
TORSDOF 4
