REMARK  Name = ZINC10000120
REMARK  12 active torsions:
REMARK  status: ('A' for Active; 'I' for Inactive)
REMARK    1  A    between atoms: C_1  and  C_2
REMARK    2  A    between atoms: C_2  and  O_3
REMARK    3  A    between atoms: O_3  and  C_4
REMARK    4  A    between atoms: C_6  and  C_12
REMARK    5  A    between atoms: C_9  and  O_10
REMARK    6  A    between atoms: N_13  and  N_14
REMARK    7  A    between atoms: C_15  and  C_17
REMARK    8  A    between atoms: C_17  and  C_19
REMARK    9  A    between atoms: C_17  and  N_22
REMARK   10  A    between atoms: C_19  and  C_20
REMARK   11  A    between atoms: C_19  and  C_21
REMARK   12  A    between atoms: C_23  and  C_25
REMARK                            x       y       z     vdW  Elec       q    Type
REMARK                         _______ _______ _______ _____ _____    ______ ____
ROOT
ATOM      1  N   UNL     1       2.102  -0.705   0.587  0.00  0.00    -0.205 N 
ATOM      2  C   UNL     1       0.759  -0.720   0.700  0.00  0.00    +0.253 C 
ATOM      3  O   UNL     1       0.233  -1.336   1.603  0.00  0.00    -0.272 OA
ATOM      4  H   UNL     1       2.520  -0.273  -0.175  0.00  0.00    +0.177 HD
ENDROOT
BRANCH   1   6
ATOM      5  C   UNL     1       4.188  -1.300   1.459  0.00  0.00    +0.138 C 
ATOM      6  N   UNL     1       2.895  -1.314   1.569  0.00  0.00    -0.188 NA
BRANCH   5   9
ATOM      7  C   UNL     1       7.192  -2.528   3.348  0.00  0.00    +0.163 A 
ATOM      8  C   UNL     1       6.414  -1.931   2.373  0.00  0.00    +0.059 A 
ATOM      9  C   UNL     1       5.022  -1.940   2.492  0.00  0.00    -0.001 A 
ATOM     10  C   UNL     1       4.422  -2.563   3.590  0.00  0.00    +0.028 A 
ATOM     11  C   UNL     1       5.205  -3.162   4.555  0.00  0.00    +0.063 A 
ATOM     12  C   UNL     1       6.588  -3.148   4.439  0.00  0.00    +0.173 A 
ATOM     13 BR   UNL     1       4.391  -4.004   6.040  0.00  0.00    -0.046 Br
BRANCH  12  14
ATOM     14  O   UNL     1       7.355  -3.740   5.393  0.00  0.00    -0.503 OA
ATOM     15  H   UNL     1       7.547  -4.672   5.221  0.00  0.00    +0.292 HD
ENDBRANCH  12  14
BRANCH   7  16
ATOM     16  O   UNL     1       8.547  -2.516   3.237  0.00  0.00    -0.489 OA
BRANCH  16  18
ATOM     17  C   UNL     1      10.626  -1.951   2.142  0.00  0.00    +0.048 C 
ATOM     18  C   UNL     1       9.100  -1.863   2.092  0.00  0.00    +0.226 C 
ENDBRANCH  16  18
ENDBRANCH   7  16
ENDBRANCH   5   9
ENDBRANCH   1   6
BRANCH   2  19
ATOM     19  C   UNL     1      -0.089   0.030  -0.294  0.00  0.00    +0.163 C 
BRANCH  19  20
ATOM     20  N   UNL     1      -1.407  -0.603  -0.388  0.00  0.00    -0.300 N 
ATOM     21  C   UNL     1      -2.143  -0.467  -1.508  0.00  0.00    +0.245 C 
ATOM     22  O   UNL     1      -1.713   0.182  -2.442  0.00  0.00    -0.270 OA
ATOM     23  H   UNL     1      -1.750  -1.121   0.358  0.00  0.00    +0.150 HD
BRANCH  21  24
ATOM     24  C   UNL     1      -3.473  -1.106  -1.603  0.00  0.00    +0.038 A 
ATOM     25  C   UNL     1      -4.237  -0.966  -2.762  0.00  0.00    +0.013 A 
ATOM     26  C   UNL     1      -5.477  -1.565  -2.845  0.00  0.00    +0.002 A 
ATOM     27  C   UNL     1      -5.964  -2.304  -1.781  0.00  0.00    +0.020 A 
ATOM     28  C   UNL     1      -5.211  -2.447  -0.628  0.00  0.00    +0.042 A 
ATOM     29  C   UNL     1      -3.966  -1.856  -0.535  0.00  0.00    +0.033 A 
ATOM     30 CL   UNL     1      -5.830  -3.377   0.701  0.00  0.00    -0.084 Cl
ENDBRANCH  21  24
ENDBRANCH  19  20
BRANCH  19  31
ATOM     31  C   UNL     1      -0.252   1.480   0.165  0.00  0.00    +0.012 C 
ATOM     32  C   UNL     1       1.127   2.127   0.309  0.00  0.00    +0.009 C 
ATOM     33  C   UNL     1      -1.073   2.254  -0.869  0.00  0.00    +0.009 C 
ENDBRANCH  19  31
ENDBRANCH   2  19
TORSDOF 9
