REMARK  Name = ZINC06321276
REMARK  7 active torsions:
REMARK  status: ('A' for Active; 'I' for Inactive)
REMARK    1  A    between atoms: C_3  and  C_9
REMARK    2  A    between atoms: C_4  and  O_8
REMARK    3  A    between atoms: C_6  and  O_7
REMARK    4  A    between atoms: C_9  and  C_11
REMARK    5  A    between atoms: C_9  and  N_19
REMARK    6  A    between atoms: C_16  and  O_17
REMARK    7  A    between atoms: N_19  and  N_20
REMARK                            x       y       z     vdW  Elec       q    Type
REMARK                         _______ _______ _______ _____ _____    ______ ____
ROOT
ATOM      1  C   UNL     1      -1.352  -0.787   0.008  0.00  0.00    +0.155 C 
ENDROOT
BRANCH   1   2
ATOM      2  C   UNL     1      -1.744  -0.952  -1.438  0.00  0.00    +0.021 A 
ATOM      3  C   UNL     1      -0.836  -0.662  -2.438  0.00  0.00    +0.029 A 
ATOM      4  C   UNL     1      -1.196  -0.814  -3.765  0.00  0.00    +0.042 A 
ATOM      5  C   UNL     1      -2.465  -1.256  -4.094  0.00  0.00    +0.023 A 
ATOM      6  C   UNL     1      -3.376  -1.548  -3.097  0.00  0.00    +0.047 A 
ATOM      7  C   UNL     1      -3.015  -1.402  -1.765  0.00  0.00    +0.122 A 
ATOM      8 CL   UNL     1      -0.054  -0.448  -5.020  0.00  0.00    -0.084 Cl
BRANCH   7   9
ATOM      9  O   UNL     1      -3.908  -1.693  -0.782  0.00  0.00    -0.506 OA
ATOM     10  H   UNL     1      -4.408  -0.928  -0.466  0.00  0.00    +0.292 HD
ENDBRANCH   7   9
ENDBRANCH   1   2
BRANCH   1  13
ATOM     11  C   UNL     1       2.255   0.300   0.242  0.00  0.00    +0.046 A 
ATOM     12  C   UNL     1       1.128  -0.495   0.158  0.00  0.00    +0.013 A 
ATOM     13  C   UNL     1      -0.125   0.083   0.099  0.00  0.00    +0.020 A 
ATOM     14  C   UNL     1      -0.255   1.465   0.123  0.00  0.00    +0.126 A 
ATOM     15  C   UNL     1       0.874   2.265   0.207  0.00  0.00    +0.091 A 
ATOM     16  C   UNL     1       2.131   1.682   0.267  0.00  0.00    +0.120 A 
BRANCH  16  17
ATOM     17  O   UNL     1       3.239   2.464   0.349  0.00  0.00    -0.507 OA
ATOM     18  H   UNL     1       3.611   2.710  -0.508  0.00  0.00    +0.292 HD
ENDBRANCH  16  17
BRANCH  14  19
ATOM     19  O   UNL     1      -1.488   2.033   0.058  0.00  0.00    -0.506 OA
ATOM     20  H   UNL     1      -1.900   2.177   0.921  0.00  0.00    +0.292 HD
ENDBRANCH  14  19
ENDBRANCH   1  13
BRANCH   1  21
ATOM     21  N   UNL     1      -1.063  -2.104   0.591  0.00  0.00    -0.270 N 
ATOM     22  H   UNL     1      -1.652  -2.816   0.185  0.00  0.00    +0.168 HD
BRANCH  21  23
ATOM     23  N   UNL     1      -1.192  -2.077   1.950  0.00  0.00    -0.240 N 
ATOM     24  C   UNL     1      -1.580  -1.025   2.711  0.00  0.00    +0.243 A 
ATOM     25  N   UNL     1      -1.574  -1.423   3.954  0.00  0.00    -0.137 NA
ATOM     26  N   UNL     1      -1.198  -2.651   4.015  0.00  0.00    -0.137 NA
ATOM     27  C   UNL     1      -0.953  -3.095   2.812  0.00  0.00    +0.243 A 
ENDBRANCH  21  23
ENDBRANCH   1  21
TORSDOF 7
