REMARK  Name = ZINC32687675
REMARK  10 active torsions:
REMARK  status: ('A' for Active; 'I' for Inactive)
REMARK    1  A    between atoms: C_1  and  C_2
REMARK    2  A    between atoms: C_2  and  O_3
REMARK    3  A    between atoms: O_3  and  C_4
REMARK    4  A    between atoms: C_7  and  N_13
REMARK    5  A    between atoms: C_8  and  N_10
REMARK    6  A    between atoms: C_14  and  C_16
REMARK    7  A    between atoms: C_16  and  S_17
REMARK    8  A    between atoms: S_17  and  C_18
REMARK    9  A    between atoms: C_21  and  C_24
REMARK   10  A    between atoms: N_22  and  C_23
REMARK                            x       y       z     vdW  Elec       q    Type
REMARK                         _______ _______ _______ _____ _____    ______ ____
ROOT
ATOM      1  N   UNL     1       4.822   4.041  -0.027  0.00  0.00    -0.283 N 
ATOM      2  C   UNL     1       5.954   3.319  -0.139  0.00  0.00    +0.228 C 
ATOM      3  O   UNL     1       5.895   2.121  -0.318  0.00  0.00    -0.275 OA
ATOM      4  H   UNL     1       4.873   5.137   0.047  0.00  0.00    +0.155 HD
ENDROOT
BRANCH   1   8
ATOM      5  C   UNL     1       1.122   2.117   0.038  0.00  0.00    +0.123 A 
ATOM      6  C   UNL     1       2.225   1.521   0.633  0.00  0.00    +0.047 A 
ATOM      7  C   UNL     1       3.451   2.154   0.607  0.00  0.00    +0.029 A 
ATOM      8  C   UNL     1       3.579   3.394  -0.005  0.00  0.00    +0.064 A 
ATOM      9  C   UNL     1       2.474   3.993  -0.596  0.00  0.00    +0.151 A 
ATOM     10  C   UNL     1       1.249   3.356  -0.574  0.00  0.00    +0.080 A 
BRANCH   9  11
ATOM     11  N   UNL     1       2.609   5.315  -1.249  0.00  0.00    +0.058 N 
ATOM     12  O   UNL     1       1.664   5.799  -1.845  0.00  0.00    -0.126 OA
ATOM     13  O   UNL     1       3.666   5.918  -1.190  0.00  0.00    -0.126 OA
ENDBRANCH   9  11
BRANCH   5  14
ATOM     14  O   UNL     1      -0.084   1.490   0.059  0.00  0.00    -0.492 OA
BRANCH  14  16
ATOM     15  C   UNL     1      -1.569  -0.329   0.630  0.00  0.00    +0.048 C 
ATOM     16  C   UNL     1      -0.142   0.217   0.706  0.00  0.00    +0.225 C 
ENDBRANCH  14  16
ENDBRANCH   5  14
ENDBRANCH   1   8
BRANCH   2  17
ATOM     17  C   UNL     1       7.295   4.001  -0.041  0.00  0.00    +0.173 C 
BRANCH  17  18
ATOM     18  S   UNL     1       8.611   2.773  -0.229  0.00  0.00    -0.077 S 
BRANCH  18  19
ATOM     19  C   UNL     1      10.025   3.814  -0.077  0.00  0.00    +0.192 A 
ATOM     20  N   UNL     1      10.018   5.115   0.112  0.00  0.00    -0.122 NA
ATOM     21  N   UNL     1      11.223   5.557   0.180  0.00  0.00    -0.128 NA
ATOM     22  C   UNL     1      12.072   4.567   0.030  0.00  0.00    +0.166 A 
ATOM     23  N   UNL     1      11.331   3.421  -0.140  0.00  0.00    -0.305 N 
ATOM     24  C   UNL     1      11.837   2.062  -0.346  0.00  0.00    +0.153 C 
BRANCH  22  25
ATOM     25  C   UNL     1      13.547   4.667   0.040  0.00  0.00    +0.033 A 
ATOM     26  C   UNL     1      14.296   4.080  -0.982  0.00  0.00    +0.013 A 
ATOM     27  C   UNL     1      15.672   4.176  -0.967  0.00  0.00    +0.001 A 
ATOM     28  C   UNL     1      16.311   4.853   0.058  0.00  0.00    +0.001 A 
ATOM     29  C   UNL     1      15.575   5.436   1.073  0.00  0.00    +0.016 A 
ATOM     30  C   UNL     1      14.197   5.353   1.068  0.00  0.00    +0.029 A 
ATOM     31 BR   UNL     1      13.193   6.159   2.452  0.00  0.00    -0.050 Br
ENDBRANCH  22  25
ENDBRANCH  18  19
ENDBRANCH  17  18
ENDBRANCH   2  17
TORSDOF 8
