REMARK  Name = ZINC63686706
REMARK  7 active torsions:
REMARK  status: ('A' for Active; 'I' for Inactive)
REMARK    1  A    between atoms: C_4  and  N_7
REMARK    2  A    between atoms: N_10  and  C_11
REMARK    3  A    between atoms: C_14  and  C_18
REMARK    4  A    between atoms: C_18  and  C_19
REMARK    5  A    between atoms: N_21  and  C_22
REMARK    6  A    between atoms: C_22  and  C_23
REMARK    7  A    between atoms: C_23  and  C_24
REMARK                            x       y       z     vdW  Elec       q    Type
REMARK                         _______ _______ _______ _____ _____    ______ ____
ROOT
ATOM      1  C   UNL     1       4.848  -4.106   0.247  0.00  0.00    +0.203 C 
ATOM      2  N   UNL     1       6.232  -4.637   0.060  0.00  0.00    -0.286 NA
ATOM      3  C   UNL     1       6.334  -5.993   0.631  0.00  0.00    +0.075 C 
ATOM      4  C   UNL     1       5.749  -6.019   2.067  0.00  0.00    +0.091 C 
ATOM      5  S   UNL     1       4.507  -4.660   1.973  0.00  0.00    -0.121 S 
ATOM      6  H   UNL     1       6.492  -4.635  -0.914  0.00  0.00    +0.125 HD
ENDROOT
BRANCH   1  10
ATOM      7  N   UNL     1       3.622  -0.651  -0.036  0.00  0.00    -0.269 N 
ATOM      8  C   UNL     1       3.645  -1.995   0.058  0.00  0.00    +0.306 C 
ATOM      9  O   UNL     1       2.603  -2.622   0.065  0.00  0.00    -0.252 OA
ATOM     10  N   UNL     1       4.823  -2.644   0.144  0.00  0.00    -0.275 N 
ATOM     11  H   UNL     1       4.452  -0.156  -0.120  0.00  0.00    +0.156 HD
ATOM     12  H   UNL     1       5.654  -2.144   0.139  0.00  0.00    +0.153 HD
BRANCH   7  16
ATOM     13  C   UNL     1      -0.015   1.381   0.031  0.00  0.00    +0.000 A 
ATOM     14  C   UNL     1       0.140   0.219   0.765  0.00  0.00    +0.002 A 
ATOM     15  C   UNL     1       1.344  -0.457   0.744  0.00  0.00    +0.023 A 
ATOM     16  C   UNL     1       2.400   0.031  -0.014  0.00  0.00    +0.035 A 
ATOM     17  C   UNL     1       2.241   1.198  -0.750  0.00  0.00    +0.023 A 
ATOM     18  C   UNL     1       1.034   1.870  -0.725  0.00  0.00    +0.002 A 
ENDBRANCH   7  16
ENDBRANCH   1  10
BRANCH   3  19
ATOM     19  C   UNL     1       7.805  -6.413   0.678  0.00  0.00    +0.115 C 
BRANCH  19  20
ATOM     20  C   UNL     1       8.329  -6.563  -0.727  0.00  0.00    +0.215 C 
ATOM     21  O   UNL     1       7.599  -6.354  -1.672  0.00  0.00    -0.276 OA
ATOM     22  N   UNL     1       9.610  -6.928  -0.933  0.00  0.00    -0.315 N 
ATOM     23  H   UNL     1      10.194  -7.095  -0.176  0.00  0.00    +0.149 HD
BRANCH  22  24
ATOM     24  C   UNL     1      10.120  -7.074  -2.298  0.00  0.00    +0.108 C 
BRANCH  24  25
ATOM     25  C   UNL     1      11.591  -7.494  -2.251  0.00  0.00    +0.052 C 
BRANCH  25  26
ATOM     26  C   UNL     1      12.115  -7.644  -3.656  0.00  0.00    -0.040 C 
ATOM     27  C   UNL     1      12.783  -6.715  -4.378  0.00  0.00    -0.001 A 
ATOM     28  C   UNL     1      13.203  -5.340  -4.084  0.00  0.00    +0.010 A 
ATOM     29  C   UNL     1      13.872  -4.642  -5.029  0.00  0.00    +0.001 A 
ATOM     30  C   UNL     1      14.173  -5.197  -6.281  0.00  0.00    +0.002 A 
ATOM     31  C   UNL     1      13.819  -6.453  -6.625  0.00  0.00    +0.026 A 
ATOM     32  C   UNL     1      13.113  -7.278  -5.707  0.00  0.00    +0.043 A 
ATOM     33  N   UNL     1      12.666  -8.507  -5.803  0.00  0.00    -0.380 N 
ATOM     34  C   UNL     1      12.007  -8.865  -4.542  0.00  0.00    +0.144 C 
ATOM     35  H   UNL     1      12.760  -9.085  -6.576  0.00  0.00    +0.160 HD
ENDBRANCH  25  26
ENDBRANCH  24  25
ENDBRANCH  22  24
ENDBRANCH  19  20
ENDBRANCH   3  19
TORSDOF 7
