REMARK  Name = ZINC59427683
REMARK  7 active torsions:
REMARK  status: ('A' for Active; 'I' for Inactive)
REMARK    1  A    between atoms: C_4  and  C_7
REMARK    2  A    between atoms: C_9  and  C_27
REMARK    3  A    between atoms: C_10  and  C_21
REMARK    4  A    between atoms: N_11  and  C_12
REMARK    5  A    between atoms: C_15  and  N_18
REMARK    6  A    between atoms: N_28  and  N_29
REMARK    7  A    between atoms: C_30  and  C_32
REMARK                            x       y       z     vdW  Elec       q    Type
REMARK                         _______ _______ _______ _____ _____    ______ ____
ROOT
ATOM      1  C   UNL     1       3.735  -0.680  -0.366  0.00  0.00    +0.055 A 
ATOM      2  C   UNL     1       4.916  -0.062   0.038  0.00  0.00    +0.038 A 
ATOM      3  C   UNL     1       5.841  -1.060   0.334  0.00  0.00    +0.021 A 
ATOM      4  C   UNL     1       5.149  -2.353   0.084  0.00  0.00    +0.063 A 
ATOM      5  N   UNL     1       3.887  -2.053  -0.328  0.00  0.00    -0.308 N 
ENDROOT
BRANCH   1   9
ATOM      6  C   UNL     1       0.196   1.345  -1.520  0.00  0.00    +0.000 A 
ATOM      7  C   UNL     1       0.415   0.045  -1.946  0.00  0.00    +0.001 A 
ATOM      8  C   UNL     1       1.561  -0.622  -1.576  0.00  0.00    +0.010 A 
ATOM      9  C   UNL     1       2.511   0.021  -0.765  0.00  0.00    -0.001 A 
ATOM     10  C   UNL     1       2.280   1.339  -0.340  0.00  0.00    +0.010 A 
ATOM     11  C   UNL     1       1.127   1.988  -0.719  0.00  0.00    +0.001 A 
ENDBRANCH   1   9
BRANCH   5  12
ATOM     12  C   UNL     1       2.901  -2.988  -0.664  0.00  0.00    +0.047 A 
ATOM     13  C   UNL     1       1.766  -3.117   0.127  0.00  0.00    +0.028 A 
ATOM     14  C   UNL     1       0.795  -4.040  -0.208  0.00  0.00    +0.035 A 
ATOM     15  C   UNL     1       0.951  -4.835  -1.329  0.00  0.00    +0.126 A 
ATOM     16  C   UNL     1       2.079  -4.709  -2.118  0.00  0.00    +0.035 A 
ATOM     17  C   UNL     1       3.051  -3.784  -1.792  0.00  0.00    +0.028 A 
BRANCH  15  18
ATOM     18  N   UNL     1      -0.093  -5.823  -1.684  0.00  0.00    +0.056 N 
ATOM     19  O   UNL     1      -1.168  -5.944  -0.933  0.00  0.00    -0.126 OA
ATOM     20  O   UNL     1       0.054  -6.581  -2.751  0.00  0.00    -0.126 OA
ENDBRANCH  15  18
ENDBRANCH   5  12
BRANCH   4  21
ATOM     21  C   UNL     1       5.696  -3.646   0.249  0.00  0.00    -0.001 A 
ATOM     22  C   UNL     1       5.048  -4.593   1.068  0.00  0.00    +0.010 A 
ATOM     23  C   UNL     1       5.586  -5.839   1.219  0.00  0.00    +0.001 A 
ATOM     24  C   UNL     1       6.766  -6.174   0.570  0.00  0.00    +0.000 A 
ATOM     25  C   UNL     1       7.413  -5.251  -0.239  0.00  0.00    +0.001 A 
ATOM     26  C   UNL     1       6.891  -4.001  -0.410  0.00  0.00    +0.010 A 
ENDBRANCH   4  21
BRANCH   3  27
ATOM     27  C   UNL     1       7.165  -0.882   0.780  0.00  0.00    +0.140 C 
ATOM     28  N   UNL     1       7.926  -1.928   1.019  0.00  0.00    -0.187 NA
BRANCH  28  29
ATOM     29  N   UNL     1       9.138  -1.765   1.427  0.00  0.00    -0.202 N 
ATOM     30  C   UNL     1       9.917  -2.837   1.673  0.00  0.00    +0.282 C 
ATOM     31  O   UNL     1       9.477  -3.957   1.510  0.00  0.00    -0.267 OA
ATOM     32  H   UNL     1       9.489  -0.870   1.558  0.00  0.00    +0.178 HD
BRANCH  30  33
ATOM     33  C   UNL     1      11.309  -2.649   2.141  0.00  0.00    +0.127 A 
ATOM     34  C   UNL     1      12.111  -3.762   2.388  0.00  0.00    +0.033 A 
ATOM     35  C   UNL     1      13.412  -3.570   2.826  0.00  0.00    +0.004 A 
ATOM     36  C   UNL     1      13.866  -2.271   3.002  0.00  0.00    +0.020 A 
ATOM     37  C   UNL     1      13.013  -1.212   2.737  0.00  0.00    +0.111 A 
ATOM     38  N   UNL     1      11.784  -1.422   2.317  0.00  0.00    -0.250 NA
ENDBRANCH  30  33
ENDBRANCH  28  29
ENDBRANCH   3  27
TORSDOF 7
