REMARK  Name = ZINC03625004
REMARK  11 active torsions:
REMARK  status: ('A' for Active; 'I' for Inactive)
REMARK    1  A    between atoms: C_1  and  C_2
REMARK    2  A    between atoms: C_5  and  C_26
REMARK    3  A    between atoms: C_7  and  S_8
REMARK    4  A    between atoms: S_8  and  C_9
REMARK    5  A    between atoms: C_9  and  C_10
REMARK    6  A    between atoms: N_12  and  C_13
REMARK    7  A    between atoms: C_14  and  C_24
REMARK    8  A    between atoms: C_19  and  C_23
REMARK    9  A    between atoms: C_26  and  C_27
REMARK   10  A    between atoms: C_26  and  C_28
REMARK   11  A    between atoms: C_26  and  C_29
REMARK                            x       y       z     vdW  Elec       q    Type
REMARK                         _______ _______ _______ _____ _____    ______ ____
ROOT
ATOM      1  C   UNL     1       0.002  -0.004   0.002  0.00  0.00    +0.228 C 
ATOM      2  O   UNL     1       1.060  -0.596  -0.011  0.00  0.00    -0.275 OA
ATOM      3  N   UNL     1      -1.156  -0.694   0.009  0.00  0.00    -0.278 N 
ATOM      4  H   UNL     1      -2.002  -0.220   0.020  0.00  0.00    +0.155 HD
ENDROOT
BRANCH   3   5
ATOM      5  C   UNL     1      -1.137  -2.082   0.002  0.00  0.00    +0.090 A 
ATOM      6  C   UNL     1      -2.212  -2.958   0.007  0.00  0.00    +0.084 A 
ATOM      7  C   UNL     1      -1.919  -4.381  -0.003  0.00  0.00    -0.018 A 
ATOM      8  C   UNL     1      -0.606  -4.697  -0.017  0.00  0.00    -0.004 A 
ATOM      9  S   UNL     1       0.235  -3.139  -0.025  0.00  0.00    -0.077 S 
ATOM     10  C   UNL     1      -0.008  -6.071  -0.029  0.00  0.00    +0.046 C 
ATOM     11  C   UNL     1      -1.102  -7.077   0.356  0.00  0.00    -0.009 C 
ATOM     12  C   UNL     1      -2.358  -6.779  -0.468  0.00  0.00    +0.008 C 
ATOM     13  C   UNL     1      -2.988  -5.466  -0.000  0.00  0.00    +0.037 C 
ATOM     14  C   UNL     1      -0.619  -8.498   0.058  0.00  0.00    +0.008 C 
BRANCH   6  15
ATOM     15  C   UNL     1      -3.561  -2.478   0.022  0.00  0.00    +0.102 C 
ATOM     16  N   UNL     1      -4.631  -2.097   0.034  0.00  0.00    -0.191 NA
ENDBRANCH   6  15
ENDBRANCH   3   5
BRANCH   1  17
ATOM     17  C   UNL     1      -0.018   1.503   0.010  0.00  0.00    +0.170 C 
BRANCH  17  18
ATOM     18  S   UNL     1       1.683   2.131  -0.003  0.00  0.00    -0.116 S 
BRANCH  18  25
ATOM     19  C   UNL     1       3.992   4.101  -0.002  0.00  0.00    +0.045 C 
ATOM     20  C   UNL     1       2.611   4.705   0.008  0.00  0.00    -0.037 A 
ATOM     21  C   UNL     1       2.457   6.078   0.011  0.00  0.00    +0.005 A 
ATOM     22  C   UNL     1       1.190   6.633   0.027  0.00  0.00    +0.004 A 
ATOM     23  C   UNL     1       0.074   5.816   0.033  0.00  0.00    -0.041 A 
ATOM     24  C   UNL     1       0.220   4.444   0.024  0.00  0.00    +0.019 A 
ATOM     25  C   UNL     1       1.492   3.882   0.009  0.00  0.00    +0.012 A 
BRANCH  23  26
ATOM     26  C   UNL     1      -1.304   6.426   0.049  0.00  0.00    -0.013 C 
ATOM     27  C   UNL     1      -2.050   5.966   1.303  0.00  0.00    +0.015 C 
ATOM     28  C   UNL     1      -1.187   7.952   0.056  0.00  0.00    +0.015 C 
ATOM     29  C   UNL     1      -2.074   5.980  -1.195  0.00  0.00    +0.015 C 
ENDBRANCH  23  26
ENDBRANCH  18  25
ENDBRANCH  17  18
ENDBRANCH   1  17
TORSDOF 6
