REMARK  Name = ZINC43604571
REMARK  10 active torsions:
REMARK  status: ('A' for Active; 'I' for Inactive)
REMARK    1  A    between atoms: C_1  and  C_2
REMARK    2  A    between atoms: C_13  and  O_30
REMARK    3  A    between atoms: C_17  and  C_29
REMARK    4  A    between atoms: C_22  and  C_28
REMARK    5  A    between atoms: C_23  and  C_25
REMARK    6  A    between atoms: C_25  and  C_27
REMARK    7  A    between atoms: O_30  and  C_31
REMARK    8  A    between atoms: C_31  and  C_33
REMARK    9  A    between atoms: C_33  and  C_34
REMARK   10  A    between atoms: C_34  and  N_35
REMARK                            x       y       z     vdW  Elec       q    Type
REMARK                         _______ _______ _______ _____ _____    ______ ____
ROOT
ATOM      1  C   UNL     1      -0.039   1.596   0.784  0.00  0.00    +0.008 C 
ATOM      2  C   UNL     1       0.076   0.112   0.441  0.00  0.00    -0.003 C 
ATOM      3  C   UNL     1      -1.331  -0.556   0.436  0.00  0.00    +0.008 C 
ATOM      4  C   UNL     1      -1.008  -1.937   1.019  0.00  0.00    -0.000 C 
ATOM      5  C   UNL     1      -2.130  -2.869   1.353  0.00  0.00    +0.000 C 
ATOM      6  C   UNL     1      -3.233  -2.268   2.209  0.00  0.00    +0.031 C 
ATOM      7  C   UNL     1      -4.268  -3.326   2.490  0.00  0.00    -0.027 C 
ATOM      8  C   UNL     1      -3.983  -4.588   2.527  0.00  0.00    -0.064 C 
ATOM      9  C   UNL     1      -5.096  -5.579   2.830  0.00  0.00    +0.075 C 
ATOM     10  C   UNL     1      -5.088  -6.635   1.718  0.00  0.00    +0.180 C 
ATOM     11  C   UNL     1      -4.142  -6.209   0.601  0.00  0.00    +0.046 C 
ATOM     12  C   UNL     1      -2.700  -6.109   1.088  0.00  0.00    +0.015 C 
ATOM     13  C   UNL     1      -2.609  -5.157   2.291  0.00  0.00    -0.008 C 
ATOM     14  C   UNL     1      -1.544  -4.115   2.041  0.00  0.00    +0.003 C 
ATOM     15  C   UNL     1      -0.686  -3.754   3.236  0.00  0.00    +0.005 C 
ATOM     16  C   UNL     1       0.469  -2.819   2.822  0.00  0.00    +0.008 C 
ATOM     17  C   UNL     1      -0.106  -1.565   2.210  0.00  0.00    -0.019 C 
ATOM     18  C   UNL     1       0.910  -0.636   1.513  0.00  0.00    +0.064 C 
ATOM     19  C   UNL     1      -0.798  -0.729   3.282  0.00  0.00    +0.012 C 
ATOM     20  C   UNL     1      -2.236  -6.005   3.509  0.00  0.00    +0.016 C 
ENDROOT
BRANCH  18  21
ATOM     21  C   UNL     1       1.477   0.335   2.512  0.00  0.00    +0.134 C 
ATOM     22  O   UNL     1       0.767   1.180   3.002  0.00  0.00    -0.297 OA
ATOM     23  C   UNL     1       2.930   0.254   2.901  0.00  0.00    +0.086 C 
ENDBRANCH  18  21
BRANCH  10  24
ATOM     24  O   UNL     1      -4.673  -7.894   2.252  0.00  0.00    -0.461 OA
BRANCH  24  25
ATOM     25  C   UNL     1      -5.634  -8.701   2.728  0.00  0.00    +0.306 C 
ATOM     26  O   UNL     1      -6.790  -8.350   2.694  0.00  0.00    -0.251 OA
BRANCH  25  27
ATOM     27  C   UNL     1      -5.271 -10.044   3.306  0.00  0.00    +0.102 C 
BRANCH  27  28
ATOM     28  C   UNL     1      -6.541 -10.758   3.773  0.00  0.00    -0.068 C 
BRANCH  28  29
ATOM     29  N   UNL     1      -6.188 -12.068   4.337  0.00  0.00    +0.380 N 
ATOM     30  C   UNL     1      -5.622 -12.916   3.281  0.00  0.00    -0.079 C 
ATOM     31  C   UNL     1      -5.177 -14.253   3.879  0.00  0.00    -0.019 C 
ATOM     32  C   UNL     1      -6.387 -14.953   4.505  0.00  0.00    -0.004 C 
ATOM     33  C   UNL     1      -7.013 -14.028   5.553  0.00  0.00    -0.019 C 
ATOM     34  C   UNL     1      -7.390 -12.700   4.893  0.00  0.00    -0.079 C 
ATOM     35  H   UNL     1      -5.504 -11.945   5.069  0.00  0.00    -0.082 HD
ENDBRANCH  28  29
ENDBRANCH  27  28
ENDBRANCH  25  27
ENDBRANCH  24  25
ENDBRANCH  10  24
TORSDOF 6
