REMARK  Name = ZINC59251355
REMARK  7 active torsions:
REMARK  status: ('A' for Active; 'I' for Inactive)
REMARK    1  A    between atoms: C_1  and  C_2
REMARK    2  A    between atoms: C_3  and  C_16
REMARK    3  A    between atoms: C_4  and  C_15
REMARK    4  A    between atoms: N_5  and  C_7
REMARK    5  A    between atoms: C_16  and  C_17
REMARK    6  A    between atoms: N_19  and  C_20
REMARK    7  A    between atoms: C_20  and  C_21
REMARK                            x       y       z     vdW  Elec       q    Type
REMARK                         _______ _______ _______ _____ _____    ______ ____
ROOT
ATOM      1  C   UNL     1       1.086  -0.024  -3.131  0.00  0.00    +0.218 C 
ATOM      2  O   UNL     1       2.085  -0.177  -2.461  0.00  0.00    -0.275 OA
ATOM      3  N   UNL     1       1.187   0.424  -4.398  0.00  0.00    -0.311 N 
ATOM      4  H   UNL     1       0.388   0.546  -4.934  0.00  0.00    +0.149 HD
ENDROOT
BRANCH   1   5
ATOM      5  C   UNL     1      -0.269  -0.335  -2.547  0.00  0.00    +0.134 C 
BRANCH   5   8
ATOM      6  C   UNL     1      -0.260   1.488   0.045  0.00  0.00    +0.068 C 
ATOM      7  C   UNL     1      -0.102  -0.011   0.017  0.00  0.00    +0.064 A 
ATOM      8  C   UNL     1      -0.106  -0.815  -1.128  0.00  0.00    +0.005 A 
ATOM      9  C   UNL     1       0.063  -2.099  -0.736  0.00  0.00    +0.046 A 
ATOM     10  N   UNL     1       0.169  -2.107   0.612  0.00  0.00    -0.235 N 
ATOM     11  N   UNL     1       0.068  -0.784   1.060  0.00  0.00    -0.171 NA
ATOM     12  C   UNL     1       0.120  -3.304  -1.640  0.00  0.00    +0.066 C 
BRANCH  10  13
ATOM     13  C   UNL     1       0.353  -3.240   1.418  0.00  0.00    +0.084 A 
ATOM     14  C   UNL     1       1.335  -4.168   1.099  0.00  0.00    +0.031 A 
ATOM     15  C   UNL     1       1.514  -5.283   1.894  0.00  0.00    +0.022 A 
ATOM     16  C   UNL     1       0.717  -5.476   3.009  0.00  0.00    +0.042 A 
ATOM     17  C   UNL     1      -0.262  -4.552   3.330  0.00  0.00    +0.042 A 
ATOM     18  C   UNL     1      -0.442  -3.432   2.541  0.00  0.00    +0.068 A 
ATOM     19 CL   UNL     1      -1.666  -2.269   2.948  0.00  0.00    -0.081 Cl
ATOM     20 CL   UNL     1       0.946  -6.878   4.006  0.00  0.00    -0.083 Cl
ENDBRANCH  10  13
ENDBRANCH   5   8
ENDBRANCH   1   5
BRANCH   3  21
ATOM     21  C   UNL     1       2.503   0.726  -4.966  0.00  0.00    +0.139 C 
BRANCH  21  22
ATOM     22  C   UNL     1       2.340   1.206  -6.385  0.00  0.00    -0.026 A 
ATOM     23  C   UNL     1       2.347   0.307  -7.444  0.00  0.00    +0.023 A 
ATOM     24  C   UNL     1       2.195   0.778  -8.732  0.00  0.00    +0.084 A 
ATOM     25  N   UNL     1       2.044   2.068  -8.967  0.00  0.00    -0.350 N 
ATOM     26  C   UNL     1       2.032   2.956  -7.985  0.00  0.00    +0.099 A 
ATOM     27  C   UNL     1       2.175   2.550  -6.662  0.00  0.00    +0.047 A 
ATOM     28  N   UNL     1       1.871   4.305  -8.279  0.00  0.00    -0.317 N 
ATOM     29  C   UNL     1       1.845   5.398  -7.296  0.00  0.00    +0.106 C 
ATOM     30  C   UNL     1       1.618   6.710  -8.077  0.00  0.00    +0.020 C 
ATOM     31  C   UNL     1       0.965   6.221  -9.396  0.00  0.00    +0.020 C 
ATOM     32  C   UNL     1       1.704   4.877  -9.627  0.00  0.00    +0.106 C 
ATOM     33  H   UNL     1       1.939   2.373  -9.882  0.00  0.00    +0.166 HD
ENDBRANCH  21  22
ENDBRANCH   3  21
TORSDOF 5
