REMARK  Name = ZINC12191812
REMARK  10 active torsions:
REMARK  status: ('A' for Active; 'I' for Inactive)
REMARK    1  A    between atoms: C_1  and  C_2
REMARK    2  A    between atoms: C_2  and  C_3
REMARK    3  A    between atoms: C_2  and  C_4
REMARK    4  A    between atoms: C_2  and  C_5
REMARK    5  A    between atoms: C_5  and  N_57
REMARK    6  A    between atoms: C_11  and  C_13
REMARK    7  A    between atoms: C_13  and  C_14
REMARK    8  A    between atoms: N_16  and  C_17
REMARK    9  A    between atoms: C_17  and  C_18
REMARK   10  A    between atoms: C_23  and  C_24
REMARK                            x       y       z     vdW  Elec       q    Type
REMARK                         _______ _______ _______ _____ _____    ______ ____
ROOT
ATOM      1  C   UNL     1       2.748  -1.111   3.516  0.00  0.00    +0.212 C 
ATOM      2  O   UNL     1       3.472  -0.521   2.742  0.00  0.00    -0.276 OA
ATOM      3  N   UNL     1       2.837  -2.450   3.635  0.00  0.00    -0.311 N 
ATOM      4  H   UNL     1       2.258  -2.922   4.254  0.00  0.00    +0.149 HD
ENDROOT
BRANCH   1   5
ATOM      5  C   UNL     1       1.749  -0.346   4.346  0.00  0.00    +0.089 C 
BRANCH   5  11
ATOM      6  C   UNL     1       1.735   2.638   2.067  0.00  0.00    -0.059 C 
ATOM      7  C   UNL     1       3.241   2.904   2.105  0.00  0.00    +0.085 C 
ATOM      8  N   UNL     1       3.785   2.514   3.403  0.00  0.00    -0.318 N 
ATOM      9  C   UNL     1       3.143   1.697   4.245  0.00  0.00    +0.200 C 
ATOM     10  O   UNL     1       3.681   1.400   5.290  0.00  0.00    -0.278 OA
ATOM     11  C   UNL     1       1.782   1.132   3.950  0.00  0.00    +0.028 C 
ATOM     12  H   UNL     1       4.651   2.864   3.666  0.00  0.00    +0.149 HD
ATOM     13  N   UNL     1       1.504   1.247   2.506  0.00  0.00    +0.389 N 
ATOM     14  H   UNL     1       2.137   0.624   1.991  0.00  0.00    -0.081 HD
BRANCH  13  15
ATOM     15  C   UNL     1       0.105   0.852   2.226  0.00  0.00    -0.072 C 
BRANCH  15  17
ATOM     16  C   UNL     1      -0.588   3.145   1.515  0.00  0.00    +0.009 C 
ATOM     17  C   UNL     1      -0.843   2.018   2.518  0.00  0.00    -0.052 C 
ATOM     18  C   UNL     1      -0.595   2.533   3.938  0.00  0.00    +0.009 C 
ATOM     19  C   UNL     1      -2.291   1.541   2.393  0.00  0.00    +0.009 C 
ENDBRANCH  15  17
ENDBRANCH  13  15
ENDBRANCH   5  11
ENDBRANCH   1   5
BRANCH   3  20
ATOM     20  C   UNL     1       3.808  -3.194   2.828  0.00  0.00    +0.143 C 
BRANCH  20  21
ATOM     21  C   UNL     1       3.706  -4.663   3.147  0.00  0.00    +0.015 A 
ATOM     22  C   UNL     1       4.528  -5.359   3.963  0.00  0.00    +0.110 A 
ATOM     23  N   UNL     1       4.102  -6.641   3.989  0.00  0.00    -0.284 N 
ATOM     24  H   UNL     1       4.514  -7.385   4.513  0.00  0.00    +0.188 HD
ATOM     25  N   UNL     1       2.983  -6.745   3.153  0.00  0.00    -0.174 NA
ATOM     26  C   UNL     1       2.740  -5.556   2.644  0.00  0.00    +0.097 A 
BRANCH  26  27
ATOM     27  C   UNL     1       1.642  -5.215   1.705  0.00  0.00    +0.003 A 
ATOM     28  C   UNL     1       1.014  -3.974   1.784  0.00  0.00    +0.013 A 
ATOM     29  C   UNL     1      -0.002  -3.659   0.906  0.00  0.00    +0.039 A 
ATOM     30  C   UNL     1      -0.407  -4.581  -0.047  0.00  0.00    +0.123 A 
ATOM     31  C   UNL     1       0.211  -5.818  -0.126  0.00  0.00    +0.039 A 
ATOM     32  C   UNL     1       1.232  -6.139   0.745  0.00  0.00    +0.013 A 
ATOM     33  F   UNL     1      -1.406  -4.271  -0.901  0.00  0.00    -0.205 F 
ENDBRANCH  26  27
ENDBRANCH  20  21
ENDBRANCH   3  20
TORSDOF 7
