REMARK  Name = ZINC36343966
REMARK  11 active torsions:
REMARK  status: ('A' for Active; 'I' for Inactive)
REMARK    1  A    between atoms: C_1  and  C_2
REMARK    2  A    between atoms: C_2  and  O_3
REMARK    3  A    between atoms: O_3  and  C_4
REMARK    4  A    between atoms: C_7  and  C_10
REMARK    5  A    between atoms: C_13  and  C_31
REMARK    6  A    between atoms: C_16  and  C_18
REMARK    7  A    between atoms: C_18  and  N_19
REMARK    8  A    between atoms: C_23  and  C_26
REMARK    9  A    between atoms: C_26  and  O_28
REMARK   10  A    between atoms: O_28  and  C_29
REMARK   11  A    between atoms: C_29  and  C_30
REMARK                            x       y       z     vdW  Elec       q    Type
REMARK                         _______ _______ _______ _____ _____    ______ ____
ROOT
ATOM      1  C   UNL     1       1.109  -6.040  -1.847  0.00  0.00    +0.137 C 
ATOM      2  C   UNL     1       0.075  -6.545  -2.873  0.00  0.00    +0.087 C 
ATOM      3  C   UNL     1       0.919  -7.138  -3.979  0.00  0.00    +0.069 C 
ATOM      4  N   UNL     1       2.166  -7.014  -3.682  0.00  0.00    -0.181 NA
ATOM      5  N   UNL     1       2.403  -6.388  -2.456  0.00  0.00    -0.187 N 
ATOM      6  C   UNL     1       3.614  -6.141  -1.919  0.00  0.00    +0.219 C 
ATOM      7  O   UNL     1       3.699  -5.587  -0.843  0.00  0.00    -0.276 OA
ENDROOT
BRANCH   3   8
ATOM      8  C   UNL     1       0.394  -7.761  -5.208  0.00  0.00    -0.002 A 
ATOM      9  C   UNL     1      -0.984  -7.834  -5.424  0.00  0.00    +0.012 A 
ATOM     10  C   UNL     1      -1.468  -8.418  -6.576  0.00  0.00    +0.039 A 
ATOM     11  C   UNL     1      -0.591  -8.932  -7.518  0.00  0.00    +0.123 A 
ATOM     12  C   UNL     1       0.778  -8.862  -7.309  0.00  0.00    +0.039 A 
ATOM     13  C   UNL     1       1.274  -8.276  -6.163  0.00  0.00    +0.012 A 
ATOM     14  F   UNL     1      -1.071  -9.503  -8.644  0.00  0.00    -0.205 F 
ENDBRANCH   3   8
BRANCH   1  18
ATOM     15  C   UNL     1       0.777  -1.810  -1.336  0.00  0.00    +0.121 A 
ATOM     16  C   UNL     1       0.243  -2.669  -0.386  0.00  0.00    +0.046 A 
ATOM     17  C   UNL     1       0.351  -4.036  -0.554  0.00  0.00    +0.009 A 
ATOM     18  C   UNL     1       0.992  -4.548  -1.667  0.00  0.00    -0.024 A 
ATOM     19  C   UNL     1       1.525  -3.694  -2.615  0.00  0.00    +0.009 A 
ATOM     20  C   UNL     1       1.414  -2.327  -2.455  0.00  0.00    +0.046 A 
BRANCH  15  21
ATOM     21  O   UNL     1       0.671  -0.465  -1.174  0.00  0.00    -0.492 OA
BRANCH  21  23
ATOM     22  C   UNL     1      -0.019   1.526   0.010  0.00  0.00    +0.048 C 
ATOM     23  C   UNL     1       0.002  -0.004   0.002  0.00  0.00    +0.225 C 
ENDBRANCH  21  23
ENDBRANCH  15  21
ENDBRANCH   1  18
BRANCH   6  24
ATOM     24  C   UNL     1       4.863  -6.553  -2.654  0.00  0.00    +0.021 C 
BRANCH  24  25
ATOM     25  N   UNL     1       6.043  -6.176  -1.865  0.00  0.00    +0.386 N 
ATOM     26  C   UNL     1       6.110  -4.713  -1.758  0.00  0.00    -0.078 C 
ATOM     27  C   UNL     1       7.292  -4.318  -0.869  0.00  0.00    -0.018 C 
ATOM     28  C   UNL     1       8.589  -4.846  -1.489  0.00  0.00    +0.011 C 
ATOM     29  C   UNL     1       8.478  -6.363  -1.665  0.00  0.00    +0.081 C 
ATOM     30  C   UNL     1       7.253  -6.683  -2.524  0.00  0.00    -0.064 C 
ATOM     31  H   UNL     1       5.971  -6.576  -0.942  0.00  0.00    -0.081 HD
BRANCH  29  32
ATOM     32  C   UNL     1       9.719  -6.883  -2.344  0.00  0.00    +0.308 C 
ATOM     33  O   UNL     1       9.633  -7.455  -3.404  0.00  0.00    -0.251 OA
BRANCH  32  34
ATOM     34  O   UNL     1      10.920  -6.710  -1.769  0.00  0.00    -0.465 OA
BRANCH  34  35
ATOM     35  C   UNL     1      12.054  -7.229  -2.468  0.00  0.00    +0.229 C 
ATOM     36  C   UNL     1      13.324  -6.939  -1.666  0.00  0.00    +0.048 C 
ENDBRANCH  34  35
ENDBRANCH  32  34
ENDBRANCH  29  32
ENDBRANCH  24  25
ENDBRANCH   6  24
TORSDOF 9
