REMARK  Name = ZINC06077449
REMARK  16 active torsions:
REMARK  status: ('A' for Active; 'I' for Inactive)
REMARK    1  A    between atoms: C_1  and  C_2
REMARK    2  A    between atoms: C_2  and  C_3
REMARK    3  A    between atoms: C_3  and  C_4
REMARK    4  A    between atoms: C_3  and  C_5
REMARK    5  A    between atoms: C_3  and  N_6
REMARK    6  A    between atoms: C_7  and  C_9
REMARK    7  A    between atoms: C_9  and  C_11
REMARK    8  A    between atoms: C_9  and  N_20
REMARK    9  A    between atoms: C_14  and  N_17
REMARK   10  A    between atoms: N_17  and  C_18
REMARK   11  A    between atoms: N_17  and  C_19
REMARK   12  A    between atoms: N_20  and  C_21
REMARK   13  A    between atoms: C_21  and  C_22
REMARK   14  A    between atoms: C_28  and  C_30
REMARK   15  A    between atoms: C_31  and  N_38
REMARK   16  A    between atoms: C_32  and  C_35
REMARK                            x       y       z     vdW  Elec       q    Type
REMARK                         _______ _______ _______ _____ _____    ______ ____
ROOT
ATOM      1  N   UNL     1      -3.256  -0.028  -0.469  0.00  0.00    -0.277 N 
ATOM      2  C   UNL     1      -4.047  -1.105  -0.295  0.00  0.00    +0.258 C 
ATOM      3  O   UNL     1      -5.157  -0.974   0.186  0.00  0.00    -0.269 OA
ENDROOT
BRANCH   2   4
ATOM      4  C   UNL     1      -3.570  -2.433  -0.685  0.00  0.00    +0.115 A 
ATOM      5  C   UNL     1      -4.286  -3.513  -1.205  0.00  0.00    +0.076 A 
ATOM      6  C   UNL     1      -3.475  -4.620  -1.458  0.00  0.00    +0.155 A 
ATOM      7  N   UNL     1      -2.191  -4.551  -1.189  0.00  0.00    -0.203 NA
ATOM      8  S   UNL     1      -1.923  -3.107  -0.616  0.00  0.00    +0.019 S 
BRANCH   6   9
ATOM      9  C   UNL     1      -4.055  -5.856  -2.015  0.00  0.00    +0.262 C 
ATOM     10  O   UNL     1      -5.244  -5.913  -2.261  0.00  0.00    -0.269 OA
ATOM     11  N   UNL     1      -3.266  -6.923  -2.252  0.00  0.00    -0.324 N 
ATOM     12  H   UNL     1      -2.317  -6.877  -2.056  0.00  0.00    +0.145 HD
ATOM     13  H   UNL     1      -3.647  -7.736  -2.619  0.00  0.00    +0.145 HD
ENDBRANCH   6   9
BRANCH   5  14
ATOM     14  N   UNL     1      -5.653  -3.487  -1.446  0.00  0.00    -0.355 N 
ATOM     15  H   UNL     1      -6.165  -2.686  -1.252  0.00  0.00    +0.142 HD
ATOM     16  H   UNL     1      -6.096  -4.270  -1.810  0.00  0.00    +0.142 HD
ENDBRANCH   5  14
ENDBRANCH   2   4
BRANCH   1  17
ATOM     17  C   UNL     1      -3.627   1.258   0.128  0.00  0.00    +0.193 C 
BRANCH  17  18
ATOM     18  C   UNL     1      -2.769   1.516   1.340  0.00  0.00    -0.018 A 
ATOM     19  C   UNL     1      -1.405   1.302   1.277  0.00  0.00    +0.008 A 
ATOM     20  C   UNL     1      -0.615   1.543   2.384  0.00  0.00    +0.023 A 
ATOM     21  C   UNL     1      -1.194   1.989   3.565  0.00  0.00    +0.029 A 
ATOM     22  C   UNL     1      -2.566   2.197   3.627  0.00  0.00    +0.023 A 
ATOM     23  C   UNL     1      -3.349   1.960   2.514  0.00  0.00    +0.008 A 
BRANCH  21  24
ATOM     24  N   UNL     1      -0.399   2.228   4.688  0.00  0.00    -0.336 N 
ATOM     25  C   UNL     1      -1.016   2.662   5.944  0.00  0.00    +0.129 C 
ATOM     26  C   UNL     1       1.052   2.043   4.611  0.00  0.00    +0.129 C 
ENDBRANCH  21  24
ENDBRANCH  17  18
BRANCH  17  28
ATOM     27  N   UNL     1      -3.362   3.642  -0.472  0.00  0.00    -0.308 N 
ATOM     28  C   UNL     1      -3.418   2.359  -0.879  0.00  0.00    +0.239 C 
ATOM     29  O   UNL     1      -3.304   2.090  -2.056  0.00  0.00    -0.273 OA
ATOM     30  H   UNL     1      -3.546   3.866   0.453  0.00  0.00    +0.149 HD
BRANCH  27  31
ATOM     31  C   UNL     1      -3.025   4.700  -1.429  0.00  0.00    +0.029 C 
ATOM     32  C   UNL     1      -1.653   4.412  -2.044  0.00  0.00    +0.031 C 
ATOM     33  C   UNL     1      -4.081   4.744  -2.535  0.00  0.00    +0.031 C 
BRANCH  31  35
ATOM     34  C   UNL     1      -2.634   7.152  -1.705  0.00  0.00    +0.006 C 
ATOM     35  C   UNL     1      -2.986   6.048  -0.706  0.00  0.00    +0.022 C 
ENDBRANCH  31  35
ENDBRANCH  27  31
ENDBRANCH  17  28
ENDBRANCH   1  17
BRANCH   1  36
ATOM     36  C   UNL     1      -2.025  -0.142  -1.254  0.00  0.00    +0.145 C 
BRANCH  36  37
ATOM     37  C   UNL     1      -2.351  -0.021  -2.721  0.00  0.00    -0.012 A 
ATOM     38  C   UNL     1      -3.651  -0.205  -3.168  0.00  0.00    +0.008 A 
ATOM     39  C   UNL     1      -3.906  -0.080  -4.524  0.00  0.00    +0.020 A 
ATOM     40  C   UNL     1      -2.862   0.212  -5.382  0.00  0.00    +0.111 A 
ATOM     41  N   UNL     1      -1.637   0.375  -4.922  0.00  0.00    -0.263 NA
ATOM     42  C   UNL     1      -1.359   0.268  -3.637  0.00  0.00    +0.115 A 
ENDBRANCH  36  37
ENDBRANCH   1  36
TORSDOF 11
