REMARK  Name = ZINC39941724
REMARK  7 active torsions:
REMARK  status: ('A' for Active; 'I' for Inactive)
REMARK    1  A    between atoms: C_1  and  C_2
REMARK    2  A    between atoms: C_2  and  C_3
REMARK    3  A    between atoms: C_3  and  C_5
REMARK    4  A    between atoms: C_3  and  O_22
REMARK    5  A    between atoms: N_7  and  N_8
REMARK    6  A    between atoms: C_9  and  C_10
REMARK    7  A    between atoms: O_22  and  C_23
REMARK                            x       y       z     vdW  Elec       q    Type
REMARK                         _______ _______ _______ _____ _____    ______ ____
ROOT
ATOM      1  C   UNL     1       0.646  -2.001  -1.439  0.00  0.00    +0.273 C 
ATOM      2  O   UNL     1       1.660  -2.666  -1.411  0.00  0.00    -0.270 OA
ATOM      3  N   UNL     1      -0.548  -2.600  -1.621  0.00  0.00    -0.204 N 
ATOM      4  H   UNL     1      -1.359  -2.068  -1.643  0.00  0.00    +0.177 HD
ENDROOT
BRANCH   3   5
ATOM      5  N   UNL     1      -0.617  -3.990  -1.778  0.00  0.00    -0.191 NA
ATOM      6  C   UNL     1      -1.751  -4.559  -1.951  0.00  0.00    +0.120 C 
BRANCH   6   7
ATOM      7  C   UNL     1      -1.826  -6.054  -2.120  0.00  0.00    +0.141 C 
ATOM      8  C   UNL     1      -2.356  -6.340  -3.511  0.00  0.00    +0.001 C 
ATOM      9  C   UNL     1      -3.497  -7.080  -3.606  0.00  0.00    -0.007 A 
ATOM     10  C   UNL     1      -4.077  -7.402  -4.911  0.00  0.00    +0.009 A 
ATOM     11  C   UNL     1      -5.214  -8.142  -4.957  0.00  0.00    +0.001 A 
ATOM     12  C   UNL     1      -5.833  -8.597  -3.792  0.00  0.00    +0.002 A 
ATOM     13  C   UNL     1      -5.345  -8.334  -2.552  0.00  0.00    +0.024 A 
ATOM     14  C   UNL     1      -4.171  -7.574  -2.393  0.00  0.00    +0.040 A 
ATOM     15  N   UNL     1      -3.701  -7.322  -1.171  0.00  0.00    -0.284 N 
ATOM     16  C   UNL     1      -2.606  -6.615  -0.952  0.00  0.00    +0.229 C 
ATOM     17  O   UNL     1      -2.226  -6.417   0.187  0.00  0.00    -0.274 OA
ATOM     18  H   UNL     1      -4.186  -7.673  -0.408  0.00  0.00    +0.155 HD
ENDBRANCH   6   7
ENDBRANCH   3   5
BRANCH   1  19
ATOM     19  C   UNL     1       0.721  -0.506  -1.270  0.00  0.00    +0.260 C 
BRANCH  19  21
ATOM     20  C   UNL     1      -0.020   1.423   0.135  0.00  0.00    +0.008 C 
ATOM     21  C   UNL     1       0.013  -0.102   0.025  0.00  0.00    +0.051 C 
ENDBRANCH  19  21
BRANCH  19  22
ATOM     22  O   UNL     1       2.090  -0.101  -1.210  0.00  0.00    -0.478 OA
BRANCH  22  23
ATOM     23  C   UNL     1       2.421   1.054  -1.846  0.00  0.00    +0.136 A 
ATOM     24  C   UNL     1       1.414   1.842  -2.413  0.00  0.00    +0.047 A 
ATOM     25  C   UNL     1       1.713   3.003  -3.055  0.00  0.00    +0.012 A 
ATOM     26  C   UNL     1       3.052   3.421  -3.154  0.00  0.00    -0.017 A 
ATOM     27  C   UNL     1       3.396   4.615  -3.810  0.00  0.00    +0.008 A 
ATOM     28  C   UNL     1       4.702   4.989  -3.887  0.00  0.00    +0.001 A 
ATOM     29  C   UNL     1       5.708   4.206  -3.323  0.00  0.00    +0.001 A 
ATOM     30  C   UNL     1       5.412   3.043  -2.680  0.00  0.00    +0.010 A 
ATOM     31  C   UNL     1       4.074   2.624  -2.581  0.00  0.00    -0.000 A 
ATOM     32  C   UNL     1       3.732   1.433  -1.919  0.00  0.00    +0.067 A 
ATOM     33 BR   UNL     1       5.077   0.357  -1.139  0.00  0.00    -0.046 Br
ENDBRANCH  22  23
ENDBRANCH  19  22
ENDBRANCH   1  19
TORSDOF 6
