REMARK  Name = ZINC39685951
REMARK  6 active torsions:
REMARK  status: ('A' for Active; 'I' for Inactive)
REMARK    1  A    between atoms: C_1  and  C_2
REMARK    2  A    between atoms: C_2  and  C_3
REMARK    3  A    between atoms: C_2  and  C_4
REMARK    4  A    between atoms: C_9  and  N_12
REMARK    5  A    between atoms: C_13  and  C_15
REMARK    6  A    between atoms: C_26  and  C_28
REMARK                            x       y       z     vdW  Elec       q    Type
REMARK                         _______ _______ _______ _____ _____    ______ ____
ROOT
ATOM      1  C   UNL     1      -7.036   3.202  -3.686  0.00  0.00    +0.100 C 
ATOM      2  C   UNL     1      -6.349   4.238  -4.604  0.00  0.00    +0.121 C 
ATOM      3  N   UNL     1      -6.894   3.961  -5.954  0.00  0.00    -0.296 N 
ATOM      4  C   UNL     1      -8.325   3.654  -5.718  0.00  0.00    +0.115 C 
ATOM      5  C   UNL     1      -8.334   2.824  -4.419  0.00  0.00    -0.004 C 
ATOM      6  C   UNL     1      -9.547   3.188  -3.567  0.00  0.00    -0.010 C 
ATOM      7  C   UNL     1     -10.823   2.749  -4.291  0.00  0.00    -0.082 C 
ATOM      8  N   UNL     1     -10.782   1.301  -4.526  0.00  0.00    +0.379 N 
ATOM      9  C   UNL     1      -9.667   0.970  -5.421  0.00  0.00    -0.082 C 
ATOM     10  C   UNL     1      -8.341   1.333  -4.746  0.00  0.00    -0.010 C 
ATOM     11  C   UNL     1      -6.238   3.985  -7.131  0.00  0.00    +0.252 C 
ATOM     12  O   UNL     1      -6.830   3.733  -8.162  0.00  0.00    -0.270 OA
ATOM     13  H   UNL     1     -10.658   0.822  -3.646  0.00  0.00    -0.086 HD
ATOM     14  H   UNL     1     -11.649   1.005  -4.947  0.00  0.00    -0.086 HD
ENDROOT
BRANCH  11  15
ATOM     15  C   UNL     1      -4.800   4.316  -7.167  0.00  0.00    +0.107 A 
ATOM     16  C   UNL     1      -3.842   3.302  -7.061  0.00  0.00    +0.138 A 
ATOM     17  C   UNL     1      -2.498   3.621  -7.096  0.00  0.00    +0.039 A 
ATOM     18  C   UNL     1      -2.099   4.938  -7.236  0.00  0.00    +0.006 A 
ATOM     19  C   UNL     1      -3.039   5.947  -7.341  0.00  0.00    +0.039 A 
ATOM     20  C   UNL     1      -4.388   5.645  -7.313  0.00  0.00    +0.138 A 
ATOM     21  F   UNL     1      -5.305   6.630  -7.422  0.00  0.00    -0.205 F 
ATOM     22  F   UNL     1      -4.229   2.015  -6.924  0.00  0.00    -0.205 F 
ENDBRANCH  11  15
BRANCH   1  24
ATOM     23  N   UNL     1      -6.229   1.260  -2.384  0.00  0.00    -0.312 N 
ATOM     24  C   UNL     1      -6.158   1.989  -3.515  0.00  0.00    +0.218 C 
ATOM     25  O   UNL     1      -5.387   1.670  -4.395  0.00  0.00    -0.275 OA
ATOM     26  H   UNL     1      -6.846   1.515  -1.680  0.00  0.00    +0.149 HD
BRANCH  23  32
ATOM     27  C   UNL     1      -5.028  -3.718  -0.694  0.00  0.00    +0.218 C 
ATOM     28  O   UNL     1      -5.405  -4.673  -1.341  0.00  0.00    -0.275 OA
ATOM     29  N   UNL     1      -4.811  -2.535  -1.302  0.00  0.00    -0.301 N 
ATOM     30  C   UNL     1      -4.245  -1.403  -0.556  0.00  0.00    +0.109 C 
ATOM     31  C   UNL     1      -5.166  -0.191  -0.726  0.00  0.00    +0.041 C 
ATOM     32  C   UNL     1      -5.375   0.081  -2.218  0.00  0.00    +0.076 C 
ATOM     33  C   UNL     1      -6.046  -1.131  -2.869  0.00  0.00    +0.041 C 
ATOM     34  C   UNL     1      -5.130  -2.355  -2.725  0.00  0.00    +0.109 C 
BRANCH  27  36
ATOM     35  C   UNL     1      -6.043  -3.367   1.541  0.00  0.00    +0.017 C 
ATOM     36  C   UNL     1      -4.803  -3.855   0.790  0.00  0.00    +0.069 C 
ATOM     37  C   UNL     1      -4.544  -5.324   1.133  0.00  0.00    +0.017 C 
ENDBRANCH  27  36
ENDBRANCH  23  32
ENDBRANCH   1  24
TORSDOF 4
