REMARK  Name = ZINC13785494
REMARK  9 active torsions:
REMARK  status: ('A' for Active; 'I' for Inactive)
REMARK    1  A    between atoms: C_1  and  C_2
REMARK    2  A    between atoms: C_2  and  C_3
REMARK    3  A    between atoms: C_2  and  C_4
REMARK    4  A    between atoms: C_7  and  C_10
REMARK    5  A    between atoms: N_12  and  C_32
REMARK    6  A    between atoms: N_16  and  C_23
REMARK    7  A    between atoms: C_18  and  C_20
REMARK    8  A    between atoms: C_20  and  C_22
REMARK    9  A    between atoms: C_27  and  N_29
REMARK                            x       y       z     vdW  Elec       q    Type
REMARK                         _______ _______ _______ _____ _____    ______ ____
ROOT
ATOM      1  C   UNL     1       4.700   3.835  -0.119  0.00  0.00    +0.067 C 
ATOM      2  N   UNL     1       3.586   3.223   0.095  0.00  0.00    -0.181 NA
ATOM      3  N   UNL     1       2.352   3.888   0.000  0.00  0.00    -0.189 N 
ATOM      4  C   UNL     1       2.347   5.340  -0.101  0.00  0.00    +0.195 C 
ATOM      5  C   UNL     1       3.473   5.814  -1.009  0.00  0.00    +0.068 C 
ATOM      6  C   UNL     1       4.803   5.294  -0.455  0.00  0.00    +0.062 C 
ATOM      7  N   UNL     1       1.043   5.864  -0.521  0.00  0.00    -0.188 N 
ATOM      8  N   UNL     1       0.420   6.686   0.397  0.00  0.00    -0.167 NA
ATOM      9  C   UNL     1       0.948   6.981   1.559  0.00  0.00    +0.161 C 
ATOM     10  S   UNL     1       2.503   6.100   1.559  0.00  0.00    -0.052 S 
ENDROOT
BRANCH   1  14
ATOM     11  C   UNL     1       8.292   1.593   0.164  0.00  0.00    -0.045 A 
ATOM     12  C   UNL     1       7.075   0.972   0.381  0.00  0.00    +0.004 A 
ATOM     13  C   UNL     1       5.903   1.695   0.291  0.00  0.00    +0.010 A 
ATOM     14  C   UNL     1       5.948   3.056  -0.020  0.00  0.00    -0.002 A 
ATOM     15  C   UNL     1       7.181   3.675  -0.242  0.00  0.00    +0.010 A 
ATOM     16  C   UNL     1       8.345   2.941  -0.144  0.00  0.00    +0.004 A 
BRANCH  11  18
ATOM     17  C   UNL     1      10.305   0.843  -1.076  0.00  0.00    +0.012 C 
ATOM     18  C   UNL     1       9.568   0.796   0.264  0.00  0.00    +0.013 C 
ATOM     19  C   UNL     1      10.457   1.393   1.357  0.00  0.00    +0.012 C 
ENDBRANCH  11  18
ENDBRANCH   1  14
BRANCH   7  20
ATOM     20  C   UNL     1       0.475   5.556  -1.757  0.00  0.00    +0.057 A 
ATOM     21  C   UNL     1       1.146   4.722  -2.644  0.00  0.00    +0.025 A 
ATOM     22  C   UNL     1       0.580   4.419  -3.866  0.00  0.00    +0.004 A 
ATOM     23  C   UNL     1      -0.654   4.942  -4.208  0.00  0.00    +0.033 A 
ATOM     24  C   UNL     1      -1.324   5.772  -3.328  0.00  0.00    +0.128 A 
ATOM     25  C   UNL     1      -0.767   6.076  -2.102  0.00  0.00    +0.057 A 
BRANCH  24  26
ATOM     26  N   UNL     1      -2.644   6.330  -3.699  0.00  0.00    +0.056 N 
ATOM     27  O   UNL     1      -3.139   6.058  -4.778  0.00  0.00    -0.126 OA
ATOM     28  O   UNL     1      -3.236   7.061  -2.924  0.00  0.00    -0.126 OA
ENDBRANCH  24  26
ENDBRANCH   7  20
BRANCH   3  29
ATOM     29  C   UNL     1       1.154   3.171   0.008  0.00  0.00    +0.055 A 
ATOM     30  C   UNL     1       0.998   2.068  -0.822  0.00  0.00    +0.025 A 
ATOM     31  C   UNL     1      -0.189   1.361  -0.812  0.00  0.00    +0.002 A 
ATOM     32  C   UNL     1      -1.222   1.754   0.019  0.00  0.00    +0.000 A 
ATOM     33  C   UNL     1      -1.068   2.848   0.851  0.00  0.00    +0.002 A 
ATOM     34  C   UNL     1       0.116   3.560   0.846  0.00  0.00    +0.025 A 
ENDBRANCH   3  29
BRANCH   9  35
ATOM     35  C   UNL     1       0.412   7.805   2.578  0.00  0.00    +0.186 C 
ATOM     36  O   UNL     1       1.032   7.980   3.607  0.00  0.00    -0.290 OA
ATOM     37  C   UNL     1      -0.929   8.466   2.385  0.00  0.00    +0.094 C 
ENDBRANCH   9  35
TORSDOF 6
