REMARK  Name = ZINC39654598
REMARK  12 active torsions:
REMARK  status: ('A' for Active; 'I' for Inactive)
REMARK    1  A    between atoms: C_1  and  C_2
REMARK    2  A    between atoms: C_2  and  C_3
REMARK    3  A    between atoms: C_6  and  C_9
REMARK    4  A    between atoms: C_9  and  C_10
REMARK    5  A    between atoms: C_10  and  N_11
REMARK    6  A    between atoms: C_12  and  C_14
REMARK    7  A    between atoms: C_25  and  C_27
REMARK    8  A    between atoms: C_27  and  C_29
REMARK    9  A    between atoms: C_27  and  O_32
REMARK   10  A    between atoms: C_29  and  C_30
REMARK   11  A    between atoms: C_29  and  C_31
REMARK   12  A    between atoms: O_32  and  C_33
REMARK                            x       y       z     vdW  Elec       q    Type
REMARK                         _______ _______ _______ _____ _____    ______ ____
ROOT
ATOM      1  C   UNL     1       4.828  -0.832  -9.544  0.00  0.00    +0.100 C 
ATOM      2  C   UNL     1       6.009  -1.610  -8.923  0.00  0.00    +0.121 C 
ATOM      3  N   UNL     1       7.217  -1.008  -9.535  0.00  0.00    -0.297 N 
ATOM      4  C   UNL     1       6.918   0.443  -9.592  0.00  0.00    +0.115 C 
ATOM      5  C   UNL     1       5.428   0.515  -9.982  0.00  0.00    -0.004 C 
ATOM      6  C   UNL     1       4.745   1.663  -9.243  0.00  0.00    -0.010 C 
ATOM      7  C   UNL     1       5.318   2.994  -9.738  0.00  0.00    -0.082 C 
ATOM      8  N   UNL     1       5.099   3.116 -11.184  0.00  0.00    +0.379 N 
ATOM      9  C   UNL     1       5.835   2.063 -11.893  0.00  0.00    -0.082 C 
ATOM     10  C   UNL     1       5.284   0.693 -11.490  0.00  0.00    -0.010 C 
ATOM     11  C   UNL     1       8.335  -1.638  -9.948  0.00  0.00    +0.257 C 
ATOM     12  O   UNL     1       9.284  -0.994 -10.341  0.00  0.00    -0.272 OA
ATOM     13  H   UNL     1       4.113   3.028 -11.382  0.00  0.00    -0.086 HD
ATOM     14  H   UNL     1       5.422   4.020 -11.496  0.00  0.00    -0.086 HD
ENDROOT
BRANCH   1  16
ATOM     15  N   UNL     1       2.481  -0.366  -8.916  0.00  0.00    -0.315 N 
ATOM     16  C   UNL     1       3.745  -0.615  -8.519  0.00  0.00    +0.218 C 
ATOM     17  O   UNL     1       4.010  -0.665  -7.337  0.00  0.00    -0.275 OA
ATOM     18  H   UNL     1       2.269  -0.326  -9.861  0.00  0.00    +0.149 HD
BRANCH  15  19
ATOM     19  C   UNL     1       1.428  -0.155  -7.919  0.00  0.00    +0.109 C 
BRANCH  19  20
ATOM     20  C   UNL     1       0.099   0.106  -8.629  0.00  0.00    +0.054 C 
BRANCH  20  24
ATOM     21  C   UNL     1      -2.973   0.721  -5.724  0.00  0.00    -0.048 A 
ATOM     22  C   UNL     1      -2.243   1.795  -6.196  0.00  0.00    +0.004 A 
ATOM     23  C   UNL     1      -1.249   1.597  -7.136  0.00  0.00    +0.004 A 
ATOM     24  C   UNL     1      -0.984   0.323  -7.604  0.00  0.00    -0.046 A 
ATOM     25  C   UNL     1      -1.714  -0.752  -7.131  0.00  0.00    +0.004 A 
ATOM     26  C   UNL     1      -2.705  -0.554  -6.188  0.00  0.00    +0.004 A 
BRANCH  21  28
ATOM     27  C   UNL     1      -3.459   0.828  -3.295  0.00  0.00    +0.009 C 
ATOM     28  C   UNL     1      -4.056   0.937  -4.699  0.00  0.00    +0.032 C 
ENDBRANCH  21  28
ENDBRANCH  20  24
ENDBRANCH  19  20
ENDBRANCH  15  19
ENDBRANCH   1  16
BRANCH  11  29
ATOM     29  C   UNL     1       8.405  -3.143  -9.920  0.00  0.00    +0.261 C 
BRANCH  29  30
ATOM     30  C   UNL     1       7.863  -3.704 -11.237  0.00  0.00    +0.033 C 
ATOM     31  C   UNL     1       8.059  -5.221 -11.265  0.00  0.00    +0.011 C 
ATOM     32  C   UNL     1       6.372  -3.380 -11.352  0.00  0.00    +0.011 C 
ENDBRANCH  29  30
BRANCH  29  33
ATOM     33  O   UNL     1       9.764  -3.553  -9.752  0.00  0.00    -0.479 OA
BRANCH  33  34
ATOM     34  C   UNL     1       9.984  -4.668  -9.006  0.00  0.00    +0.122 A 
ATOM     35  C   UNL     1      11.278  -5.130  -8.814  0.00  0.00    +0.045 A 
ATOM     36  C   UNL     1      11.499  -6.263  -8.054  0.00  0.00    +0.004 A 
ATOM     37  C   UNL     1      10.433  -6.936  -7.487  0.00  0.00    +0.000 A 
ATOM     38  C   UNL     1       9.143  -6.477  -7.678  0.00  0.00    +0.004 A 
ATOM     39  C   UNL     1       8.916  -5.341  -8.431  0.00  0.00    +0.045 A 
ENDBRANCH  33  34
ENDBRANCH  29  33
ENDBRANCH  11  29
TORSDOF 9
