REMARK  Name = ZINC39486435
REMARK  8 active torsions:
REMARK  status: ('A' for Active; 'I' for Inactive)
REMARK    1  A    between atoms: C_1  and  C_2
REMARK    2  A    between atoms: C_2  and  C_3
REMARK    3  A    between atoms: C_2  and  S_4
REMARK    4  A    between atoms: S_4  and  C_7
REMARK    5  A    between atoms: C_7  and  C_9
REMARK    6  A    between atoms: C_11  and  C_27
REMARK    7  A    between atoms: C_31  and  C_33
REMARK    8  A    between atoms: C_38  and  O_39
REMARK                            x       y       z     vdW  Elec       q    Type
REMARK                         _______ _______ _______ _____ _____    ______ ____
ROOT
ATOM      1  C   UNL     1       0.308   1.373   3.419  0.00  0.00    +0.132 C 
ATOM      2  C   UNL     1      -0.546   1.627   4.658  0.00  0.00    +0.065 C 
ATOM      3  C   UNL     1      -0.141   2.901   5.348  0.00  0.00    -0.025 A 
ATOM      4  C   UNL     1      -1.051   3.537   6.170  0.00  0.00    +0.054 A 
ATOM      5  C   UNL     1      -0.708   4.712   6.824  0.00  0.00    +0.167 A 
ATOM      6  C   UNL     1       0.565   5.263   6.657  0.00  0.00    +0.167 A 
ATOM      7  C   UNL     1       1.482   4.636   5.838  0.00  0.00    +0.061 A 
ATOM      8  C   UNL     1       1.132   3.452   5.178  0.00  0.00    +0.028 A 
ATOM      9  C   UNL     1       2.111   2.793   4.296  0.00  0.00    +0.198 C 
ATOM     10  O   UNL     1       3.138   3.351   3.971  0.00  0.00    -0.289 OA
ATOM     11  C   UNL     1       1.792   1.395   3.810  0.00  0.00    +0.249 C 
ATOM     12  F   UNL     1       2.028   0.471   4.834  0.00  0.00    -0.236 F 
ATOM     13  O   UNL     1       0.646   6.404   7.401  0.00  0.00    -0.453 OA
ATOM     14  C   UNL     1      -0.715   6.766   7.698  0.00  0.00    +0.466 C 
ATOM     15  O   UNL     1      -1.418   5.510   7.672  0.00  0.00    -0.453 OA
ENDROOT
BRANCH   2  16
ATOM     16  C   UNL     1      -1.992   1.727   4.249  0.00  0.00    -0.039 A 
ATOM     17  C   UNL     1      -2.390   2.701   3.351  0.00  0.00    +0.004 A 
ATOM     18  C   UNL     1      -3.716   2.799   2.970  0.00  0.00    +0.001 A 
ATOM     19  C   UNL     1      -4.651   1.923   3.485  0.00  0.00    +0.008 A 
ATOM     20  C   UNL     1      -4.256   0.940   4.390  0.00  0.00    -0.014 A 
ATOM     21  C   UNL     1      -2.917   0.843   4.766  0.00  0.00    +0.013 A 
BRANCH  20  22
ATOM     22  C   UNL     1      -5.256  -0.003   4.948  0.00  0.00    +0.024 A 
ATOM     23  C   UNL     1      -5.011  -1.374   4.929  0.00  0.00    +0.012 A 
ATOM     24  C   UNL     1      -5.945  -2.248   5.449  0.00  0.00    +0.001 A 
ATOM     25  C   UNL     1      -7.125  -1.766   5.989  0.00  0.00    +0.004 A 
ATOM     26  C   UNL     1      -7.377  -0.408   6.013  0.00  0.00    +0.046 A 
ATOM     27  C   UNL     1      -6.446   0.481   5.500  0.00  0.00    +0.125 A 
BRANCH  27  28
ATOM     28  O   UNL     1      -6.691   1.817   5.528  0.00  0.00    -0.506 OA
ATOM     29  H   UNL     1      -7.151   2.149   4.745  0.00  0.00    +0.292 HD
ENDBRANCH  27  28
ENDBRANCH  20  22
ENDBRANCH   2  16
BRANCH   1  30
ATOM     30  C   UNL     1      -0.038   0.027   2.837  0.00  0.00    +0.274 C 
ATOM     31  O   UNL     1      -0.622  -0.789   3.508  0.00  0.00    -0.272 OA
BRANCH  30  32
ATOM     32  S   UNL     1       0.409  -0.356   1.176  0.00  0.00    +0.032 S 
ATOM     33  O   UNL     1       0.459  -1.775   1.132  0.00  0.00    -0.166 OA
ATOM     34  O   UNL     1       1.574   0.418   0.926  0.00  0.00    -0.166 OA
BRANCH  32  36
ATOM     35  C   UNL     1      -1.132   1.759   0.380  0.00  0.00    +0.032 C 
ATOM     36  C   UNL     1      -0.972   0.252   0.169  0.00  0.00    +0.133 C 
ATOM     37  C   UNL     1      -0.690  -0.030  -1.308  0.00  0.00    +0.032 C 
ENDBRANCH  32  36
ENDBRANCH  30  32
ENDBRANCH   1  30
TORSDOF 6
