REMARK  Name = ZINC39884925
REMARK  15 active torsions:
REMARK  status: ('A' for Active; 'I' for Inactive)
REMARK    1  A    between atoms: C_1  and  C_2
REMARK    2  A    between atoms: C_2  and  O_3
REMARK    3  A    between atoms: O_3  and  C_4
REMARK    4  A    between atoms: C_4  and  C_6
REMARK    5  A    between atoms: C_10  and  N_11
REMARK    6  A    between atoms: C_12  and  C_14
REMARK    7  A    between atoms: C_14  and  C_28
REMARK    8  A    between atoms: C_15  and  C_16
REMARK    9  A    between atoms: C_18  and  O_26
REMARK   10  A    between atoms: C_19  and  O_24
REMARK   11  A    between atoms: C_20  and  O_22
REMARK   12  A    between atoms: O_22  and  C_23
REMARK   13  A    between atoms: O_24  and  C_25
REMARK   14  A    between atoms: O_26  and  C_27
REMARK   15  A    between atoms: C_31  and  C_35
REMARK                            x       y       z     vdW  Elec       q    Type
REMARK                         _______ _______ _______ _____ _____    ______ ____
ROOT
ATOM      1  N   UNL     1      -3.108  -2.295   2.516  0.00  0.00    -0.275 N 
ATOM      2  C   UNL     1      -3.889  -2.621   3.564  0.00  0.00    +0.259 C 
ATOM      3  O   UNL     1      -5.069  -2.862   3.393  0.00  0.00    -0.269 OA
ATOM      4  H   UNL     1      -2.167  -2.103   2.653  0.00  0.00    +0.156 HD
ENDROOT
BRANCH   1   9
ATOM      5  C   UNL     1      -3.003  -1.916   0.056  0.00  0.00    +0.091 A 
ATOM      6  C   UNL     1      -3.802  -1.928  -1.157  0.00  0.00    -0.021 A 
ATOM      7  C   UNL     1      -5.099  -2.247  -0.962  0.00  0.00    -0.004 A 
ATOM      8  S   UNL     1      -5.237  -2.520   0.780  0.00  0.00    -0.077 S 
ATOM      9  C   UNL     1      -3.648  -2.233   1.243  0.00  0.00    +0.087 A 
ATOM     10  C   UNL     1      -6.169  -2.345  -2.005  0.00  0.00    +0.046 C 
ATOM     11  C   UNL     1      -5.495  -2.396  -3.384  0.00  0.00    -0.009 C 
ATOM     12  C   UNL     1      -4.445  -1.283  -3.464  0.00  0.00    +0.008 C 
ATOM     13  C   UNL     1      -3.266  -1.612  -2.546  0.00  0.00    +0.037 C 
ATOM     14  C   UNL     1      -6.546  -2.192  -4.477  0.00  0.00    +0.008 C 
BRANCH   5  15
ATOM     15  C   UNL     1      -1.576  -1.591   0.027  0.00  0.00    +0.342 C 
ATOM     16  O   UNL     1      -0.754  -2.474  -0.132  0.00  0.00    -0.245 OA
BRANCH  15  17
ATOM     17  O   UNL     1      -1.172  -0.313   0.175  0.00  0.00    -0.461 OA
BRANCH  17  19
ATOM     18  C   UNL     1       0.498   1.428   0.321  0.00  0.00    +0.048 C 
ATOM     19  C   UNL     1       0.235  -0.068   0.137  0.00  0.00    +0.229 C 
ENDBRANCH  17  19
ENDBRANCH  15  17
ENDBRANCH   5  15
ENDBRANCH   1   9
BRANCH   2  20
ATOM     20  C   UNL     1      -3.314  -2.687   4.917  0.00  0.00    +0.114 C 
ATOM     21  C   UNL     1      -4.113  -3.021   5.989  0.00  0.00    +0.032 C 
BRANCH  21  22
ATOM     22  C   UNL     1      -3.585  -2.929   7.352  0.00  0.00    -0.017 A 
ATOM     23  C   UNL     1      -3.964  -3.871   8.318  0.00  0.00    +0.057 A 
ATOM     24  C   UNL     1      -3.464  -3.780   9.602  0.00  0.00    +0.166 A 
ATOM     25  C   UNL     1      -2.584  -2.752   9.938  0.00  0.00    +0.204 A 
ATOM     26  C   UNL     1      -2.205  -1.813   8.981  0.00  0.00    +0.166 A 
ATOM     27  C   UNL     1      -2.695  -1.900   7.693  0.00  0.00    +0.057 A 
BRANCH  26  28
ATOM     28  O   UNL     1      -1.347  -0.812   9.314  0.00  0.00    -0.491 OA
ATOM     29  C   UNL     1      -1.000   0.116   8.284  0.00  0.00    +0.277 C 
ENDBRANCH  26  28
BRANCH  25  30
ATOM     30  O   UNL     1      -2.096  -2.666  11.203  0.00  0.00    -0.488 OA
ATOM     31  C   UNL     1      -0.877  -3.360  11.476  0.00  0.00    +0.277 C 
ENDBRANCH  25  30
BRANCH  24  32
ATOM     32  O   UNL     1      -3.830  -4.694  10.540  0.00  0.00    -0.491 OA
ATOM     33  C   UNL     1      -4.735  -5.720  10.128  0.00  0.00    +0.277 C 
ENDBRANCH  24  32
ENDBRANCH  21  22
BRANCH  20  34
ATOM     34  C   UNL     1      -1.925  -2.404   5.119  0.00  0.00    +0.104 C 
ATOM     35  N   UNL     1      -0.823  -2.179   5.280  0.00  0.00    -0.191 NA
ENDBRANCH  20  34
ENDBRANCH   2  20
TORSDOF 10
