REMARK  Name = ZINC63361881
REMARK  9 active torsions:
REMARK  status: ('A' for Active; 'I' for Inactive)
REMARK    1  A    between atoms: C_1  and  C_2
REMARK    2  A    between atoms: C_2  and  C_4
REMARK    3  A    between atoms: C_2  and  C_36
REMARK    4  A    between atoms: C_4  and  N_5
REMARK    5  A    between atoms: C_6  and  C_8
REMARK    6  A    between atoms: C_13  and  N_14
REMARK    7  A    between atoms: C_17  and  C_35
REMARK    8  A    between atoms: C_23  and  O_28
REMARK    9  A    between atoms: O_28  and  C_29
REMARK                            x       y       z     vdW  Elec       q    Type
REMARK                         _______ _______ _______ _____ _____    ______ ____
ROOT
ATOM      1  N   UNL     1       1.066  -1.538   6.227  0.00  0.00    -0.192 N 
ATOM      2  C   UNL     1       2.300  -0.993   6.203  0.00  0.00    +0.253 C 
ATOM      3  O   UNL     1       2.582   0.179   6.077  0.00  0.00    -0.272 OA
ATOM      4  C   UNL     1       3.259  -2.151   6.367  0.00  0.00    +0.137 C 
ATOM      5  C   UNL     1       4.204  -2.242   5.169  0.00  0.00    +0.139 C 
ATOM      6  C   UNL     1       3.832  -3.498   4.393  0.00  0.00    -0.034 C 
ATOM      7  C   UNL     1       3.576  -3.104   3.149  0.00  0.00    +0.003 A 
ATOM      8  C   UNL     1       3.230  -3.858   1.934  0.00  0.00    +0.055 A 
ATOM      9  C   UNL     1       3.018  -3.129   0.804  0.00  0.00    +0.121 A 
ATOM     10  C   UNL     1       3.109  -1.731   0.744  0.00  0.00    +0.047 A 
ATOM     11  C   UNL     1       3.424  -0.939   1.801  0.00  0.00    +0.029 A 
ATOM     12  C   UNL     1       3.683  -1.614   3.080  0.00  0.00    +0.043 A 
ATOM     13  N   UNL     1       4.024  -1.118   4.248  0.00  0.00    -0.375 N 
ATOM     14  C   UNL     1       3.728  -4.867   5.019  0.00  0.00    +0.052 C 
ATOM     15  C   UNL     1       2.822  -4.727   6.259  0.00  0.00    +0.115 C 
ATOM     16  N   UNL     1       2.374  -3.334   6.334  0.00  0.00    -0.268 N 
ATOM     17  C   UNL     1       1.116  -2.871   6.344  0.00  0.00    +0.317 C 
ATOM     18  O   UNL     1       0.134  -3.580   6.444  0.00  0.00    -0.252 OA
ATOM     19  C   UNL     1       4.021  -2.061   7.691  0.00  0.00    +0.044 C 
ATOM     20  H   UNL     1       4.135  -0.180   4.468  0.00  0.00    +0.160 HD
ENDROOT
BRANCH   1  26
ATOM     21  C   UNL     1      -0.704  -0.280   7.307  0.00  0.00    +0.059 A 
ATOM     22  C   UNL     1      -1.885   0.460   7.212  0.00  0.00    +0.015 A 
ATOM     23  C   UNL     1      -2.469   0.668   5.981  0.00  0.00    +0.001 A 
ATOM     24  C   UNL     1      -1.890   0.146   4.836  0.00  0.00    +0.002 A 
ATOM     25  C   UNL     1      -0.723  -0.587   4.915  0.00  0.00    +0.025 A 
ATOM     26  C   UNL     1      -0.118  -0.801   6.145  0.00  0.00    +0.058 A 
BRANCH  21  28
ATOM     27  N   UNL     1      -0.691  -0.089   9.746  0.00  0.00    -0.311 N 
ATOM     28  C   UNL     1      -0.074  -0.506   8.622  0.00  0.00    +0.246 C 
ATOM     29  O   UNL     1       1.002  -1.068   8.692  0.00  0.00    -0.270 OA
ATOM     30  H   UNL     1      -1.515   0.419   9.687  0.00  0.00    +0.149 HD
BRANCH  27  31
ATOM     31  C   UNL     1      -0.117  -0.404  11.056  0.00  0.00    +0.112 C 
BRANCH  31  33
ATOM     32  C   UNL     1      -2.365  -0.748  12.092  0.00  0.00    +0.014 C 
ATOM     33  C   UNL     1      -1.071   0.066  12.157  0.00  0.00    +0.033 C 
BRANCH  33  34
ATOM     34  C   UNL     1      -0.420  -0.130  13.502  0.00  0.00    -0.043 A 
ATOM     35  C   UNL     1       0.050  -1.378  13.868  0.00  0.00    +0.004 A 
ATOM     36  C   UNL     1       0.646  -1.558  15.102  0.00  0.00    +0.000 A 
ATOM     37  C   UNL     1       0.773  -0.490  15.970  0.00  0.00    +0.000 A 
ATOM     38  C   UNL     1       0.304   0.758  15.604  0.00  0.00    +0.000 A 
ATOM     39  C   UNL     1      -0.289   0.939  14.369  0.00  0.00    +0.004 A 
ENDBRANCH  33  34
ENDBRANCH  31  33
ENDBRANCH  27  31
ENDBRANCH  21  28
ENDBRANCH   1  26
BRANCH   9  40
ATOM     40  O   UNL     1       2.697  -3.797  -0.336  0.00  0.00    -0.495 OA
ATOM     41  C   UNL     1       2.582  -3.023  -1.531  0.00  0.00    +0.277 C 
ENDBRANCH   9  40
TORSDOF 6
