REMARK  Name = ZINC47872841
REMARK  7 active torsions:
REMARK  status: ('A' for Active; 'I' for Inactive)
REMARK    1  A    between atoms: C_1  and  C_2
REMARK    2  A    between atoms: C_9  and  C_11
REMARK    3  A    between atoms: N_13  and  N_14
REMARK    4  A    between atoms: C_15  and  C_17
REMARK    5  A    between atoms: C_17  and  N_18
REMARK    6  A    between atoms: C_21  and  C_25
REMARK    7  A    between atoms: C_21  and  C_26
REMARK                            x       y       z     vdW  Elec       q    Type
REMARK                         _______ _______ _______ _____ _____    ______ ____
ROOT
ATOM      1  N   UNL     1       1.978  -7.562   3.418  0.00  0.00    -0.233 N 
ATOM      2  C   UNL     1       2.065  -8.835   2.985  0.00  0.00    +0.247 C 
ATOM      3  O   UNL     1       1.903  -9.089   1.810  0.00  0.00    -0.273 OA
ATOM      4  H   UNL     1       2.108  -7.359   4.357  0.00  0.00    +0.173 HD
ENDROOT
BRANCH   1   7
ATOM      5  C   UNL     1       1.612  -5.258   2.944  0.00  0.00    +0.267 C 
ATOM      6  O   UNL     1       1.775  -5.003   4.123  0.00  0.00    -0.268 OA
ATOM      7  N   UNL     1       1.699  -6.531   2.511  0.00  0.00    -0.230 N 
ATOM      8  H   UNL     1       1.569  -6.734   1.571  0.00  0.00    +0.173 HD
BRANCH   5  16
ATOM      9  C   UNL     1      -0.019   1.526   0.010  0.00  0.00    +0.008 C 
ATOM     10  C   UNL     1       0.002  -0.004   0.002  0.00  0.00    -0.009 C 
ATOM     11  C   UNL     1       0.716  -0.496  -1.260  0.00  0.00    +0.009 C 
ATOM     12  C   UNL     1       0.494  -2.009  -1.394  0.00  0.00    +0.043 C 
ATOM     13  C   UNL     1       0.790  -2.651  -0.071  0.00  0.00    -0.006 A 
ATOM     14  C   UNL     1       0.909  -2.022   1.133  0.00  0.00    -0.036 A 
ATOM     15  C   UNL     1       1.190  -2.823   2.230  0.00  0.00    +0.024 A 
ATOM     16  C   UNL     1       1.320  -4.179   1.995  0.00  0.00    +0.076 A 
ATOM     17  S   UNL     1       1.042  -4.273   0.236  0.00  0.00    -0.088 S 
ATOM     18  C   UNL     1       0.739  -0.509   1.243  0.00  0.00    +0.039 C 
ENDBRANCH   5  16
ENDBRANCH   1   7
BRANCH   2  19
ATOM     19  C   UNL     1       2.365  -9.944   3.960  0.00  0.00    +0.215 C 
BRANCH  19  20
ATOM     20  N   UNL     1       2.407 -11.223   3.248  0.00  0.00    -0.215 N 
ATOM     21  C   UNL     1       1.336 -12.018   3.055  0.00  0.00    +0.246 C 
ATOM     22  O   UNL     1       0.199 -11.817   3.425  0.00  0.00    -0.273 OA
ATOM     23  C   UNL     1       1.848 -13.215   2.279  0.00  0.00    +0.107 C 
ATOM     24  N   UNL     1       3.283 -12.929   2.108  0.00  0.00    -0.285 N 
ATOM     25  C   UNL     1       3.512 -11.744   2.702  0.00  0.00    +0.310 C 
ATOM     26  O   UNL     1       4.602 -11.208   2.742  0.00  0.00    -0.252 OA
ATOM     27  C   UNL     1       1.648 -14.503   3.082  0.00  0.00    +0.041 C 
ATOM     28  C   UNL     1       1.153 -13.313   0.920  0.00  0.00    +0.041 C 
ATOM     29  H   UNL     1       3.935 -13.485   1.654  0.00  0.00    +0.151 HD
ENDBRANCH  19  20
ENDBRANCH   2  19
TORSDOF 4
