REMARK  Name = ZINC36028178
REMARK  11 active torsions:
REMARK  status: ('A' for Active; 'I' for Inactive)
REMARK    1  A    between atoms: C_1  and  C_2
REMARK    2  A    between atoms: C_2  and  C_3
REMARK    3  A    between atoms: C_3  and  C_5
REMARK    4  A    between atoms: C_3  and  C_6
REMARK    5  A    between atoms: C_6  and  N_7
REMARK    6  A    between atoms: C_10  and  C_30
REMARK    7  A    between atoms: N_16  and  S_19
REMARK    8  A    between atoms: S_19  and  C_22
REMARK    9  A    between atoms: C_30  and  C_32
REMARK   10  A    between atoms: C_30  and  C_33
REMARK   11  A    between atoms: C_33  and  C_34
REMARK                            x       y       z     vdW  Elec       q    Type
REMARK                         _______ _______ _______ _____ _____    ______ ____
ROOT
ATOM      1  N   UNL     1      -2.635  -2.191   0.526  0.00  0.00    -0.313 N 
ATOM      2  C   UNL     1      -3.171  -2.132   1.763  0.00  0.00    +0.201 C 
ATOM      3  O   UNL     1      -2.576  -1.841   2.780  0.00  0.00    -0.277 OA
ATOM      4  C   UNL     1      -4.638  -2.490   1.669  0.00  0.00    +0.022 C 
ATOM      5  N   UNL     1      -4.782  -3.148   0.348  0.00  0.00    +0.401 N 
ATOM      6  C   UNL     1      -3.673  -2.565  -0.439  0.00  0.00    +0.006 C 
ATOM      7  C   UNL     1      -4.163  -1.330  -1.192  0.00  0.00    +0.023 C 
ATOM      8  C   UNL     1      -2.997  -0.714  -1.972  0.00  0.00    +0.109 C 
ATOM      9  N   UNL     1      -2.396  -1.751  -2.821  0.00  0.00    -0.177 NA
ATOM     10  C   UNL     1      -1.959  -3.008  -2.200  0.00  0.00    +0.109 C 
ATOM     11  C   UNL     1      -3.134  -3.606  -1.418  0.00  0.00    +0.023 C 
ATOM     12  H   UNL     1      -4.676  -4.148   0.434  0.00  0.00    -0.082 HD
ATOM     13  H   UNL     1      -5.672  -2.918  -0.070  0.00  0.00    -0.082 HD
ENDROOT
BRANCH   9  14
ATOM     14  S   UNL     1      -2.214  -1.507  -4.449  0.00  0.00    +0.061 S 
ATOM     15  O   UNL     1      -2.157  -2.794  -5.049  0.00  0.00    -0.153 OA
ATOM     16  O   UNL     1      -3.179  -0.533  -4.825  0.00  0.00    -0.153 OA
BRANCH  14  17
ATOM     17  C   UNL     1      -0.633  -0.768  -4.692  0.00  0.00    +0.107 A 
ATOM     18  C   UNL     1      -0.503   0.609  -4.673  0.00  0.00    +0.030 A 
ATOM     19  C   UNL     1       0.736   1.190  -4.863  0.00  0.00    +0.023 A 
ATOM     20  C   UNL     1       1.848   0.394  -5.072  0.00  0.00    +0.059 A 
ATOM     21  C   UNL     1       1.719  -0.985  -5.090  0.00  0.00    +0.061 A 
ATOM     22  C   UNL     1       0.478  -1.565  -4.894  0.00  0.00    +0.050 A 
ATOM     23 CL   UNL     1       3.113  -1.985  -5.353  0.00  0.00    -0.082 Cl
ATOM     24 CL   UNL     1       3.405   1.123  -5.312  0.00  0.00    -0.082 Cl
ENDBRANCH  14  17
ENDBRANCH   9  14
BRANCH   4  25
ATOM     25  C   UNL     1      -5.024  -3.454   2.792  0.00  0.00    -0.020 C 
ATOM     26  C   UNL     1      -4.084  -4.660   2.775  0.00  0.00    +0.006 C 
BRANCH  25  27
ATOM     27  C   UNL     1      -4.912  -2.738   4.140  0.00  0.00    -0.001 C 
ATOM     28  C   UNL     1      -5.417  -3.661   5.251  0.00  0.00    +0.004 C 
ENDBRANCH  25  27
ENDBRANCH   4  25
BRANCH   1  29
ATOM     29  C   UNL     1      -1.234  -1.917   0.197  0.00  0.00    +0.109 C 
BRANCH  29  30
ATOM     30  C   UNL     1      -0.423  -3.210   0.304  0.00  0.00    +0.003 C 
ATOM     31  C   UNL     1      -0.395  -3.675   1.762  0.00  0.00    +0.009 C 
BRANCH  30  33
ATOM     32  C   UNL     1       1.783  -4.275  -0.188  0.00  0.00    +0.004 C 
ATOM     33  C   UNL     1       1.007  -2.956  -0.177  0.00  0.00    +0.001 C 
ENDBRANCH  30  33
ENDBRANCH  29  30
ENDBRANCH   1  29
TORSDOF 7
