REMARK  Name = ZINC10440494
REMARK  10 active torsions:
REMARK  status: ('A' for Active; 'I' for Inactive)
REMARK    1  A    between atoms: C_1  and  C_2
REMARK    2  A    between atoms: C_2  and  C_3
REMARK    3  A    between atoms: C_2  and  C_4
REMARK    4  A    between atoms: C_2  and  C_5
REMARK    5  A    between atoms: C_12  and  C_14
REMARK    6  A    between atoms: C_17  and  S_20
REMARK    7  A    between atoms: N_18  and  C_19
REMARK    8  A    between atoms: S_20  and  C_21
REMARK    9  A    between atoms: C_21  and  C_22
REMARK   10  A    between atoms: N_24  and  C_25
REMARK                            x       y       z     vdW  Elec       q    Type
REMARK                         _______ _______ _______ _____ _____    ______ ____
ROOT
ATOM      1  C   UNL     1      -0.587  -2.107   0.094  0.00  0.00    +0.171 A 
ATOM      2  N   UNL     1       0.723  -2.005   0.068  0.00  0.00    -0.128 NA
ATOM      3  N   UNL     1       1.066  -0.766   0.051  0.00  0.00    -0.122 NA
ATOM      4  C   UNL     1      -0.001  -0.001   0.073  0.00  0.00    +0.192 A 
ATOM      5  N   UNL     1      -1.091  -0.825   0.098  0.00  0.00    -0.305 N 
ATOM      6  C   UNL     1      -2.501  -0.428   0.124  0.00  0.00    +0.153 C 
ENDROOT
BRANCH   1  13
ATOM      7  C   UNL     1      -2.779  -7.920  -0.651  0.00  0.00    -0.001 C 
ATOM      8  C   UNL     1      -3.776  -7.720   0.494  0.00  0.00    +0.009 C 
ATOM      9  C   UNL     1      -4.309  -6.280   0.437  0.00  0.00    +0.043 C 
ATOM     10  C   UNL     1      -3.146  -5.355   0.277  0.00  0.00    -0.006 A 
ATOM     11  C   UNL     1      -1.871  -5.679  -0.083  0.00  0.00    -0.036 A 
ATOM     12  C   UNL     1      -0.962  -4.631  -0.169  0.00  0.00    +0.023 A 
ATOM     13  C   UNL     1      -1.368  -3.355   0.114  0.00  0.00    +0.057 A 
ATOM     14  S   UNL     1      -3.094  -3.598   0.506  0.00  0.00    -0.090 S 
ATOM     15  C   UNL     1      -1.499  -7.130  -0.376  0.00  0.00    +0.040 C 
BRANCH   7  17
ATOM     16  C   UNL     1      -1.807  -9.897   0.529  0.00  0.00    +0.011 C 
ATOM     17  C   UNL     1      -2.440  -9.407  -0.775  0.00  0.00    -0.035 C 
ATOM     18  C   UNL     1      -3.719 -10.200  -1.051  0.00  0.00    +0.011 C 
ATOM     19  C   UNL     1      -1.455  -9.611  -1.928  0.00  0.00    +0.011 C 
ENDBRANCH   7  17
ENDBRANCH   1  13
BRANCH   4  20
ATOM     20  S   UNL     1      -0.023   1.761   0.066  0.00  0.00    -0.077 S 
BRANCH  20  21
ATOM     21  C   UNL     1       1.755   2.098   0.030  0.00  0.00    +0.173 C 
BRANCH  21  22
ATOM     22  C   UNL     1       1.984   3.587   0.019  0.00  0.00    +0.228 C 
ATOM     23  O   UNL     1       1.038   4.346   0.034  0.00  0.00    -0.275 OA
ATOM     24  N   UNL     1       3.240   4.076  -0.007  0.00  0.00    -0.282 N 
ATOM     25  H   UNL     1       4.098   3.390   0.051  0.00  0.00    +0.155 HD
BRANCH  24  26
ATOM     26  C   UNL     1       3.452   5.456  -0.107  0.00  0.00    +0.071 A 
ATOM     27  C   UNL     1       2.573   6.351   0.495  0.00  0.00    +0.028 A 
ATOM     28  C   UNL     1       2.827   7.708   0.372  0.00  0.00    +0.022 A 
ATOM     29  C   UNL     1       3.931   8.126  -0.347  0.00  0.00    +0.112 A 
ATOM     30  N   UNL     1       4.743   7.252  -0.911  0.00  0.00    -0.242 NA
ATOM     31  C   UNL     1       4.540   5.952  -0.815  0.00  0.00    +0.150 A 
ATOM     32 CL   UNL     1       5.644   4.851  -1.579  0.00  0.00    -0.060 Cl
ENDBRANCH  24  26
ENDBRANCH  21  22
ENDBRANCH  20  21
ENDBRANCH   4  20
TORSDOF 6
