REMARK  Name = ZINC01195126
REMARK  2 active torsions:
REMARK  status: ('A' for Active; 'I' for Inactive)
REMARK    1  A    between atoms: C_3  and  N_24
REMARK    2  A    between atoms: C_6  and  C_7
REMARK                            x       y       z     vdW  Elec       q    Type
REMARK                         _______ _______ _______ _____ _____    ______ ____
ROOT
ATOM      1  C   UNL     1      -1.293  -0.775   0.010  0.00  0.00    +0.105 C 
ATOM      2  C   UNL     1      -1.594  -1.195   1.434  0.00  0.00    +0.029 C 
ATOM      3  C   UNL     1      -2.409  -0.057   2.110  0.00  0.00    +0.033 C 
ATOM      4  C   UNL     1      -3.853  -0.446   1.878  0.00  0.00    -0.030 C 
ATOM      5  C   UNL     1      -3.950  -1.712   1.560  0.00  0.00    -0.023 C 
ATOM      6  C   UNL     1      -2.571  -2.364   1.539  0.00  0.00    +0.049 C 
ATOM      7  C   UNL     1      -2.430  -3.388   0.463  0.00  0.00    -0.017 A 
ATOM      8  C   UNL     1      -3.020  -4.632   0.636  0.00  0.00    +0.044 A 
ATOM      9  C   UNL     1      -2.898  -5.607  -0.335  0.00  0.00    +0.124 A 
ATOM     10  C   UNL     1      -2.182  -5.351  -1.492  0.00  0.00    +0.040 A 
ATOM     11  C   UNL     1      -1.596  -4.115  -1.675  0.00  0.00    +0.026 A 
ATOM     12  C   UNL     1      -1.725  -3.129  -0.702  0.00  0.00    +0.032 A 
ATOM     13  N   UNL     1      -1.177  -1.877  -0.919  0.00  0.00    -0.336 N 
ATOM     14  F   UNL     1      -3.478  -6.814  -0.155  0.00  0.00    -0.205 F 
ATOM     15  H   UNL     1      -0.670  -1.741  -1.735  0.00  0.00    +0.147 HD
ENDROOT
BRANCH   1  21
ATOM     16  C   UNL     1      -0.017   1.378   0.010  0.00  0.00    +0.008 A 
ATOM     17  C   UNL     1       1.171   2.086   0.002  0.00  0.00    +0.033 A 
ATOM     18  C   UNL     1       2.377   1.411  -0.013  0.00  0.00    +0.126 A 
ATOM     19  C   UNL     1       2.396   0.029  -0.020  0.00  0.00    +0.033 A 
ATOM     20  C   UNL     1       1.208  -0.679  -0.012  0.00  0.00    +0.008 A 
ATOM     21  C   UNL     1       0.002  -0.004   0.002  0.00  0.00    -0.027 A 
BRANCH  18  22
ATOM     22  N   UNL     1       3.649   2.168  -0.022  0.00  0.00    +0.056 N 
ATOM     23  O   UNL     1       3.633   3.377  -0.016  0.00  0.00    -0.126 OA
ATOM     24  O   UNL     1       4.704   1.578  -0.035  0.00  0.00    -0.126 OA
ENDBRANCH  18  22
ENDBRANCH   1  21
TORSDOF 2
