REMARK  Name = ZINC09242762
REMARK  4 active torsions:
REMARK  status: ('A' for Active; 'I' for Inactive)
REMARK    1  A    between atoms: C_3  and  C_10
REMARK    2  A    between atoms: C_5  and  N_7
REMARK    3  A    between atoms: C_18  and  C_20
REMARK    4  A    between atoms: C_20  and  C_22
REMARK                            x       y       z     vdW  Elec       q    Type
REMARK                         _______ _______ _______ _____ _____    ______ ____
ROOT
ATOM      1  C   UNL     1       3.907  -0.846   0.062  0.00  0.00    +0.016 C 
ATOM      2  C   UNL     1       4.020  -1.821   1.239  0.00  0.00    -0.047 C 
ATOM      3  C   UNL     1       3.052  -1.434   2.368  0.00  0.00    +0.052 C 
ATOM      4  S   UNL     1       2.037  -2.965   2.530  0.00  0.00    -0.181 S 
ATOM      5  C   UNL     1       2.470  -3.705   0.895  0.00  0.00    -0.005 C 
ATOM      6  C   UNL     1       4.155  -3.133  -0.717  0.00  0.00    +0.052 C 
ATOM      7  C   UNL     1       3.735  -1.736  -1.189  0.00  0.00    +0.069 C 
ATOM      8  C   UNL     1       5.610  -3.391  -0.993  0.00  0.00    -0.024 A 
ATOM      9  C   UNL     1       6.774  -2.769  -0.600  0.00  0.00    +0.043 A 
ATOM     10  C   UNL     1       7.998  -3.253  -1.031  0.00  0.00    +0.124 A 
ATOM     11  C   UNL     1       8.047  -4.364  -1.857  0.00  0.00    +0.040 A 
ATOM     12  C   UNL     1       6.883  -4.989  -2.251  0.00  0.00    +0.026 A 
ATOM     13  C   UNL     1       5.648  -4.508  -1.822  0.00  0.00    +0.036 A 
ATOM     14  N   UNL     1       4.352  -4.962  -2.081  0.00  0.00    -0.286 N 
ATOM     15  C   UNL     1       3.418  -4.209  -1.468  0.00  0.00    +0.212 C 
ATOM     16  O   UNL     1       2.217  -4.367  -1.512  0.00  0.00    -0.277 OA
ATOM     17  F   UNL     1       9.141  -2.644  -0.646  0.00  0.00    -0.205 F 
ATOM     18  H   UNL     1       4.148  -5.729  -2.638  0.00  0.00    +0.155 HD
ATOM     19  N   UNL     1       3.870  -3.185   0.702  0.00  0.00    +0.401 N 
ATOM     20  H   UNL     1       4.533  -3.813   1.173  0.00  0.00    -0.078 HD
ENDROOT
BRANCH   1  23
ATOM     21  C   UNL     1       0.329   0.341   0.280  0.00  0.00    +0.002 A 
ATOM     22  C   UNL     1       1.432  -0.478   0.119  0.00  0.00    +0.004 A 
ATOM     23  C   UNL     1       2.705   0.046   0.236  0.00  0.00    -0.043 A 
ATOM     24  C   UNL     1       2.876   1.390   0.514  0.00  0.00    +0.036 A 
ATOM     25  C   UNL     1       1.774   2.208   0.677  0.00  0.00    +0.126 A 
ATOM     26  C   UNL     1       0.501   1.683   0.558  0.00  0.00    +0.033 A 
BRANCH  25  27
ATOM     27  N   UNL     1       1.958   3.646   0.975  0.00  0.00    +0.056 N 
ATOM     28  O   UNL     1       0.987   4.367   1.116  0.00  0.00    -0.126 OA
ATOM     29  O   UNL     1       3.080   4.108   1.079  0.00  0.00    -0.126 OA
ENDBRANCH  25  27
ENDBRANCH   1  23
BRANCH   7  30
ATOM     30  C   UNL     1       4.635  -1.262  -2.301  0.00  0.00    +0.173 C 
ATOM     31  O   UNL     1       5.643  -0.637  -2.042  0.00  0.00    -0.291 OA
BRANCH  30  32
ATOM     32  C   UNL     1       4.306  -1.545  -3.645  0.00  0.00    +0.055 A 
ATOM     33  C   UNL     1       4.989  -1.199  -4.807  0.00  0.00    +0.019 A 
ATOM     34  C   UNL     1       4.444  -1.610  -5.995  0.00  0.00    +0.008 A 
ATOM     35  C   UNL     1       3.278  -2.313  -5.984  0.00  0.00    +0.046 A 
ATOM     36  S   UNL     1       2.902  -2.434  -4.296  0.00  0.00    -0.094 S 
ENDBRANCH  30  32
ENDBRANCH   7  30
TORSDOF 4
