REMARK  Name = ZINC00626035
REMARK  4 active torsions:
REMARK  status: ('A' for Active; 'I' for Inactive)
REMARK    1  A    between atoms: C_1  and  C_2
REMARK    2  A    between atoms: C_9  and  C_17
REMARK    3  A    between atoms: C_11  and  C_15
REMARK    4  A    between atoms: C_12  and  N_14
REMARK                            x       y       z     vdW  Elec       q    Type
REMARK                         _______ _______ _______ _____ _____    ______ ____
ROOT
ATOM      1  C   UNL     1      -2.783   8.027  -4.689  0.00  0.00    +0.086 C 
ATOM      2  C   UNL     1      -2.090   7.542  -3.442  0.00  0.00    +0.110 A 
ATOM      3  C   UNL     1      -2.740   7.591  -2.264  0.00  0.00    +0.088 A 
ATOM      4  C   UNL     1      -2.096   7.138  -1.089  0.00  0.00    +0.144 A 
ATOM      5  C   UNL     1      -0.809   6.653  -1.185  0.00  0.00    +0.092 A 
ATOM      6  C   UNL     1      -0.184   6.626  -2.438  0.00  0.00    +0.345 A 
ATOM      7  O   UNL     1       0.955   6.201  -2.542  0.00  0.00    -0.245 OA
ATOM      8  O   UNL     1      -0.838   7.069  -3.525  0.00  0.00    -0.427 OA
ATOM      9  C   UNL     1      -0.082   6.158   0.035  0.00  0.00    +0.105 C 
ATOM     10  C   UNL     1      -0.772   6.641   1.280  0.00  0.00    +0.098 C 
ATOM     11  C   UNL     1      -2.038   7.118   1.241  0.00  0.00    +0.199 C 
ATOM     12  O   UNL     1      -2.739   7.184   0.095  0.00  0.00    -0.441 OA
ENDROOT
BRANCH   9  13
ATOM     13  C   UNL     1      -0.061   4.651   0.027  0.00  0.00    -0.034 A 
ATOM     14  C   UNL     1       1.145   3.977   0.013  0.00  0.00    +0.005 A 
ATOM     15  C   UNL     1       1.165   2.595   0.005  0.00  0.00    +0.015 A 
ATOM     16  C   UNL     1      -0.024   1.887   0.012  0.00  0.00    +0.018 A 
ATOM     17  C   UNL     1      -1.231   2.562   0.022  0.00  0.00    +0.015 A 
ATOM     18  C   UNL     1      -1.249   3.944   0.035  0.00  0.00    +0.005 A 
ATOM     19 BR   UNL     1       0.002  -0.004   0.002  0.00  0.00    -0.050 Br
ENDBRANCH   9  13
BRANCH  11  20
ATOM     20  N   UNL     1      -2.625   7.546   2.406  0.00  0.00    -0.328 N 
ATOM     21  H   UNL     1      -3.532   7.890   2.394  0.00  0.00    +0.145 HD
ATOM     22  H   UNL     1      -2.132   7.506   3.240  0.00  0.00    +0.145 HD
ENDBRANCH  11  20
BRANCH  10  23
ATOM     23  C   UNL     1      -0.076   6.597   2.531  0.00  0.00    +0.101 C 
ATOM     24  N   UNL     1       0.476   6.561   3.523  0.00  0.00    -0.191 NA
ENDBRANCH  10  23
TORSDOF 3
