REMARK  Name = ZINC00970227
REMARK  5 active torsions:
REMARK  status: ('A' for Active; 'I' for Inactive)
REMARK    1  A    between atoms: C_9  and  C_20
REMARK    2  A    between atoms: C_15  and  N_19
REMARK    3  A    between atoms: C_16  and  C_17
REMARK    4  A    between atoms: N_29  and  C_30
REMARK    5  A    between atoms: C_30  and  C_31
REMARK                            x       y       z     vdW  Elec       q    Type
REMARK                         _______ _______ _______ _____ _____    ______ ____
ROOT
ATOM      1  C   UNL     1       4.039   4.868   2.580  0.00  0.00    +0.000 A 
ATOM      2  C   UNL     1       2.758   4.364   2.674  0.00  0.00    +0.002 A 
ATOM      3  C   UNL     1       2.096   3.836   1.577  0.00  0.00    +0.024 A 
ATOM      4  C   UNL     1       2.777   3.836   0.359  0.00  0.00    +0.042 A 
ATOM      5  C   UNL     1       4.079   4.346   0.278  0.00  0.00    -0.001 A 
ATOM      6  C   UNL     1       4.731   4.870   1.374  0.00  0.00    +0.007 A 
ATOM      7  C   UNL     1       4.501   4.188  -1.147  0.00  0.00    +0.145 C 
ATOM      8  C   UNL     1       5.712   3.307  -1.266  0.00  0.00    +0.066 A 
ATOM      9  C   UNL     1       5.845   1.934  -1.035  0.00  0.00    +0.101 A 
ATOM     10  N   UNL     1       7.099   1.601  -1.270  0.00  0.00    -0.171 NA
ATOM     11  N   UNL     1       7.798   2.755  -1.656  0.00  0.00    -0.246 N 
ATOM     12  H   UNL     1       8.768   2.803  -1.895  0.00  0.00    +0.192 HD
ATOM     13  C   UNL     1       6.932   3.789  -1.649  0.00  0.00    +0.224 A 
ATOM     14  O   UNL     1       7.139   5.096  -1.948  0.00  0.00    -0.423 OA
ATOM     15  C   UNL     1       6.058   5.882  -2.127  0.00  0.00    +0.201 C 
ATOM     16  C   UNL     1       4.801   5.520  -1.778  0.00  0.00    +0.110 C 
ATOM     17  C   UNL     1       3.313   3.542  -1.824  0.00  0.00    +0.241 C 
ATOM     18  O   UNL     1       3.228   3.235  -2.994  0.00  0.00    -0.274 OA
ATOM     19  N   UNL     1       2.365   3.372  -0.878  0.00  0.00    -0.259 N 
ENDROOT
BRANCH   9  20
ATOM     20  C   UNL     1       4.764   1.014  -0.602  0.00  0.00    +0.003 A 
ATOM     21  C   UNL     1       3.938   1.359   0.466  0.00  0.00    +0.011 A 
ATOM     22  C   UNL     1       2.932   0.501   0.862  0.00  0.00    +0.016 A 
ATOM     23  C   UNL     1       2.748  -0.703   0.207  0.00  0.00    +0.018 A 
ATOM     24  C   UNL     1       3.569  -1.053  -0.852  0.00  0.00    +0.016 A 
ATOM     25  C   UNL     1       4.575  -0.200  -1.259  0.00  0.00    +0.011 A 
ATOM     26 BR   UNL     1       1.372  -1.877   0.759  0.00  0.00    -0.050 Br
ENDBRANCH   9  20
BRANCH  15  27
ATOM     27  N   UNL     1       6.242   7.118  -2.695  0.00  0.00    -0.328 N 
ATOM     28  H   UNL     1       7.131   7.404  -2.955  0.00  0.00    +0.145 HD
ATOM     29  H   UNL     1       5.482   7.705  -2.836  0.00  0.00    +0.145 HD
ENDBRANCH  15  27
BRANCH  16  30
ATOM     30  C   UNL     1       3.724   6.433  -2.017  0.00  0.00    +0.102 C 
ATOM     31  N   UNL     1       2.869   7.157  -2.206  0.00  0.00    -0.191 NA
ENDBRANCH  16  30
BRANCH  19  32
ATOM     32  C   UNL     1       1.052   2.773  -1.132  0.00  0.00    +0.238 C 
BRANCH  32  33
ATOM     33  C   UNL     1       1.231   1.351  -1.599  0.00  0.00    +0.373 C 
ATOM     34  O   UNL     1       2.337   0.930  -1.843  0.00  0.00    -0.245 OA
ATOM     35  O   UNL     1       0.161   0.553  -1.744  0.00  0.00    -0.245 OA
ENDBRANCH  32  33
ENDBRANCH  19  32
TORSDOF 5
