REMARK  Name = ZINC11979318
REMARK  10 active torsions:
REMARK  status: ('A' for Active; 'I' for Inactive)
REMARK    1  A    between atoms: C_1  and  C_2
REMARK    2  A    between atoms: C_5  and  C_9
REMARK    3  A    between atoms: C_7  and  C_8
REMARK    4  A    between atoms: C_9  and  N_64
REMARK    5  A    between atoms: C_13  and  C_23
REMARK    6  A    between atoms: C_14  and  O_21
REMARK    7  A    between atoms: O_21  and  C_22
REMARK    8  A    between atoms: N_25  and  C_26
REMARK    9  A    between atoms: C_26  and  C_28
REMARK   10  A    between atoms: C_26  and  C_29
REMARK                            x       y       z     vdW  Elec       q    Type
REMARK                         _______ _______ _______ _____ _____    ______ ____
ROOT
ATOM      1  C   UNL     1      -3.096   2.862   1.447  0.00  0.00    -0.072 C 
ATOM      2  C   UNL     1      -3.143   4.225   0.760  0.00  0.00    +0.036 C 
ATOM      3  C   UNL     1      -2.910   5.346   1.744  0.00  0.00    +0.036 A 
ATOM      4  C   UNL     1      -3.500   6.566   1.448  0.00  0.00    +0.098 A 
ATOM      5  C   UNL     1      -3.270   7.710   2.330  0.00  0.00    +0.139 A 
ATOM      6  C   UNL     1      -2.458   7.522   3.431  0.00  0.00    +0.116 A 
ATOM      7  C   UNL     1      -1.911   6.258   3.659  0.00  0.00    +0.255 A 
ATOM      8  O   UNL     1      -1.185   6.096   4.627  0.00  0.00    -0.268 OA
ATOM      9  N   UNL     1      -2.160   5.207   2.844  0.00  0.00    -0.313 N 
ATOM     10  C   UNL     1      -1.571   3.924   3.239  0.00  0.00    +0.106 C 
ATOM     11  C   UNL     1      -0.805   3.287   2.078  0.00  0.00    -0.056 C 
ATOM     12  N   UNL     1      -1.715   2.341   1.405  0.00  0.00    +0.384 N 
ATOM     13  H   UNL     1      -1.682   1.440   1.895  0.00  0.00    -0.081 HD
ENDROOT
BRANCH   4  14
ATOM     14  C   UNL     1      -4.350   6.709   0.254  0.00  0.00    +0.250 C 
ATOM     15  O   UNL     1      -5.561   6.688   0.363  0.00  0.00    -0.270 OA
ATOM     16  N   UNL     1      -3.786   6.863  -0.961  0.00  0.00    -0.302 N 
ATOM     17  H   UNL     1      -2.823   6.806  -1.059  0.00  0.00    +0.150 HD
BRANCH  16  18
ATOM     18  C   UNL     1      -4.628   7.117  -2.132  0.00  0.00    +0.136 C 
ATOM     19  C   UNL     1      -5.131   5.787  -2.697  0.00  0.00    +0.036 C 
BRANCH  18  20
ATOM     20  C   UNL     1      -3.823   7.836  -3.183  0.00  0.00    +0.125 A 
ATOM     21  C   UNL     1      -4.264   8.841  -3.962  0.00  0.00    +0.046 A 
ATOM     22  C   UNL     1      -3.187   9.214  -4.798  0.00  0.00    +0.041 A 
ATOM     23  C   UNL     1      -2.152   8.416  -4.480  0.00  0.00    +0.195 A 
ATOM     24  O   UNL     1      -2.541   7.588  -3.498  0.00  0.00    -0.466 OA
ENDBRANCH  18  20
ENDBRANCH  16  18
ENDBRANCH   4  14
BRANCH   5  25
ATOM     25  O   UNL     1      -3.834   8.914   2.076  0.00  0.00    -0.494 OA
ATOM     26  C   UNL     1      -3.551   9.971   2.995  0.00  0.00    +0.277 C 
ENDBRANCH   5  25
BRANCH  12  27
ATOM     27  C   UNL     1      -1.290   2.142   0.002  0.00  0.00    -0.043 C 
BRANCH  27  32
ATOM     28  C   UNL     1       3.778  -0.633  -0.064  0.00  0.00    +0.044 C 
ATOM     29  C   UNL     1       2.456   0.091  -0.045  0.00  0.00    -0.048 A 
ATOM     30  C   UNL     1       1.275  -0.627  -0.041  0.00  0.00    +0.004 A 
ATOM     31  C   UNL     1       0.062   0.036  -0.024  0.00  0.00    +0.002 A 
ATOM     32  C   UNL     1       0.031   1.419  -0.010  0.00  0.00    -0.064 A 
ATOM     33  C   UNL     1       1.212   2.137  -0.013  0.00  0.00    +0.005 A 
ATOM     34  C   UNL     1       2.425   1.473  -0.032  0.00  0.00    -0.047 A 
ATOM     35  C   UNL     1       3.713   2.256  -0.036  0.00  0.00    +0.044 C 
ENDBRANCH  27  32
ENDBRANCH  12  27
TORSDOF 6
