REMARK  Name = ZINC44855456
REMARK  7 active torsions:
REMARK  status: ('A' for Active; 'I' for Inactive)
REMARK    1  A    between atoms: C_1  and  C_2
REMARK    2  A    between atoms: C_9  and  C_33
REMARK    3  A    between atoms: C_9  and  C_34
REMARK    4  A    between atoms: C_11  and  N_13
REMARK    5  A    between atoms: C_14  and  C_16
REMARK    6  A    between atoms: N_20  and  S_29
REMARK    7  A    between atoms: S_29  and  C_32
REMARK                            x       y       z     vdW  Elec       q    Type
REMARK                         _______ _______ _______ _____ _____    ______ ____
ROOT
ATOM      1  N   UNL     1      -0.851  -4.753  -1.100  0.00  0.00    -0.305 N 
ATOM      2  C   UNL     1      -0.438  -4.833  -2.381  0.00  0.00    +0.254 C 
ATOM      3  O   UNL     1       0.695  -4.515  -2.673  0.00  0.00    -0.272 OA
ATOM      4  H   UNL     1      -1.758  -5.007  -0.867  0.00  0.00    +0.149 HD
ENDROOT
BRANCH   1  15
ATOM      5  C   UNL     1      -0.018   1.503   0.010  0.00  0.00    +0.044 C 
ATOM      6  C   UNL     1       0.002  -0.004   0.002  0.00  0.00    -0.047 A 
ATOM      7  C   UNL     1       0.006  -0.689  -1.199  0.00  0.00    +0.004 A 
ATOM      8  C   UNL     1       0.026  -2.070  -1.206  0.00  0.00    +0.009 A 
ATOM      9  C   UNL     1       0.042  -2.775  -0.014  0.00  0.00    +0.015 A 
ATOM     10  C   UNL     1       0.035  -2.092   1.190  0.00  0.00    +0.126 A 
ATOM     11  C   UNL     1       0.023  -0.701   1.193  0.00  0.00    +0.049 A 
ATOM     12  O   UNL     1       0.038  -2.743   2.382  0.00  0.00    -0.486 OA
ATOM     13  C   UNL     1       0.424  -4.118   2.391  0.00  0.00    +0.107 C 
ATOM     14  C   UNL     1      -0.361  -4.848   1.294  0.00  0.00    +0.074 C 
ATOM     15  C   UNL     1       0.068  -4.282  -0.062  0.00  0.00    +0.111 C 
ATOM     16  C   UNL     1       1.924  -4.234   2.116  0.00  0.00    +0.055 C 
ATOM     17  C   UNL     1       0.100  -4.735   3.753  0.00  0.00    +0.055 C 
ENDBRANCH   1  15
BRANCH   2  18
ATOM     18  C   UNL     1      -1.384  -5.317  -3.449  0.00  0.00    +0.260 C 
ATOM     19  C   UNL     1      -2.540  -4.334  -3.575  0.00  0.00    +0.075 C 
ATOM     20  C   UNL     1      -3.627  -4.832  -4.509  0.00  0.00    +0.135 C 
ATOM     21  N   UNL     1      -3.104  -4.966  -5.876  0.00  0.00    -0.204 N 
ATOM     22  C   UNL     1      -2.382  -6.125  -6.196  0.00  0.00    +0.094 A 
ATOM     23  C   UNL     1      -2.874  -7.034  -7.118  0.00  0.00    +0.048 A 
ATOM     24  C   UNL     1      -2.146  -8.175  -7.410  0.00  0.00    +0.043 A 
ATOM     25  C   UNL     1      -0.934  -8.407  -6.784  0.00  0.00    +0.024 A 
ATOM     26  C   UNL     1      -0.439  -7.499  -5.864  0.00  0.00    +0.049 A 
ATOM     27  C   UNL     1      -1.161  -6.356  -5.571  0.00  0.00    +0.144 A 
ATOM     28  O   UNL     1      -0.675  -5.439  -4.680  0.00  0.00    -0.478 OA
ATOM     29 CL   UNL     1      -2.755  -9.318  -8.566  0.00  0.00    -0.083 Cl
BRANCH  21  30
ATOM     30  S   UNL     1      -3.360  -3.783  -7.005  0.00  0.00    +0.043 S 
ATOM     31  O   UNL     1      -3.300  -4.456  -8.255  0.00  0.00    -0.155 OA
ATOM     32  O   UNL     1      -4.554  -3.135  -6.588  0.00  0.00    -0.155 OA
ATOM     33  C   UNL     1      -1.946  -2.659  -6.832  0.00  0.00    +0.218 C 
ENDBRANCH  21  30
ENDBRANCH   2  18
TORSDOF 3
