REMARK  Name = ZINC12009058
REMARK  4 active torsions:
REMARK  status: ('A' for Active; 'I' for Inactive)
REMARK    1  A    between atoms: C_4  and  C_7
REMARK    2  A    between atoms: C_16  and  N_25
REMARK    3  A    between atoms: C_18  and  C_20
REMARK    4  A    between atoms: C_26  and  C_28
REMARK                            x       y       z     vdW  Elec       q    Type
REMARK                         _______ _______ _______ _____ _____    ______ ____
ROOT
ATOM      1  C   UNL     1      -3.473   3.303   5.815  0.00  0.00    +0.080 A 
ATOM      2  C   UNL     1      -3.949   3.399   7.114  0.00  0.00    +0.098 A 
ATOM      3  C   UNL     1      -3.531   2.445   8.056  0.00  0.00    +0.253 A 
ATOM      4  O   UNL     1      -3.928   2.494   9.209  0.00  0.00    -0.268 OA
ATOM      5  N   UNL     1      -2.687   1.468   7.661  0.00  0.00    -0.291 N 
ATOM      6  H   UNL     1      -2.391   0.798   8.297  0.00  0.00    +0.172 HD
ATOM      7  C   UNL     1      -2.247   1.424   6.375  0.00  0.00    +0.234 A 
ATOM      8  N   UNL     1      -2.632   2.312   5.487  0.00  0.00    -0.212 NA
ATOM      9  N   UNL     1      -1.378   0.419   5.992  0.00  0.00    -0.184 N 
ATOM     10  C   UNL     1      -0.857   0.242   4.742  0.00  0.00    +0.132 A 
ATOM     11  C   UNL     1      -0.058  -0.855   4.781  0.00  0.00    +0.077 A 
ATOM     12  C   UNL     1      -0.083  -1.361   6.098  0.00  0.00    +0.130 A 
ATOM     13  N   UNL     1      -0.878  -0.596   6.818  0.00  0.00    -0.159 NA
ENDROOT
BRANCH   1  17
ATOM     14  C   UNL     1      -4.677   6.139   2.886  0.00  0.00    +0.000 A 
ATOM     15  C   UNL     1      -3.808   5.119   2.542  0.00  0.00    +0.001 A 
ATOM     16  C   UNL     1      -3.413   4.195   3.488  0.00  0.00    +0.010 A 
ATOM     17  C   UNL     1      -3.892   4.292   4.795  0.00  0.00    +0.001 A 
ATOM     18  C   UNL     1      -4.771   5.320   5.135  0.00  0.00    +0.010 A 
ATOM     19  C   UNL     1      -5.154   6.240   4.181  0.00  0.00    +0.001 A 
ENDBRANCH   1  17
BRANCH  12  20
ATOM     20  C   UNL     1       0.651  -2.548   6.585  0.00  0.00    +0.155 A 
ATOM     21  C   UNL     1       0.627  -3.036   7.853  0.00  0.00    +0.051 A 
ATOM     22  C   UNL     1       1.463  -4.170   7.867  0.00  0.00    +0.042 A 
ATOM     23  C   UNL     1       1.958  -4.312   6.622  0.00  0.00    +0.196 A 
ATOM     24  O   UNL     1       1.465  -3.330   5.850  0.00  0.00    -0.461 OA
ENDBRANCH  12  20
BRANCH  10  25
ATOM     25  N   UNL     1      -1.105   1.039   3.627  0.00  0.00    -0.270 N 
ATOM     26  C   UNL     1      -0.520   0.748   2.448  0.00  0.00    +0.221 C 
ATOM     27  O   UNL     1       0.221  -0.207   2.357  0.00  0.00    -0.275 OA
ATOM     28  H   UNL     1      -1.698   1.803   3.700  0.00  0.00    +0.156 HD
BRANCH  26  29
ATOM     29  C   UNL     1      -0.789   1.611   1.242  0.00  0.00    +0.075 C 
ATOM     30  C   UNL     1      -0.013   1.086   0.008  0.00  0.00    +0.013 C 
ATOM     31  C   UNL     1      -0.809   1.622  -1.200  0.00  0.00    +0.001 C 
ATOM     32  C   UNL     1      -2.243   1.875  -0.703  0.00  0.00    +0.001 C 
ATOM     33  C   UNL     1      -2.268   1.485   0.789  0.00  0.00    +0.013 C 
ENDBRANCH  26  29
ENDBRANCH  10  25
TORSDOF 4
