REMARK  Name = ZINC08743250
REMARK  15 active torsions:
REMARK  status: ('A' for Active; 'I' for Inactive)
REMARK    1  A    between atoms: CD1_1  and  CG1_2
REMARK    2  A    between atoms: CG1_2  and  CB_3
REMARK    3  A    between atoms: CB_3  and  CG2_5
REMARK    4  A    between atoms: CB_3  and  CA_6
REMARK    5  A    between atoms: CA_6  and  C_8
REMARK    6  A    between atoms: CA_6  and  N_10
REMARK    7  A    between atoms: C_11  and  CA_13
REMARK    8  A    between atoms: CA_13  and  CB_15
REMARK    9  A    between atoms: CA_13  and  N_18
REMARK   10  A    between atoms: CB_15  and  CG1_16
REMARK   11  A    between atoms: CB_15  and  CG2_17
REMARK   12  A    between atoms: C_29  and  O_35
REMARK   13  A    between atoms: C_30  and  C_32
REMARK   14  A    between atoms: C_32  and  C_33
REMARK   15  A    between atoms: C_32  and  C_34
REMARK                            x       y       z     vdW  Elec       q    Type
REMARK                         _______ _______ _______ _____ _____    ______ ____
ROOT
ATOM      1  N   VAL A   1      -0.006   1.234  -4.804  0.00  0.00    -0.287 N 
ATOM      2  C   UNK A   0      -0.510   0.703  -5.935  0.00  0.00    +0.308 C 
ATOM      3  O   UNK A   0      -1.699   0.462  -6.017  0.00  0.00    -0.252 OA
ATOM      4  N   UNK A   0       0.304   0.438  -6.976  0.00  0.00    -0.241 N 
ATOM      5  C   UNK A   0      -0.201  -0.025  -8.201  0.00  0.00    +0.064 A 
ATOM      6  C   UNK A   0      -1.368  -0.756  -8.273  0.00  0.00    +0.026 A 
ATOM      7  C   UNK A   0      -1.830  -1.194  -9.501  0.00  0.00    +0.002 A 
ATOM      8  C   UNK A   0      -1.130  -0.899 -10.657  0.00  0.00    +0.002 A 
ATOM      9  C   UNK A   0       0.036  -0.161 -10.601  0.00  0.00    +0.030 A 
ATOM     10  C   UNK A   0       0.511   0.289  -9.371  0.00  0.00    +0.089 A 
ATOM     11  N   UNK A   0       1.661   1.027  -9.287  0.00  0.00    -0.214 NA
ATOM     12  C   UNK A   0       2.272   1.214  -8.161  0.00  0.00    +0.209 C 
ATOM     13  C   UNK A   0       1.762   0.616  -6.876  0.00  0.00    +0.171 C 
ATOM     14  H   VAL A   1       0.933   1.475  -4.757  0.00  0.00    +0.151 HD
ENDROOT
BRANCH  13  15
ATOM     15  C   UNK A   0       2.429  -0.741  -6.642  0.00  0.00    +0.013 C 
ATOM     16  C   UNK A   0       3.944  -0.554  -6.538  0.00  0.00    +0.009 C 
ATOM     17  C   UNK A   0       1.900  -1.352  -5.343  0.00  0.00    +0.009 C 
ENDBRANCH  13  15
BRANCH  12  18
ATOM     18  O   UNK A   0       3.395   1.962  -8.139  0.00  0.00    -0.494 OA
ATOM     19  H   UNK A   0       3.654   2.308  -9.003  0.00  0.00    +0.293 HD
ENDBRANCH  12  18
BRANCH   1  20
ATOM     20  CA  VAL A   1      -0.875   1.448  -3.644  0.00  0.00    +0.163 C 
BRANCH  20  22
ATOM     21  N   VAL A   1      -0.640   1.306  -1.186  0.00  0.00    -0.300 N 
ATOM     22  C   VAL A   1      -0.045   1.448  -2.387  0.00  0.00    +0.234 C 
ATOM     23  O   VAL A   1       1.159   1.577  -2.455  0.00  0.00    -0.274 OA
ATOM     24  H   VAL A   1      -1.593   1.131  -1.135  0.00  0.00    +0.150 HD
BRANCH  21  25
ATOM     25  CA  VAL A   1       0.152   1.414   0.041  0.00  0.00    +0.189 C 
BRANCH  25  26
ATOM     26  C   VAL A   1       0.778   0.080   0.355  0.00  0.00    +0.376 C 
ATOM     27  O   VAL A   1       0.350  -0.925  -0.163  0.00  0.00    -0.244 OA
ATOM     28  OXT VAL A   1       1.811   0.007   1.209  0.00  0.00    -0.244 OA
ENDBRANCH  25  26
BRANCH  25  29
ATOM     29  CB  VAL A   1      -0.756   1.836   1.198  0.00  0.00    +0.017 C 
ATOM     30  CG2 VAL A   1      -1.897   0.828   1.345  0.00  0.00    +0.010 C 
BRANCH  29  32
ATOM     31  CD1 VAL A   1      -2.136   3.701   2.126  0.00  0.00    +0.004 C 
ATOM     32  CG1 VAL A   1      -1.335   3.223   0.913  0.00  0.00    +0.002 C 
ENDBRANCH  29  32
ENDBRANCH  25  29
ENDBRANCH  21  25
ENDBRANCH  20  22
BRANCH  20  33
ATOM     33  CB  VAL A   1      -1.590   2.794  -3.784  0.00  0.00    +0.012 C 
ATOM     34  CG1 VAL A   1      -0.553   3.909  -3.932  0.00  0.00    +0.009 C 
ATOM     35  CG2 VAL A   1      -2.490   2.767  -5.021  0.00  0.00    +0.009 C 
ENDBRANCH  20  33
ENDBRANCH   1  20
TORSDOF 9
