REMARK  Name = ZINC16045435
REMARK  9 active torsions:
REMARK  status: ('A' for Active; 'I' for Inactive)
REMARK    1  A    between atoms: C_1  and  C_2
REMARK    2  A    between atoms: C_4  and  C_17
REMARK    3  A    between atoms: C_5  and  C_16
REMARK    4  A    between atoms: N_6  and  C_7
REMARK    5  A    between atoms: C_17  and  C_19
REMARK    6  A    between atoms: C_19  and  S_20
REMARK    7  A    between atoms: S_20  and  C_21
REMARK    8  A    between atoms: N_27  and  C_28
REMARK    9  A    between atoms: C_28  and  C_29
REMARK                            x       y       z     vdW  Elec       q    Type
REMARK                         _______ _______ _______ _____ _____    ______ ____
ROOT
ATOM      1  C   UNL     1      -6.008   4.856   2.948  0.00  0.00    +0.175 C 
ATOM      2  O   UNL     1      -5.911   5.428   1.882  0.00  0.00    -0.291 OA
ENDROOT
BRANCH   1   6
ATOM      3  C   UNL     1      -8.296   5.622   7.436  0.00  0.00    +0.064 C 
ATOM      4  C   UNL     1      -7.805   5.770   6.019  0.00  0.00    +0.022 A 
ATOM      5  C   UNL     1      -7.021   4.894   5.370  0.00  0.00    +0.034 A 
ATOM      6  C   UNL     1      -6.800   5.448   4.028  0.00  0.00    +0.039 A 
ATOM      7  C   UNL     1      -7.490   6.646   3.994  0.00  0.00    +0.031 A 
ATOM      8  N   UNL     1      -8.088   6.819   5.188  0.00  0.00    -0.317 N 
ATOM      9  C   UNL     1      -7.562   7.592   2.823  0.00  0.00    +0.064 C 
BRANCH   8  10
ATOM     10  C   UNL     1      -8.883   7.921   5.533  0.00  0.00    +0.050 A 
ATOM     11  C   UNL     1      -8.321   9.189   5.602  0.00  0.00    +0.030 A 
ATOM     12  C   UNL     1      -9.103  10.276   5.941  0.00  0.00    +0.051 A 
ATOM     13  C   UNL     1     -10.451  10.105   6.213  0.00  0.00    +0.166 A 
ATOM     14  C   UNL     1     -11.018   8.834   6.145  0.00  0.00    +0.168 A 
ATOM     15  C   UNL     1     -10.234   7.746   5.799  0.00  0.00    +0.075 A 
ATOM     16  O   UNL     1     -12.345   8.931   6.452  0.00  0.00    -0.453 OA
ATOM     17  C   UNL     1     -12.495  10.205   7.106  0.00  0.00    +0.466 C 
ATOM     18  O   UNL     1     -11.423  10.998   6.563  0.00  0.00    -0.453 OA
ENDBRANCH   8  10
ENDBRANCH   1   6
BRANCH   1  19
ATOM     19  C   UNL     1      -5.313   3.535   3.160  0.00  0.00    +0.157 C 
BRANCH  19  20
ATOM     20  S   UNL     1      -4.423   3.073   1.654  0.00  0.00    -0.078 S 
BRANCH  20  21
ATOM     21  C   UNL     1      -3.725   1.539   2.169  0.00  0.00    +0.193 A 
ATOM     22  N   UNL     1      -3.879   0.990   3.339  0.00  0.00    -0.145 NA
ATOM     23  N   UNL     1      -3.168  -0.218   3.349  0.00  0.00    -0.226 N 
ATOM     24  H   UNL     1      -3.162  -0.845   4.252  0.00  0.00    +0.194 HD
ATOM     25  C   UNL     1      -2.595  -0.358   2.136  0.00  0.00    +0.345 A 
ATOM     26  O   UNL     1      -1.901  -1.291   1.771  0.00  0.00    -0.245 OA
ATOM     27  N   UNL     1      -2.927   0.722   1.401  0.00  0.00    -0.266 N 
BRANCH  27  28
ATOM     28  C   UNL     1      -2.514   0.980   0.019  0.00  0.00    +0.164 C 
BRANCH  28  29
ATOM     29  C   UNL     1      -1.219   1.751   0.017  0.00  0.00    -0.028 A 
ATOM     30  C   UNL     1      -0.013   1.076   0.008  0.00  0.00    +0.005 A 
ATOM     31  C   UNL     1       1.175   1.783   0.000  0.00  0.00    +0.000 A 
ATOM     32  C   UNL     1       1.156   3.165   0.008  0.00  0.00    +0.000 A 
ATOM     33  C   UNL     1      -0.050   3.840   0.022  0.00  0.00    +0.000 A 
ATOM     34  C   UNL     1      -1.238   3.133   0.030  0.00  0.00    +0.005 A 
ENDBRANCH  28  29
ENDBRANCH  27  28
ENDBRANCH  20  21
ENDBRANCH  19  20
ENDBRANCH   1  19
TORSDOF 7
