REMARK  Name = ZINC08789927
REMARK  8 active torsions:
REMARK  status: ('A' for Active; 'I' for Inactive)
REMARK    1  A    between atoms: C_1  and  C_2
REMARK    2  A    between atoms: C_2  and  C_3
REMARK    3  A    between atoms: C_14  and  C_16
REMARK    4  A    between atoms: C_16  and  C_18
REMARK    5  A    between atoms: C_16  and  O_19
REMARK    6  A    between atoms: N_22  and  C_25
REMARK    7  A    between atoms: C_25  and  C_26
REMARK    8  A    between atoms: C_26  and  C_27
REMARK                            x       y       z     vdW  Elec       q    Type
REMARK                         _______ _______ _______ _____ _____    ______ ____
ROOT
ATOM      1  C   UNL     1       5.308   2.776   2.209  0.00  0.00    -0.047 A 
ATOM      2  C   UNL     1       5.848   4.049   2.230  0.00  0.00    +0.005 A 
ATOM      3  C   UNL     1       5.375   5.020   1.372  0.00  0.00    +0.024 A 
ATOM      4  C   UNL     1       4.348   4.725   0.478  0.00  0.00    +0.036 A 
ATOM      5  C   UNL     1       3.812   3.441   0.466  0.00  0.00    -0.027 A 
ATOM      6  C   UNL     1       4.288   2.474   1.324  0.00  0.00    +0.008 A 
ATOM      7  C   UNL     1       2.744   3.451  -0.590  0.00  0.00    +0.050 C 
ATOM      8  C   UNL     1       3.024   2.414  -1.685  0.00  0.00    +0.088 C 
ATOM      9  C   UNL     1       2.141   1.194  -1.302  0.00  0.00    +0.075 C 
ATOM     10  C   UNL     1       1.423   1.615  -0.003  0.00  0.00    -0.028 C 
ATOM     11  C   UNL     1       1.136   1.123  -2.429  0.00  0.00    +0.224 C 
ATOM     12  O   UNL     1       0.242   0.309  -2.521  0.00  0.00    -0.275 OA
ATOM     13  N   UNL     1       1.385   2.100  -3.309  0.00  0.00    -0.241 N 
ATOM     14  C   UNL     1       2.438   2.889  -2.995  0.00  0.00    +0.225 C 
ATOM     15  O   UNL     1       2.850   3.824  -3.648  0.00  0.00    -0.275 OA
ATOM     16  C   UNL     1       2.754   4.849  -1.143  0.00  0.00    +0.211 C 
ATOM     17  O   UNL     1       2.041   5.286  -2.022  0.00  0.00    -0.277 OA
ATOM     18  N   UNL     1       3.709   5.524  -0.473  0.00  0.00    -0.286 N 
ATOM     19  H   UNL     1       3.928   6.455  -0.634  0.00  0.00    +0.155 HD
ATOM     20  N   UNL     1       1.452   3.079  -0.041  0.00  0.00    +0.396 N 
ATOM     21  H   UNL     1       0.697   3.434  -0.640  0.00  0.00    -0.083 HD
ATOM     22  H   UNL     1       1.345   3.461   0.906  0.00  0.00    -0.083 HD
ENDROOT
BRANCH   1  24
ATOM     23  C   UNL     1       5.031   1.760   4.454  0.00  0.00    +0.009 C 
ATOM     24  C   UNL     1       5.829   1.720   3.150  0.00  0.00    +0.032 C 
ENDBRANCH   1  24
BRANCH  10  25
ATOM     25  C   UNL     1      -0.013   1.086   0.008  0.00  0.00    +0.098 C 
ATOM     26  C   UNL     1       0.006  -0.435   0.173  0.00  0.00    +0.036 C 
BRANCH  25  27
ATOM     27  O   UNL     1      -0.729   1.674   1.095  0.00  0.00    -0.394 OA
ATOM     28  H   UNL     1      -1.649   1.383   1.164  0.00  0.00    +0.210 HD
ENDBRANCH  25  27
ENDBRANCH  10  25
BRANCH  13  29
ATOM     29  C   UNL     1       0.586   2.298  -4.520  0.00  0.00    +0.121 C 
BRANCH  29  30
ATOM     30  C   UNL     1      -0.576   3.246  -4.215  0.00  0.00    +0.054 C 
BRANCH  30  31
ATOM     31  C   UNL     1      -1.398   3.450  -5.462  0.00  0.00    -0.046 A 
ATOM     32  C   UNL     1      -1.094   4.482  -6.330  0.00  0.00    +0.004 A 
ATOM     33  C   UNL     1      -1.846   4.666  -7.475  0.00  0.00    +0.000 A 
ATOM     34  C   UNL     1      -2.907   3.824  -7.748  0.00  0.00    +0.000 A 
ATOM     35  C   UNL     1      -3.215   2.795  -6.878  0.00  0.00    +0.000 A 
ATOM     36  C   UNL     1      -2.460   2.608  -5.734  0.00  0.00    +0.004 A 
ENDBRANCH  30  31
ENDBRANCH  29  30
ENDBRANCH  13  29
TORSDOF 6
