REMARK  Name = ZINC59418312
REMARK  5 active torsions:
REMARK  status: ('A' for Active; 'I' for Inactive)
REMARK    1  A    between atoms: C_1  and  N_2
REMARK    2  A    between atoms: N_2  and  C_3
REMARK    3  A    between atoms: N_2  and  C_4
REMARK    4  A    between atoms: C_7  and  C_11
REMARK    5  A    between atoms: N_12  and  N_13
REMARK                            x       y       z     vdW  Elec       q    Type
REMARK                         _______ _______ _______ _____ _____    ______ ____
ROOT
ATOM      1  N   UNL     1      -1.131  -3.824  -6.673  0.00  0.00    -0.205 N 
ATOM      2  C   UNL     1      -2.328  -4.178  -7.265  0.00  0.00    +0.241 A 
ATOM      3  N   UNL     1      -3.479  -3.855  -6.682  0.00  0.00    -0.180 NA
ATOM      4  C   UNL     1      -4.630  -4.196  -7.252  0.00  0.00    +0.224 A 
ATOM      5  N   UNL     1      -4.632  -4.858  -8.404  0.00  0.00    -0.181 NA
ATOM      6  C   UNL     1      -3.481  -5.181  -8.987  0.00  0.00    +0.224 A 
ATOM      7  N   UNL     1      -2.329  -4.836  -8.420  0.00  0.00    -0.180 NA
ATOM      8  N   UNL     1      -3.483  -5.869 -10.184  0.00  0.00    -0.299 N 
ATOM      9  C   UNL     1      -4.748  -6.247 -10.828  0.00  0.00    +0.108 C 
ATOM     10  C   UNL     1      -4.740  -5.729 -12.270  0.00  0.00    +0.019 C 
ATOM     11  C   UNL     1      -3.491  -6.246 -12.987  0.00  0.00    +0.003 C 
ATOM     12  C   UNL     1      -2.240  -5.720 -12.278  0.00  0.00    +0.019 C 
ATOM     13  C   UNL     1      -2.219  -6.233 -10.840  0.00  0.00    +0.108 C 
ATOM     14  N   UNL     1      -5.825  -3.861  -6.647  0.00  0.00    -0.299 N 
ATOM     15  C   UNL     1      -7.106  -4.236  -7.261  0.00  0.00    +0.108 C 
ATOM     16  C   UNL     1      -7.943  -4.999  -6.230  0.00  0.00    +0.019 C 
ATOM     17  C   UNL     1      -8.078  -4.154  -4.962  0.00  0.00    +0.003 C 
ATOM     18  C   UNL     1      -6.691  -3.900  -4.366  0.00  0.00    +0.019 C 
ATOM     19  C   UNL     1      -5.840  -3.129  -5.373  0.00  0.00    +0.108 C 
ATOM     20  H   UNL     1      -0.292  -4.056  -7.100  0.00  0.00    +0.177 HD
ENDROOT
BRANCH   1  22
ATOM     21  C   UNL     1      -0.005  -2.798  -4.900  0.00  0.00    +0.138 C 
ATOM     22  N   UNL     1      -1.130  -3.131  -5.456  0.00  0.00    -0.188 NA
BRANCH  21  26
ATOM     23  C   UNL     1       0.000  -0.695  -1.210  0.00  0.00    +0.043 A 
ATOM     24  C   UNL     1       1.204  -1.028  -1.822  0.00  0.00    +0.025 A 
ATOM     25  C   UNL     1       1.206  -1.710  -3.018  0.00  0.00    +0.011 A 
ATOM     26  C   UNL     1      -0.004  -2.068  -3.619  0.00  0.00    -0.004 A 
ATOM     27  C   UNL     1      -1.212  -1.733  -3.002  0.00  0.00    +0.026 A 
ATOM     28  C   UNL     1      -1.207  -1.056  -1.802  0.00  0.00    +0.039 A 
ATOM     29 BR   UNL     1      -2.841  -0.608  -0.962  0.00  0.00    -0.048 Br
BRANCH  23  31
ATOM     30  C   UNL     1      -0.018   1.461   0.010  0.00  0.00    +0.129 C 
ATOM     31  N   UNL     1       0.002  -0.004   0.002  0.00  0.00    -0.335 N 
ATOM     32  C   UNL     1       0.024  -0.743   1.267  0.00  0.00    +0.129 C 
ENDBRANCH  23  31
ENDBRANCH  21  26
ENDBRANCH   1  22
TORSDOF 3
