REMARK  Name = ZINC10471887
REMARK  14 active torsions:
REMARK  status: ('A' for Active; 'I' for Inactive)
REMARK    1  A    between atoms: C_1  and  C_2
REMARK    2  A    between atoms: C_2  and  C_3
REMARK    3  A    between atoms: C_2  and  C_4
REMARK    4  A    between atoms: C_7  and  O_11
REMARK    5  A    between atoms: O_11  and  C_12
REMARK    6  A    between atoms: C_12  and  C_13
REMARK    7  A    between atoms: N_15  and  N_16
REMARK    8  A    between atoms: N_16  and  C_17
REMARK    9  A    between atoms: C_17  and  N_19
REMARK   10  A    between atoms: C_20  and  C_22
REMARK   11  A    between atoms: C_26  and  O_28
REMARK   12  A    between atoms: O_28  and  C_29
REMARK   13  A    between atoms: C_29  and  C_30
REMARK   14  A    between atoms: C_29  and  C_31
REMARK                            x       y       z     vdW  Elec       q    Type
REMARK                         _______ _______ _______ _____ _____    ______ ____
ROOT
ATOM      1  N   UNL     1       2.268   7.972   0.910  0.00  0.00    -0.245 N 
ATOM      2  H   UNL     1       2.271   8.942   0.921  0.00  0.00    +0.172 HD
ENDROOT
BRANCH   1   5
ATOM      3  C   UNL     1       4.613   7.933   1.316  0.00  0.00    +0.267 C 
ATOM      4  O   UNL     1       4.617   9.145   1.330  0.00  0.00    -0.271 OA
ATOM      5  N   UNL     1       3.461   7.265   1.109  0.00  0.00    -0.232 N 
ATOM      6  H   UNL     1       3.457   6.295   1.099  0.00  0.00    +0.173 HD
BRANCH   3   7
ATOM      7  C   UNL     1       5.896   7.172   1.530  0.00  0.00    +0.326 C 
BRANCH   7   8
ATOM      8  O   UNL     1       6.970   8.095   1.726  0.00  0.00    -0.482 OA
BRANCH   8  12
ATOM      9  C   UNL     1      10.722   6.498   2.357  0.00  0.00    -0.044 A 
ATOM     10  C   UNL     1       9.639   5.661   2.161  0.00  0.00    +0.007 A 
ATOM     11  C   UNL     1       8.382   6.193   1.950  0.00  0.00    +0.047 A 
ATOM     12  C   UNL     1       8.206   7.569   1.934  0.00  0.00    +0.135 A 
ATOM     13  C   UNL     1       9.295   8.408   2.126  0.00  0.00    +0.060 A 
ATOM     14  C   UNL     1      10.550   7.870   2.342  0.00  0.00    +0.022 A 
ATOM     15 BR   UNL     1       9.061  10.284   2.098  0.00  0.00    -0.047 Br
BRANCH   9  17
ATOM     16  C   UNL     1      13.042   6.395   1.488  0.00  0.00    +0.012 C 
ATOM     17  C   UNL     1      12.092   5.914   2.587  0.00  0.00    +0.013 C 
ATOM     18  C   UNL     1      12.618   6.368   3.950  0.00  0.00    +0.012 C 
ENDBRANCH   9  17
ENDBRANCH   8  12
ENDBRANCH   7   8
ENDBRANCH   3   7
ENDBRANCH   1   5
BRANCH   1  19
ATOM     19  C   UNL     1       1.115   7.304   0.704  0.00  0.00    +0.153 C 
ATOM     20  S   UNL     1      -0.343   8.168   0.461  0.00  0.00    -0.017 S 
BRANCH  19  21
ATOM     21  N   UNL     1       1.111   5.956   0.689  0.00  0.00    -0.263 N 
ATOM     22  C   UNL     1      -0.042   5.289   0.482  0.00  0.00    +0.250 C 
ATOM     23  O   UNL     1      -1.077   5.902   0.309  0.00  0.00    -0.270 OA
ATOM     24  H   UNL     1       1.937   5.467   0.826  0.00  0.00    +0.157 HD
BRANCH  22  25
ATOM     25  C   UNL     1      -0.047   3.811   0.465  0.00  0.00    +0.041 A 
ATOM     26  C   UNL     1       1.141   3.104   0.663  0.00  0.00    +0.013 A 
ATOM     27  C   UNL     1       1.133   1.724   0.647  0.00  0.00    +0.004 A 
ATOM     28  C   UNL     1      -0.049   1.038   0.436  0.00  0.00    +0.046 A 
ATOM     29  C   UNL     1      -1.234   1.732   0.232  0.00  0.00    +0.122 A 
ATOM     30  C   UNL     1      -1.238   3.117   0.252  0.00  0.00    +0.058 A 
BRANCH  29  31
ATOM     31  O   UNL     1      -2.392   1.053   0.019  0.00  0.00    -0.489 OA
BRANCH  31  32
ATOM     32  C   UNL     1      -2.297  -0.368  -0.100  0.00  0.00    +0.167 C 
ATOM     33  C   UNL     1      -2.317  -1.000   1.294  0.00  0.00    +0.051 C 
ATOM     34  C   UNL     1      -3.482  -0.892  -0.914  0.00  0.00    +0.051 C 
ENDBRANCH  31  32
ENDBRANCH  29  31
ENDBRANCH  22  25
ENDBRANCH  19  21
ENDBRANCH   1  19
TORSDOF 10
