REMARK  Name = ZINC40986744
REMARK  14 active torsions:
REMARK  status: ('A' for Active; 'I' for Inactive)
REMARK    1  A    between atoms: C_1  and  C_2
REMARK    2  A    between atoms: C_2  and  C_3
REMARK    3  A    between atoms: C_3  and  C_4
REMARK    4  A    between atoms: C_4  and  S_5
REMARK    5  A    between atoms: S_5  and  C_6
REMARK    6  A    between atoms: C_11  and  C_20
REMARK    7  A    between atoms: C_13  and  C_17
REMARK    8  A    between atoms: C_14  and  C_16
REMARK    9  A    between atoms: C_22  and  O_30
REMARK   10  A    between atoms: C_23  and  O_27
REMARK   11  A    between atoms: O_27  and  C_28
REMARK   12  A    between atoms: C_28  and  C_29
REMARK   13  A    between atoms: O_30  and  C_31
REMARK   14  A    between atoms: C_31  and  C_32
REMARK                            x       y       z     vdW  Elec       q    Type
REMARK                         _______ _______ _______ _____ _____    ______ ____
ROOT
ATOM      1  C   UNL     1       1.132  -4.404  -2.843  0.00  0.00    +0.210 A 
ATOM      2  N   UNL     1       0.611  -5.089  -1.815  0.00  0.00    -0.187 NA
ATOM      3  C   UNL     1       0.917  -6.353  -1.932  0.00  0.00    +0.219 A 
ATOM      4  N   UNL     1       1.659  -6.504  -3.057  0.00  0.00    -0.220 N 
ATOM      5  N   UNL     1       1.776  -5.239  -3.631  0.00  0.00    -0.141 NA
ATOM      6  C   UNL     1       2.192  -7.787  -3.507  0.00  0.00    +0.177 C 
ATOM      7  C   UNL     1       1.551  -8.899  -2.720  0.00  0.00    +0.060 C 
ATOM      8  C   UNL     1       0.823  -8.689  -1.614  0.00  0.00    +0.018 C 
ATOM      9  N   UNL     1       0.596  -7.429  -1.117  0.00  0.00    -0.287 N 
ATOM     10  C   UNL     1       0.235  -9.874  -0.893  0.00  0.00    +0.061 C 
ATOM     11  H   UNL     1       0.225  -7.297  -0.230  0.00  0.00    +0.155 HD
ENDROOT
BRANCH   6  12
ATOM     12  C   UNL     1       3.683  -7.814  -3.292  0.00  0.00    -0.014 A 
ATOM     13  C   UNL     1       4.532  -7.982  -4.371  0.00  0.00    +0.055 A 
ATOM     14  C   UNL     1       5.904  -8.008  -4.176  0.00  0.00    +0.163 A 
ATOM     15  C   UNL     1       6.424  -7.863  -2.893  0.00  0.00    +0.176 A 
ATOM     16  C   UNL     1       5.568  -7.694  -1.817  0.00  0.00    +0.063 A 
ATOM     17  C   UNL     1       4.200  -7.665  -2.019  0.00  0.00    +0.025 A 
ATOM     18 BR   UNL     1       6.271  -7.497  -0.072  0.00  0.00    -0.046 Br
BRANCH  15  19
ATOM     19  O   UNL     1       7.770  -7.888  -2.697  0.00  0.00    -0.487 OA
BRANCH  19  20
ATOM     20  C   UNL     1       8.458  -6.637  -2.765  0.00  0.00    +0.226 C 
ATOM     21  C   UNL     1       9.952  -6.864  -2.521  0.00  0.00    +0.048 C 
ENDBRANCH  19  20
ENDBRANCH  15  19
BRANCH  14  22
ATOM     22  O   UNL     1       6.739  -8.174  -5.236  0.00  0.00    -0.489 OA
BRANCH  22  23
ATOM     23  C   UNL     1       6.135  -8.317  -6.523  0.00  0.00    +0.226 C 
ATOM     24  C   UNL     1       7.225  -8.493  -7.582  0.00  0.00    +0.048 C 
ENDBRANCH  22  23
ENDBRANCH  14  22
ENDBRANCH   6  12
BRANCH   7  25
ATOM     25  C   UNL     1       1.725 -10.230  -3.170  0.00  0.00    +0.241 C 
ATOM     26  O   UNL     1       1.120 -10.625  -4.150  0.00  0.00    -0.271 OA
ATOM     27  N   UNL     1       2.561 -11.059  -2.514  0.00  0.00    -0.325 N 
ATOM     28  H   UNL     1       3.043 -10.744  -1.734  0.00  0.00    +0.145 HD
ATOM     29  H   UNL     1       2.680 -11.971  -2.822  0.00  0.00    +0.145 HD
ENDBRANCH   7  25
BRANCH   1  30
ATOM     30  S   UNL     1       0.972  -2.669  -3.103  0.00  0.00    -0.084 S 
BRANCH  30  31
ATOM     31  C   UNL     1      -0.013  -2.103  -1.689  0.00  0.00    +0.077 C 
BRANCH  31  32
ATOM     32  C   UNL     1      -0.229  -0.591  -1.791  0.00  0.00    +0.011 C 
BRANCH  32  34
ATOM     33  C   UNL     1      -1.277   1.398  -0.700  0.00  0.00    +0.004 C 
ATOM     34  C   UNL     1      -1.060  -0.114  -0.599  0.00  0.00    -0.003 C 
ENDBRANCH  32  34
ENDBRANCH  31  32
ENDBRANCH  30  31
ENDBRANCH   1  30
TORSDOF 10
