REMARK  Name = ZINC13064561
REMARK  16 active torsions:
REMARK  status: ('A' for Active; 'I' for Inactive)
REMARK    1  A    between atoms: C_1  and  C_2
REMARK    2  A    between atoms: C_2  and  C_3
REMARK    3  A    between atoms: C_3  and  C_5
REMARK    4  A    between atoms: C_3  and  N_72
REMARK    5  A    between atoms: N_9  and  C_10
REMARK    6  A    between atoms: C_10  and  C_11
REMARK    7  A    between atoms: C_10  and  C_12
REMARK    8  A    between atoms: C_10  and  C_13
REMARK    9  A    between atoms: C_14  and  C_15
REMARK   10  A    between atoms: C_14  and  N_72
REMARK   11  A    between atoms: C_20  and  O_21
REMARK   12  A    between atoms: O_21  and  C_22
REMARK   13  A    between atoms: C_23  and  C_24
REMARK   14  A    between atoms: C_23  and  N_72
REMARK   15  A    between atoms: C_28  and  C_37
REMARK   16  A    between atoms: C_29  and  C_36
REMARK                            x       y       z     vdW  Elec       q    Type
REMARK                         _______ _______ _______ _____ _____    ______ ____
ROOT
ATOM      1  N   UNL     1      -0.227   4.146  -1.108  0.00  0.00    +0.392 N 
ATOM      2  H   UNL     1       0.760   4.388  -0.961  0.00  0.00    -0.080 HD
ENDROOT
BRANCH   1   3
ATOM      3  C   UNL     1      -0.397   2.690  -0.919  0.00  0.00    +0.003 C 
BRANCH   3   4
ATOM      4  C   UNL     1       0.671   2.201   0.025  0.00  0.00    +0.139 A 
ATOM      5  N   UNL     1       1.191   2.864   1.029  0.00  0.00    -0.115 NA
ATOM      6  N   UNL     1       2.069   2.108   1.593  0.00  0.00    -0.023 NA
ATOM      7  N   UNL     1       2.123   0.980   0.974  0.00  0.00    -0.043 NA
ATOM      8  N   UNL     1       1.272   0.997   0.004  0.00  0.00    -0.226 N 
BRANCH   8   9
ATOM      9  C   UNL     1       1.011  -0.090  -0.943  0.00  0.00    +0.059 C 
ATOM     10  C   UNL     1       1.495   0.320  -2.335  0.00  0.00    +0.036 C 
ATOM     11  C   UNL     1       1.756  -1.348  -0.494  0.00  0.00    +0.036 C 
ATOM     12  C   UNL     1      -0.491  -0.376  -0.990  0.00  0.00    +0.036 C 
ENDBRANCH   8   9
ENDBRANCH   3   4
BRANCH   3  14
ATOM     13  C   UNL     1      -2.861   2.875  -1.293  0.00  0.00    +0.002 C 
ATOM     14  C   UNL     1      -1.776   2.388  -0.330  0.00  0.00    -0.011 C 
ENDBRANCH   3  14
ENDBRANCH   1   3
BRANCH   1  15
ATOM     15  C   UNL     1      -0.615   4.526  -2.482  0.00  0.00    -0.038 C 
BRANCH  15  16
ATOM     16  C   UNL     1       0.404   3.973  -3.445  0.00  0.00    -0.022 A 
ATOM     17  C   UNL     1       1.594   4.644  -3.653  0.00  0.00    +0.005 A 
ATOM     18  C   UNL     1       2.531   4.135  -4.533  0.00  0.00    +0.000 A 
ATOM     19  C   UNL     1       2.276   2.959  -5.215  0.00  0.00    +0.004 A 
ATOM     20  C   UNL     1       1.085   2.288  -5.014  0.00  0.00    +0.046 A 
ATOM     21  C   UNL     1       0.145   2.794  -4.128  0.00  0.00    +0.121 A 
BRANCH  21  22
ATOM     22  O   UNL     1      -1.027   2.135  -3.929  0.00  0.00    -0.495 OA
ATOM     23  C   UNL     1      -1.200   0.897  -4.621  0.00  0.00    +0.277 C 
ENDBRANCH  21  22
ENDBRANCH  15  16
ENDBRANCH   1  15
BRANCH   1  24
ATOM     24  C   UNL     1      -1.052   4.883  -0.128  0.00  0.00    -0.036 C 
BRANCH  24  25
ATOM     25  C   UNL     1      -0.207   5.176   1.085  0.00  0.00    +0.001 A 
ATOM     26  C   UNL     1       0.498   6.332   1.153  0.00  0.00    +0.017 A 
ATOM     27  C   UNL     1       1.306   6.590   2.347  0.00  0.00    -0.001 A 
ATOM     28  C   UNL     1       2.050   7.767   2.478  0.00  0.00    +0.013 A 
ATOM     29  C   UNL     1       2.797   7.975   3.602  0.00  0.00    -0.047 A 
ATOM     30  C   UNL     1       2.825   7.028   4.617  0.00  0.00    -0.046 A 
ATOM     31  C   UNL     1       2.099   5.861   4.510  0.00  0.00    +0.030 A 
ATOM     32  C   UNL     1       1.331   5.627   3.374  0.00  0.00    +0.049 A 
ATOM     33  N   UNL     1       0.595   4.469   3.241  0.00  0.00    -0.322 N 
ATOM     34  H   UNL     1       0.613   3.807   3.950  0.00  0.00    +0.169 HD
ATOM     35  C   UNL     1      -0.148   4.244   2.143  0.00  0.00    +0.251 A 
ATOM     36  O   UNL     1      -0.786   3.209   2.060  0.00  0.00    -0.268 OA
ATOM     37  C   UNL     1       3.657   7.278   5.848  0.00  0.00    +0.044 C 
ATOM     38  C   UNL     1       3.599   9.243   3.742  0.00  0.00    +0.044 C 
ENDBRANCH  24  25
ENDBRANCH   1  24
TORSDOF 9
