REMARK  Name = ZINC09692997
REMARK  8 active torsions:
REMARK  status: ('A' for Active; 'I' for Inactive)
REMARK    1  A    between atoms: C_1  and  C_2
REMARK    2  A    between atoms: C_5  and  C_37
REMARK    3  A    between atoms: C_6  and  C_8
REMARK    4  A    between atoms: C_8  and  N_9
REMARK    5  A    between atoms: C_17  and  C_21
REMARK    6  A    between atoms: C_21  and  C_23
REMARK    7  A    between atoms: C_21  and  C_24
REMARK    8  A    between atoms: N_29  and  C_32
REMARK                            x       y       z     vdW  Elec       q    Type
REMARK                         _______ _______ _______ _____ _____    ______ ____
ROOT
ATOM      1  N   UNL     1       2.044   2.153   0.086  0.00  0.00    -0.265 N 
ATOM      2  C   UNL     1       0.865   2.865   0.285  0.00  0.00    +0.050 A 
ATOM      3  C   UNL     1       0.914   4.248   0.419  0.00  0.00    +0.024 A 
ATOM      4  C   UNL     1      -0.246   4.971   0.612  0.00  0.00    +0.002 A 
ATOM      5  C   UNL     1      -1.470   4.329   0.675  0.00  0.00    +0.001 A 
ATOM      6  C   UNL     1      -1.534   2.953   0.551  0.00  0.00    +0.016 A 
ATOM      7  C   UNL     1      -0.373   2.224   0.353  0.00  0.00    +0.030 A 
ATOM      8  S   UNL     1      -0.441   0.467   0.189  0.00  0.00    -0.110 S 
ATOM      9  C   UNL     1       1.165  -0.054   0.865  0.00  0.00    +0.149 C 
ATOM     10  C   UNL     1       2.234   0.859   0.330  0.00  0.00    +0.234 C 
ATOM     11  O   UNL     1       3.330   0.389   0.109  0.00  0.00    -0.274 OA
ENDROOT
BRANCH   9  12
ATOM     12  C   UNL     1       1.130   0.031   2.392  0.00  0.00    +0.094 C 
ATOM     13  C   UNL     1       2.518  -0.288   2.952  0.00  0.00    +0.019 C 
BRANCH  12  14
ATOM     14  C   UNL     1       0.132  -0.963   2.928  0.00  0.00    +0.220 C 
ATOM     15  O   UNL     1      -0.377  -1.773   2.183  0.00  0.00    -0.275 OA
ATOM     16  N   UNL     1      -0.194  -0.952   4.236  0.00  0.00    -0.298 N 
ATOM     17  C   UNL     1       0.361   0.063   5.144  0.00  0.00    +0.126 C 
ATOM     18  C   UNL     1      -0.803   0.711   5.911  0.00  0.00    +0.125 C 
ATOM     19  N   UNL     1      -1.597  -0.338   6.564  0.00  0.00    -0.314 N 
ATOM     20  C   UNL     1      -2.211  -1.234   5.576  0.00  0.00    +0.125 C 
ATOM     21  C   UNL     1      -1.110  -1.958   4.794  0.00  0.00    +0.126 C 
BRANCH  19  22
ATOM     22  C   UNL     1      -2.559   0.214   7.402  0.00  0.00    +0.099 A 
ATOM     23  C   UNL     1      -2.173   1.093   8.409  0.00  0.00    +0.042 A 
ATOM     24  C   UNL     1      -3.141   1.635   9.235  0.00  0.00    +0.005 A 
ATOM     25  C   UNL     1      -4.467   1.278   9.026  0.00  0.00    +0.018 A 
ATOM     26  C   UNL     1      -4.778   0.400   8.008  0.00  0.00    +0.084 A 
ATOM     27  N   UNL     1      -3.854  -0.147   7.173  0.00  0.00    -0.350 N 
ATOM     28  H   UNL     1      -4.116  -0.792   6.418  0.00  0.00    +0.166 HD
ENDBRANCH  19  22
ENDBRANCH  12  14
ENDBRANCH   9  12
BRANCH   1  29
ATOM     29  C   UNL     1       3.187   2.901  -0.444  0.00  0.00    +0.149 C 
BRANCH  29  35
ATOM     30  C   UNL     1       4.037   3.315   4.471  0.00  0.00    +0.044 C 
ATOM     31  C   UNL     1       4.394   3.668   3.050  0.00  0.00    -0.050 A 
ATOM     32  C   UNL     1       5.457   4.515   2.795  0.00  0.00    +0.003 A 
ATOM     33  C   UNL     1       5.785   4.839   1.492  0.00  0.00    +0.004 A 
ATOM     34  C   UNL     1       5.051   4.316   0.444  0.00  0.00    -0.046 A 
ATOM     35  C   UNL     1       3.988   3.470   0.699  0.00  0.00    -0.027 A 
ATOM     36  C   UNL     1       3.656   3.150   2.002  0.00  0.00    +0.008 A 
ATOM     37  C   UNL     1       5.408   4.670  -0.977  0.00  0.00    +0.044 C 
ENDBRANCH  29  35
ENDBRANCH   1  29
TORSDOF 5
