REMARK  Name = ZINC15034114
REMARK  10 active torsions:
REMARK  status: ('A' for Active; 'I' for Inactive)
REMARK    1  A    between atoms: C_1  and  C_2
REMARK    2  A    between atoms: C_2  and  C_3
REMARK    3  A    between atoms: C_2  and  N_4
REMARK    4  A    between atoms: N_4  and  C_5
REMARK    5  A    between atoms: N_4  and  S_6
REMARK    6  A    between atoms: S_6  and  C_9
REMARK    7  A    between atoms: C_12  and  N_15
REMARK    8  A    between atoms: C_16  and  C_18
REMARK    9  A    between atoms: C_18  and  N_62
REMARK   10  A    between atoms: C_26  and  C_28
REMARK                            x       y       z     vdW  Elec       q    Type
REMARK                         _______ _______ _______ _____ _____    ______ ____
ROOT
ATOM      1  N   UNL     1       5.667  -1.609  -2.998  0.00  0.00    -0.287 N 
ATOM      2  C   UNL     1       6.260  -0.736  -3.837  0.00  0.00    +0.201 C 
ATOM      3  O   UNL     1       5.673   0.267  -4.184  0.00  0.00    -0.278 OA
ATOM      4  H   UNL     1       6.160  -2.377  -2.670  0.00  0.00    +0.155 HD
ENDROOT
BRANCH   1   8
ATOM      5  C   UNL     1       1.719  -1.007  -1.815  0.00  0.00    +0.106 A 
ATOM      6  C   UNL     1       2.195  -2.292  -2.001  0.00  0.00    +0.030 A 
ATOM      7  C   UNL     1       3.502  -2.494  -2.398  0.00  0.00    +0.025 A 
ATOM      8  C   UNL     1       4.341  -1.407  -2.601  0.00  0.00    +0.033 A 
ATOM      9  C   UNL     1       3.861  -0.118  -2.408  0.00  0.00    +0.025 A 
ATOM     10  C   UNL     1       2.552   0.079  -2.015  0.00  0.00    +0.030 A 
BRANCH   5  11
ATOM     11  S   UNL     1       0.049  -0.752  -1.313  0.00  0.00    +0.061 S 
ATOM     12  O   UNL     1       0.005   0.516  -0.674  0.00  0.00    -0.153 OA
ATOM     13  O   UNL     1      -0.367  -1.946  -0.665  0.00  0.00    -0.153 OA
BRANCH  11  14
ATOM     14  N   UNL     1      -0.861  -0.620  -2.691  0.00  0.00    -0.177 NA
ATOM     15  C   UNL     1      -1.454  -1.815  -3.295  0.00  0.00    +0.132 C 
BRANCH  14  17
ATOM     16  C   UNL     1      -0.518   0.686  -4.730  0.00  0.00    +0.025 C 
ATOM     17  C   UNL     1      -1.074   0.693  -3.305  0.00  0.00    +0.073 C 
ATOM     18  C   UNL     1      -2.572   1.002  -3.343  0.00  0.00    +0.025 C 
ENDBRANCH  14  17
ENDBRANCH  11  14
ENDBRANCH   5  11
ENDBRANCH   1   8
BRANCH   2  19
ATOM     19  C   UNL     1       7.653  -1.006  -4.345  0.00  0.00    +0.020 C 
BRANCH  19  28
ATOM     20  C   UNL     1       7.246   0.350  -6.309  0.00  0.00    -0.072 C 
ATOM     21  C   UNL     1       7.977   1.258  -7.312  0.00  0.00    +0.024 C 
ATOM     22  C   UNL     1       8.552   2.408  -6.551  0.00  0.00    -0.010 A 
ATOM     23  C   UNL     1       8.689   2.500  -5.198  0.00  0.00    -0.047 A 
ATOM     24  C   UNL     1       9.254   3.676  -4.709  0.00  0.00    +0.010 A 
ATOM     25  C   UNL     1       9.635   4.651  -5.567  0.00  0.00    +0.045 A 
ATOM     26  S   UNL     1       9.203   3.941  -7.149  0.00  0.00    -0.101 S 
ATOM     27  C   UNL     1       8.231   1.344  -4.314  0.00  0.00    -0.005 C 
ATOM     28  N   UNL     1       8.146   0.125  -5.153  0.00  0.00    +0.393 N 
ATOM     29  H   UNL     1       9.085  -0.100  -5.504  0.00  0.00    -0.080 HD
BRANCH  27  30
ATOM     30  C   UNL     1       9.242   1.112  -3.221  0.00  0.00    -0.057 A 
ATOM     31  C   UNL     1      10.403   0.412  -3.491  0.00  0.00    +0.002 A 
ATOM     32  C   UNL     1      11.333   0.202  -2.490  0.00  0.00    +0.000 A 
ATOM     33  C   UNL     1      11.097   0.684  -1.216  0.00  0.00    +0.000 A 
ATOM     34  C   UNL     1       9.934   1.380  -0.945  0.00  0.00    +0.000 A 
ATOM     35  C   UNL     1       9.006   1.593  -1.947  0.00  0.00    +0.002 A 
ENDBRANCH  27  30
ENDBRANCH  19  28
ENDBRANCH   2  19
TORSDOF 7
