REMARK  Name = ZINC20611120
REMARK  3 active torsions:
REMARK  status: ('A' for Active; 'I' for Inactive)
REMARK    1  A    between atoms: C_7  and  C_11
REMARK    2  A    between atoms: C_11  and  C_12
REMARK    3  A    between atoms: N_20  and  C_23
REMARK                            x       y       z     vdW  Elec       q    Type
REMARK                         _______ _______ _______ _____ _____    ______ ____
ROOT
ATOM      1  C   UNL     1       0.175  -3.578  -1.425  0.00  0.00    +0.072 C 
ATOM      2  C   UNL     1      -0.715  -4.838  -1.466  0.00  0.00    +0.108 C 
ATOM      3  C   UNL     1       0.259  -6.003  -1.799  0.00  0.00    +0.123 C 
ATOM      4  C   UNL     1      -0.214  -6.474  -3.156  0.00  0.00    +0.233 C 
ATOM      5  O   UNL     1       0.271  -7.388  -3.789  0.00  0.00    -0.274 OA
ATOM      6  N   UNL     1      -1.251  -5.726  -3.550  0.00  0.00    -0.210 N 
ATOM      7  C   UNL     1      -1.625  -4.769  -2.671  0.00  0.00    +0.232 C 
ATOM      8  O   UNL     1      -2.534  -3.980  -2.817  0.00  0.00    -0.274 OA
ATOM      9  C   UNL     1       1.633  -5.335  -1.920  0.00  0.00    +0.136 C 
ATOM     10  N   UNL     1       1.360  -3.916  -2.256  0.00  0.00    -0.295 NA
ATOM     11  C   UNL     1       2.474  -5.985  -2.981  0.00  0.00    +0.003 A 
ATOM     12  C   UNL     1       2.309  -6.183  -4.334  0.00  0.00    +0.008 A 
ATOM     13  C   UNL     1       3.288  -6.832  -5.064  0.00  0.00    +0.000 A 
ATOM     14  C   UNL     1       4.433  -7.282  -4.432  0.00  0.00    +0.002 A 
ATOM     15  C   UNL     1       4.603  -7.088  -3.077  0.00  0.00    +0.023 A 
ATOM     16  C   UNL     1       3.622  -6.435  -2.334  0.00  0.00    +0.039 A 
ATOM     17  N   UNL     1       3.563  -6.124  -0.974  0.00  0.00    -0.283 N 
ATOM     18  C   UNL     1       2.427  -5.477  -0.650  0.00  0.00    +0.243 C 
ATOM     19  O   UNL     1       2.106  -5.085   0.452  0.00  0.00    -0.273 OA
ATOM     20  H   UNL     1       1.158  -3.800  -3.238  0.00  0.00    +0.124 HD
ATOM     21  H   UNL     1       4.260  -6.347  -0.337  0.00  0.00    +0.155 HD
ENDROOT
BRANCH   6  22
ATOM     22  C   UNL     1      -1.905  -5.922  -4.775  0.00  0.00    +0.044 A 
ATOM     23  C   UNL     1      -2.642  -7.078  -4.993  0.00  0.00    +0.025 A 
ATOM     24  C   UNL     1      -3.285  -7.268  -6.200  0.00  0.00    +0.022 A 
ATOM     25  C   UNL     1      -3.196  -6.308  -7.192  0.00  0.00    +0.041 A 
ATOM     26  C   UNL     1      -2.462  -5.154  -6.977  0.00  0.00    +0.022 A 
ATOM     27  C   UNL     1      -1.822  -4.957  -5.769  0.00  0.00    +0.025 A 
ATOM     28 CL   UNL     1      -4.006  -6.550  -8.708  0.00  0.00    -0.084 Cl
ENDBRANCH   6  22
BRANCH   1  29
ATOM     29  C   UNL     1       0.603  -3.276   0.013  0.00  0.00    +0.056 C 
BRANCH  29  36
ATOM     30  C   UNL     1      -3.508  -3.843   2.193  0.00  0.00    +0.001 A 
ATOM     31  C   UNL     1      -4.068  -2.643   2.613  0.00  0.00    +0.002 A 
ATOM     32  C   UNL     1      -3.425  -1.448   2.377  0.00  0.00    +0.026 A 
ATOM     33  C   UNL     1      -2.203  -1.440   1.714  0.00  0.00    +0.047 A 
ATOM     34  C   UNL     1      -1.640  -2.657   1.291  0.00  0.00    +0.003 A 
ATOM     35  C   UNL     1      -2.309  -3.858   1.540  0.00  0.00    +0.010 A 
ATOM     36  C   UNL     1      -0.375  -2.313   0.636  0.00  0.00    -0.021 A 
ATOM     37  C   UNL     1      -0.253  -0.978   0.697  0.00  0.00    +0.087 A 
ATOM     38  N   UNL     1      -1.335  -0.439   1.337  0.00  0.00    -0.360 N 
ATOM     39  H   UNL     1      -1.471   0.507   1.502  0.00  0.00    +0.165 HD
ENDBRANCH  29  36
ENDBRANCH   1  29
TORSDOF 3
