REMARK  Name = ZINC49507900
REMARK  10 active torsions:
REMARK  status: ('A' for Active; 'I' for Inactive)
REMARK    1  A    between atoms: C_1  and  C_2
REMARK    2  A    between atoms: C_2  and  C_3
REMARK    3  A    between atoms: C_2  and  C_4
REMARK    4  A    between atoms: C_4  and  C_5
REMARK    5  A    between atoms: C_5  and  N_6
REMARK    6  A    between atoms: C_9  and  N_20
REMARK    7  A    between atoms: C_15  and  C_18
REMARK    8  A    between atoms: C_15  and  C_19
REMARK    9  A    between atoms: C_21  and  C_23
REMARK   10  A    between atoms: C_25  and  C_29
REMARK                            x       y       z     vdW  Elec       q    Type
REMARK                         _______ _______ _______ _____ _____    ______ ____
ROOT
ATOM      1  N   UNL     1      -2.968  -2.977  -0.023  0.00  0.00    -0.268 N 
ATOM      2  C   UNL     1      -3.664  -3.300   1.150  0.00  0.00    +0.080 A 
ATOM      3  C   UNL     1      -3.579  -2.485   2.266  0.00  0.00    +0.050 A 
ATOM      4  C   UNL     1      -4.271  -2.822   3.422  0.00  0.00    +0.036 A 
ATOM      5  C   UNL     1      -5.045  -3.975   3.456  0.00  0.00    +0.027 A 
ATOM      6  C   UNL     1      -5.131  -4.788   2.342  0.00  0.00    +0.049 A 
ATOM      7  C   UNL     1      -4.445  -4.454   1.186  0.00  0.00    +0.142 A 
ATOM      8  O   UNL     1      -4.535  -5.241   0.081  0.00  0.00    -0.489 OA
ATOM      9  C   UNL     1      -5.350  -4.771  -0.990  0.00  0.00    +0.244 C 
ATOM     10  C   UNL     1      -5.100  -3.285  -1.238  0.00  0.00    +0.076 C 
ATOM     11  C   UNL     1      -3.622  -2.992  -1.206  0.00  0.00    +0.229 C 
ATOM     12  O   UNL     1      -3.022  -2.774  -2.237  0.00  0.00    -0.275 OA
ATOM     13  C   UNL     1      -5.663  -2.897  -2.606  0.00  0.00    +0.024 C 
ATOM     14  C   UNL     1      -5.800  -2.464  -0.153  0.00  0.00    +0.024 C 
ENDROOT
BRANCH   4  15
ATOM     15  N   UNL     1      -4.188  -2.001   4.553  0.00  0.00    -0.280 N 
ATOM     16  C   UNL     1      -5.263  -1.839   5.349  0.00  0.00    +0.266 C 
ATOM     17  O   UNL     1      -6.279  -2.474   5.135  0.00  0.00    -0.268 OA
ATOM     18  H   UNL     1      -3.356  -1.548   4.763  0.00  0.00    +0.155 HD
BRANCH  16  19
ATOM     19  C   UNL     1      -5.209  -0.896   6.477  0.00  0.00    +0.121 A 
ATOM     20  C   UNL     1      -6.220  -0.626   7.378  0.00  0.00    +0.065 A 
ATOM     21  C   UNL     1      -5.686   0.336   8.259  0.00  0.00    +0.128 A 
ATOM     22  N   UNL     1      -4.452   0.587   7.871  0.00  0.00    -0.170 NA
ATOM     23  N   UNL     1      -4.146  -0.118   6.841  0.00  0.00    -0.272 N 
ATOM     24  H   UNL     1      -3.288  -0.099   6.389  0.00  0.00    +0.189 HD
BRANCH  21  25
ATOM     25  C   UNL     1      -6.384   0.952   9.408  0.00  0.00    +0.155 A 
ATOM     26  C   UNL     1      -5.864   1.883  10.250  0.00  0.00    +0.051 A 
ATOM     27  C   UNL     1      -6.870   2.185  11.192  0.00  0.00    +0.042 A 
ATOM     28  C   UNL     1      -7.941   1.431  10.880  0.00  0.00    +0.196 A 
ATOM     29  O   UNL     1      -7.646   0.691   9.799  0.00  0.00    -0.461 OA
ENDBRANCH  21  25
ENDBRANCH  16  19
ENDBRANCH   4  15
BRANCH   1  30
ATOM     30  C   UNL     1      -1.548  -2.622   0.033  0.00  0.00    +0.114 C 
BRANCH  30  31
ATOM     31  C   UNL     1      -1.408  -1.111   0.231  0.00  0.00    +0.022 C 
BRANCH  31  33
ATOM     32  C   UNL     1       0.217   0.782   0.362  0.00  0.00    +0.007 C 
ATOM     33  C   UNL     1       0.075  -0.740   0.289  0.00  0.00    -0.016 C 
ATOM     34  C   UNL     1       0.711  -1.371   1.530  0.00  0.00    +0.007 C 
ENDBRANCH  31  33
ENDBRANCH  30  31
ENDBRANCH   1  30
TORSDOF 6
