REMARK  Name = ZINC21918426
REMARK  5 active torsions:
REMARK  status: ('A' for Active; 'I' for Inactive)
REMARK    1  A    between atoms: C_1  and  O_2
REMARK    2  A    between atoms: O_2  and  C_3
REMARK    3  A    between atoms: C_3  and  C_5
REMARK    4  A    between atoms: C_9  and  N_11
REMARK    5  A    between atoms: C_26  and  C_28
REMARK                            x       y       z     vdW  Elec       q    Type
REMARK                         _______ _______ _______ _____ _____    ______ ____
ROOT
ATOM      1  N   UNL     1       6.457   2.000   3.151  0.00  0.00    -0.269 N 
ATOM      2  C   UNL     1       6.434   0.716   2.740  0.00  0.00    +0.308 C 
ATOM      3  O   UNL     1       7.443   0.200   2.300  0.00  0.00    -0.252 OA
ATOM      4  N   UNL     1       5.291   0.005   2.817  0.00  0.00    -0.268 N 
ATOM      5  C   UNL     1       4.048   0.595   3.345  0.00  0.00    +0.148 C 
ATOM      6  C   UNL     1       2.822   0.165   2.570  0.00  0.00    +0.005 A 
ATOM      7  C   UNL     1       2.074   1.046   1.762  0.00  0.00    -0.030 A 
ATOM      8  C   UNL     1       0.965   0.554   1.151  0.00  0.00    -0.005 A 
ATOM      9  S   UNL     1       0.925  -1.149   1.650  0.00  0.00    -0.075 S 
ATOM     10  C   UNL     1       2.383  -1.120   2.646  0.00  0.00    +0.090 A 
ATOM     11  N   UNL     1       3.020  -2.120   3.371  0.00  0.00    -0.312 N 
ATOM     12  C   UNL     1       2.540  -3.044   4.235  0.00  0.00    +0.092 A 
ATOM     13  C   UNL     1       3.591  -3.720   4.752  0.00  0.00    +0.020 A 
ATOM     14  C   UNL     1       4.763  -3.200   4.161  0.00  0.00    +0.025 A 
ATOM     15  C   UNL     1       4.388  -2.244   3.299  0.00  0.00    +0.049 A 
ATOM     16  C   UNL     1       5.226  -1.409   2.376  0.00  0.00    +0.155 C 
ATOM     17  C   UNL     1       0.009   1.285   0.265  0.00  0.00    +0.043 C 
ATOM     18  C   UNL     1       0.262   2.792   0.425  0.00  0.00    +0.005 C 
ATOM     19  C   UNL     1       1.768   3.050   0.327  0.00  0.00    +0.005 C 
ATOM     20  C   UNL     1       2.475   2.506   1.569  0.00  0.00    +0.036 C 
ATOM     21  H   UNL     1       5.567   2.443   3.619  0.00  0.00    +0.156 HD
ENDROOT
BRANCH  16  22
ATOM     22  C   UNL     1       4.632  -1.465   0.992  0.00  0.00    -0.018 A 
ATOM     23  C   UNL     1       4.659  -0.344   0.183  0.00  0.00    +0.006 A 
ATOM     24  C   UNL     1       4.114  -0.393  -1.086  0.00  0.00    +0.003 A 
ATOM     25  C   UNL     1       3.542  -1.564  -1.548  0.00  0.00    +0.038 A 
ATOM     26  C   UNL     1       3.515  -2.687  -0.739  0.00  0.00    +0.124 A 
ATOM     27  C   UNL     1       4.065  -2.638   0.530  0.00  0.00    +0.044 A 
ATOM     28  F   UNL     1       2.956  -3.831  -1.190  0.00  0.00    -0.205 F 
ENDBRANCH  16  22
BRANCH   1  33
ATOM     29  C   UNL     1      10.014   2.950   2.945  0.00  0.00    +0.061 A 
ATOM     30  C   UNL     1       9.900   4.307   2.637  0.00  0.00    +0.015 A 
ATOM     31  C   UNL     1       8.653   4.883   2.504  0.00  0.00    +0.003 A 
ATOM     32  C   UNL     1       7.513   4.118   2.669  0.00  0.00    +0.023 A 
ATOM     33  C   UNL     1       7.615   2.768   2.980  0.00  0.00    +0.036 A 
ATOM     34  C   UNL     1       8.863   2.180   3.116  0.00  0.00    +0.038 A 
BRANCH  29  35
ATOM     35  C   UNL     1      11.348   2.331   3.088  0.00  0.00    +0.339 C 
ATOM     36  O   UNL     1      11.444   1.150   3.355  0.00  0.00    -0.245 OA
BRANCH  35  38
ATOM     37  C   UNL     1      13.734   2.402   3.077  0.00  0.00    +0.280 C 
ATOM     38  O   UNL     1      12.457   3.076   2.922  0.00  0.00    -0.464 OA
ENDBRANCH  35  38
ENDBRANCH  29  35
ENDBRANCH   1  33
TORSDOF 4
