REMARK  Name = ZINC36806302
REMARK  16 active torsions:
REMARK  status: ('A' for Active; 'I' for Inactive)
REMARK    1  A    between atoms: C_1  and  C_2
REMARK    2  A    between atoms: C_2  and  C_4
REMARK    3  A    between atoms: C_2  and  S_14
REMARK    4  A    between atoms: N_6  and  C_7
REMARK    5  A    between atoms: C_7  and  C_8
REMARK    6  A    between atoms: C_7  and  C_9
REMARK    7  A    between atoms: C_7  and  C_11
REMARK    8  A    between atoms: C_11  and  C_12
REMARK    9  A    between atoms: C_11  and  C_13
REMARK   10  A    between atoms: S_14  and  C_15
REMARK   11  A    between atoms: N_28  and  C_29
REMARK   12  A    between atoms: C_29  and  C_30
REMARK   13  A    between atoms: C_30  and  C_31
REMARK   14  A    between atoms: C_31  and  N_32
REMARK   15  A    between atoms: N_32  and  C_33
REMARK   16  A    between atoms: N_32  and  C_34
REMARK                            x       y       z     vdW  Elec       q    Type
REMARK                         _______ _______ _______ _____ _____    ______ ____
ROOT
ATOM      1  C   UNL     1      -0.189  -0.057  -2.809  0.00  0.00    +0.173 A 
ATOM      2  N   UNL     1      -1.292   0.612  -2.538  0.00  0.00    -0.216 NA
ATOM      3  C   UNL     1      -2.094   1.025  -3.512  0.00  0.00    +0.117 A 
ATOM      4  C   UNL     1      -1.815   0.775  -4.866  0.00  0.00    +0.076 A 
ATOM      5  C   UNL     1      -2.792   1.292  -5.826  0.00  0.00    -0.023 A 
ATOM      6  C   UNL     1      -3.855   1.951  -5.323  0.00  0.00    -0.004 A 
ATOM      7  S   UNL     1      -3.623   1.925  -3.566  0.00  0.00    -0.073 S 
ATOM      8  C   UNL     1      -4.985   2.570  -6.088  0.00  0.00    +0.043 C 
ATOM      9  C   UNL     1      -4.574   2.670  -7.564  0.00  0.00    +0.005 C 
ATOM     10  C   UNL     1      -3.990   1.324  -8.003  0.00  0.00    +0.005 C 
ATOM     11  C   UNL     1      -2.634   1.103  -7.332  0.00  0.00    +0.037 C 
ATOM     12  C   UNL     1      -0.611   0.048  -5.131  0.00  0.00    +0.263 A 
ATOM     13  O   UNL     1      -0.287  -0.214  -6.276  0.00  0.00    -0.267 OA
ATOM     14  N   UNL     1       0.161  -0.337  -4.098  0.00  0.00    -0.287 N 
ENDROOT
BRANCH   1  15
ATOM     15  S   UNL     1       0.851  -0.589  -1.490  0.00  0.00    -0.075 S 
BRANCH  15  17
ATOM     16  C   UNL     1      -0.019   1.526   0.010  0.00  0.00    +0.029 C 
ATOM     17  C   UNL     1       0.002  -0.004   0.002  0.00  0.00    +0.137 C 
BRANCH  17  18
ATOM     18  C   UNL     1       0.731  -0.503   1.223  0.00  0.00    +0.227 C 
ATOM     19  O   UNL     1       1.911  -0.775   1.156  0.00  0.00    -0.275 OA
ATOM     20  N   UNL     1       0.071  -0.647   2.389  0.00  0.00    -0.296 N 
ATOM     21  H   UNL     1      -0.872  -0.430   2.443  0.00  0.00    +0.150 HD
BRANCH  20  22
ATOM     22  C   UNL     1       0.780  -1.133   3.576  0.00  0.00    +0.121 C 
ATOM     23  C   UNL     1       1.347  -2.526   3.298  0.00  0.00    +0.048 C 
BRANCH  22  24
ATOM     24  C   UNL     1      -0.191  -1.204   4.756  0.00  0.00    +0.020 C 
ATOM     25  C   UNL     1      -1.266  -2.254   4.470  0.00  0.00    +0.010 C 
ATOM     26  C   UNL     1       0.574  -1.591   6.024  0.00  0.00    +0.010 C 
ENDBRANCH  22  24
BRANCH  22  27
ATOM     27  C   UNL     1       1.881  -0.211   3.902  0.00  0.00    +0.088 C 
ATOM     28  N   UNL     1       2.731   0.500   4.153  0.00  0.00    -0.194 NA
ENDBRANCH  22  27
ENDBRANCH  20  22
ENDBRANCH  17  18
ENDBRANCH  15  17
ENDBRANCH   1  15
BRANCH  14  29
ATOM     29  C   UNL     1       1.397  -1.077  -4.362  0.00  0.00    +0.125 C 
BRANCH  29  30
ATOM     30  C   UNL     1       1.100  -2.578  -4.381  0.00  0.00    +0.003 C 
BRANCH  30  31
ATOM     31  C   UNL     1       2.391  -3.351  -4.657  0.00  0.00    -0.078 C 
BRANCH  31  32
ATOM     32  N   UNL     1       2.105  -4.791  -4.675  0.00  0.00    +0.376 N 
ATOM     33  C   UNL     1       1.219  -5.101  -5.805  0.00  0.00    -0.097 C 
ATOM     34  C   UNL     1       3.362  -5.538  -4.820  0.00  0.00    -0.097 C 
ATOM     35  H   UNL     1       1.655  -5.056  -3.812  0.00  0.00    -0.083 HD
ENDBRANCH  31  32
ENDBRANCH  30  31
ENDBRANCH  29  30
ENDBRANCH  14  29
TORSDOF 10
