REMARK  Name = ZINC06034750
REMARK  10 active torsions:
REMARK  status: ('A' for Active; 'I' for Inactive)
REMARK    1  A    between atoms: C_1  and  C_2
REMARK    2  A    between atoms: C_5  and  N_8
REMARK    3  A    between atoms: N_8  and  C_9
REMARK    4  A    between atoms: N_8  and  S_20
REMARK    5  A    between atoms: C_9  and  C_10
REMARK    6  A    between atoms: C_10  and  C_12
REMARK    7  A    between atoms: C_10  and  O_19
REMARK    8  A    between atoms: C_12  and  N_13
REMARK    9  A    between atoms: S_20  and  C_23
REMARK   10  A    between atoms: C_28  and  N_29
REMARK                            x       y       z     vdW  Elec       q    Type
REMARK                         _______ _______ _______ _____ _____    ______ ____
ROOT
ATOM      1  N   UNL     1       0.091  -4.226   0.027  0.00  0.00    -0.201 N 
ENDROOT
BRANCH   1   6
ATOM      2  C   UNL     1       1.733   1.199  -0.135  0.00  0.00    +0.044 C 
ATOM      3  C   UNL     1       1.297  -0.243  -0.092  0.00  0.00    -0.050 A 
ATOM      4  C   UNL     1       1.207  -0.972  -1.264  0.00  0.00    +0.005 A 
ATOM      5  C   UNL     1       0.807  -2.293  -1.228  0.00  0.00    +0.025 A 
ATOM      6  C   UNL     1       0.496  -2.890  -0.013  0.00  0.00    +0.051 A 
ATOM      7  C   UNL     1       0.588  -2.155   1.162  0.00  0.00    +0.025 A 
ATOM      8  C   UNL     1       0.993  -0.836   1.120  0.00  0.00    +0.005 A 
ENDBRANCH   1   6
BRANCH   1   9
ATOM      9  S   UNL     1      -0.640  -4.910  -1.292  0.00  0.00    +0.077 S 
ATOM     10  O   UNL     1      -1.323  -6.066  -0.825  0.00  0.00    -0.150 OA
ATOM     11  O   UNL     1      -1.305  -3.858  -1.978  0.00  0.00    -0.150 OA
BRANCH   9  12
ATOM     12  C   UNL     1       0.639  -5.478  -2.361  0.00  0.00    +0.139 A 
ATOM     13  C   UNL     1       1.943  -5.543  -1.906  0.00  0.00    +0.031 A 
ATOM     14  C   UNL     1       2.947  -5.989  -2.744  0.00  0.00    +0.002 A 
ATOM     15  C   UNL     1       2.648  -6.371  -4.039  0.00  0.00    +0.002 A 
ATOM     16  C   UNL     1       1.344  -6.308  -4.494  0.00  0.00    +0.035 A 
ATOM     17  C   UNL     1       0.339  -5.866  -3.654  0.00  0.00    +0.153 A 
BRANCH  17  18
ATOM     18  N   UNL     1      -1.057  -5.803  -4.139  0.00  0.00    +0.058 N 
ATOM     19  O   UNL     1      -1.303  -6.020  -5.303  0.00  0.00    -0.126 OA
ATOM     20  O   UNL     1      -1.953  -5.534  -3.373  0.00  0.00    -0.126 OA
ENDBRANCH  17  18
ENDBRANCH   9  12
ENDBRANCH   1   9
BRANCH   1  21
ATOM     21  C   UNL     1       0.314  -5.023   1.236  0.00  0.00    +0.161 C 
BRANCH  21  22
ATOM     22  C   UNL     1      -0.840  -4.797   2.216  0.00  0.00    +0.117 C 
BRANCH  22  23
ATOM     23  O   UNL     1      -2.051  -5.300   1.649  0.00  0.00    -0.392 OA
ATOM     24  H   UNL     1      -2.029  -6.246   1.448  0.00  0.00    +0.210 HD
ENDBRANCH  22  23
BRANCH  22  25
ATOM     25  C   UNL     1      -0.547  -5.530   3.526  0.00  0.00    -0.046 C 
BRANCH  25  26
ATOM     26  N   UNL     1      -1.655  -5.313   4.466  0.00  0.00    +0.381 N 
ATOM     27  C   UNL     1      -1.726  -3.889   4.816  0.00  0.00    -0.079 C 
ATOM     28  C   UNL     1      -2.928  -3.644   5.731  0.00  0.00    -0.019 C 
ATOM     29  C   UNL     1      -2.769  -4.477   7.006  0.00  0.00    -0.004 C 
ATOM     30  C   UNL     1      -2.620  -5.953   6.626  0.00  0.00    -0.019 C 
ATOM     31  C   UNL     1      -1.430  -6.112   5.677  0.00  0.00    -0.079 C 
ATOM     32  H   UNL     1      -2.522  -5.595   4.034  0.00  0.00    -0.082 HD
ENDBRANCH  25  26
ENDBRANCH  22  25
ENDBRANCH  21  22
ENDBRANCH   1  21
TORSDOF 9
