REMARK  Name = ZINC59223921
REMARK  7 active torsions:
REMARK  status: ('A' for Active; 'I' for Inactive)
REMARK    1  A    between atoms: C_1  and  C_2
REMARK    2  A    between atoms: C_5  and  N_9
REMARK    3  A    between atoms: C_7  and  C_8
REMARK    4  A    between atoms: C_15  and  C_16
REMARK    5  A    between atoms: C_20  and  O_22
REMARK    6  A    between atoms: O_22  and  C_23
REMARK    7  A    between atoms: C_23  and  C_24
REMARK                            x       y       z     vdW  Elec       q    Type
REMARK                         _______ _______ _______ _____ _____    ______ ____
ROOT
ATOM      1  C   UNL     1      -2.375  -9.010  -2.640  0.00  0.00    -0.020 A 
ATOM      2  C   UNL     1      -1.411  -9.300  -1.668  0.00  0.00    +0.008 A 
ATOM      3  C   UNL     1      -1.036 -10.607  -1.439  0.00  0.00    +0.004 A 
ATOM      4  C   UNL     1      -1.611 -11.634  -2.166  0.00  0.00    +0.046 A 
ATOM      5  C   UNL     1      -2.569 -11.358  -3.133  0.00  0.00    +0.122 A 
ATOM      6  C   UNL     1      -2.958 -10.051  -3.370  0.00  0.00    +0.053 A 
ENDROOT
BRANCH   1  13
ATOM      7  N   UNL     1       0.856  -4.264  -0.912  0.00  0.00    -0.226 NA
ATOM      8  C   UNL     1      -0.169  -4.894  -1.441  0.00  0.00    +0.166 C 
ATOM      9  N   UNL     1      -1.339  -4.362  -1.936  0.00  0.00    -0.260 N 
ATOM     10  C   UNL     1      -2.277  -5.146  -2.439  0.00  0.00    +0.256 C 
ATOM     11  O   UNL     1      -3.317  -4.693  -2.880  0.00  0.00    -0.269 OA
ATOM     12  C   UNL     1      -2.005  -6.598  -2.441  0.00  0.00    +0.078 C 
ATOM     13  C   UNL     1      -2.778  -7.618  -2.889  0.00  0.00    +0.028 C 
ATOM     14  S   UNL     1      -0.379  -6.648  -1.702  0.00  0.00    -0.049 S 
ATOM     15  H   UNL     1      -1.477  -3.402  -1.914  0.00  0.00    +0.157 HD
BRANCH   7  20
ATOM     16  C   UNL     1       0.766   1.359  -0.428  0.00  0.00    +0.044 C 
ATOM     17  C   UNL     1       0.790  -0.142  -0.557  0.00  0.00    -0.047 A 
ATOM     18  C   UNL     1       0.383  -0.738  -1.738  0.00  0.00    +0.006 A 
ATOM     19  C   UNL     1       0.402  -2.112  -1.863  0.00  0.00    +0.028 A 
ATOM     20  C   UNL     1       0.834  -2.901  -0.795  0.00  0.00    +0.067 A 
ATOM     21  C   UNL     1       1.244  -2.292   0.394  0.00  0.00    +0.031 A 
ATOM     22  C   UNL     1       1.224  -0.917   0.503  0.00  0.00    -0.046 A 
ATOM     23  C   UNL     1       1.672  -0.259   1.782  0.00  0.00    +0.044 C 
ENDBRANCH   7  20
ENDBRANCH   1  13
BRANCH   5  24
ATOM     24  O   UNL     1      -3.128 -12.372  -3.844  0.00  0.00    -0.487 OA
BRANCH  24  25
ATOM     25  C   UNL     1      -2.684 -13.697  -3.544  0.00  0.00    +0.265 C 
BRANCH  25  26
ATOM     26  C   UNL     1      -3.409 -14.681  -4.424  0.00  0.00    -0.003 A 
ATOM     27  C   UNL     1      -4.323 -14.243  -5.332  0.00  0.00    +0.007 A 
ATOM     28  C   UNL     1      -5.004 -15.138  -6.155  0.00  0.00    +0.001 A 
ATOM     29  C   UNL     1      -4.775 -16.478  -6.073  0.00  0.00    +0.008 A 
ATOM     30  C   UNL     1      -3.838 -16.968  -5.147  0.00  0.00    -0.018 A 
ATOM     31  C   UNL     1      -3.142 -16.056  -4.315  0.00  0.00    -0.011 A 
ATOM     32  C   UNL     1      -2.201 -16.546  -3.393  0.00  0.00    +0.009 A 
ATOM     33  C   UNL     1      -1.968 -17.885  -3.316  0.00  0.00    +0.001 A 
ATOM     34  C   UNL     1      -2.648 -18.780  -4.139  0.00  0.00    +0.001 A 
ATOM     35  C   UNL     1      -3.575 -18.344  -5.034  0.00  0.00    +0.008 A 
ENDBRANCH  25  26
ENDBRANCH  24  25
ENDBRANCH   5  24
TORSDOF 5
