REMARK  Name = ZINC08451105
REMARK  12 active torsions:
REMARK  status: ('A' for Active; 'I' for Inactive)
REMARK    1  A    between atoms: C_1  and  C_2
REMARK    2  A    between atoms: C_2  and  O_3
REMARK    3  A    between atoms: O_3  and  C_4
REMARK    4  A    between atoms: C_4  and  C_6
REMARK    5  A    between atoms: C_7  and  C_30
REMARK    6  A    between atoms: C_8  and  C_28
REMARK    7  A    between atoms: C_9  and  N_11
REMARK    8  A    between atoms: C_12  and  C_14
REMARK    9  A    between atoms: C_14  and  S_15
REMARK   10  A    between atoms: S_15  and  C_16
REMARK   11  A    between atoms: C_17  and  C_26
REMARK   12  A    between atoms: C_25  and  N_52
REMARK                            x       y       z     vdW  Elec       q    Type
REMARK                         _______ _______ _______ _____ _____    ______ ____
ROOT
ATOM      1  N   UNL     1       1.143   1.898   0.001  0.00  0.00    -0.278 N 
ATOM      2  C   UNL     1      -0.014   1.208   0.009  0.00  0.00    +0.228 C 
ATOM      3  O   UNL     1       0.002  -0.004   0.002  0.00  0.00    -0.275 OA
ATOM      4  H   UNL     1       1.130   2.868   0.007  0.00  0.00    +0.155 HD
ENDROOT
BRANCH   1   8
ATOM      5  C   UNL     1       4.411  -0.480  -0.041  0.00  0.00    +0.102 A 
ATOM      6  C   UNL     1       4.707   0.868  -0.037  0.00  0.00    -0.010 A 
ATOM      7  C   UNL     1       3.643   1.754  -0.023  0.00  0.00    +0.084 A 
ATOM      8  C   UNL     1       2.350   1.223  -0.014  0.00  0.00    +0.090 A 
ATOM      9  S   UNL     1       2.628  -0.487  -0.018  0.00  0.00    -0.065 S 
ATOM     10  C   UNL     1       6.133   1.357  -0.049  0.00  0.00    +0.046 C 
BRANCH   5  11
ATOM     11  C   UNL     1       5.329  -1.617  -0.055  0.00  0.00    +0.346 C 
ATOM     12  O   UNL     1       6.531  -1.429  -0.065  0.00  0.00    -0.244 OA
BRANCH  11  13
ATOM     13  O   UNL     1       4.843  -2.876  -0.057  0.00  0.00    -0.461 OA
BRANCH  13  15
ATOM     14  C   UNL     1       5.065  -5.283  -0.070  0.00  0.00    +0.048 C 
ATOM     15  C   UNL     1       5.798  -3.940  -0.071  0.00  0.00    +0.229 C 
ENDBRANCH  13  15
ENDBRANCH  11  13
ENDBRANCH   5  11
BRANCH   7  16
ATOM     16  C   UNL     1       3.860   3.170  -0.019  0.00  0.00    +0.102 C 
ATOM     17  N   UNL     1       4.032   4.293  -0.016  0.00  0.00    -0.191 NA
ENDBRANCH   7  16
ENDBRANCH   1   8
BRANCH   2  18
ATOM     18  C   UNL     1      -1.330   1.944   0.019  0.00  0.00    +0.172 C 
BRANCH  18  19
ATOM     19  S   UNL     1      -2.689   0.749   0.019  0.00  0.00    -0.095 S 
BRANCH  19  20
ATOM     20  C   UNL     1      -4.064   1.851   0.031  0.00  0.00    +0.115 A 
ATOM     21  C   UNL     1      -5.374   1.337   0.035  0.00  0.00    +0.084 A 
ATOM     22  C   UNL     1      -6.443   2.237   0.042  0.00  0.00    +0.025 A 
ATOM     23  C   UNL     1      -6.171   3.598   0.045  0.00  0.00    -0.041 A 
ATOM     24  C   UNL     1      -4.860   4.029   0.046  0.00  0.00    +0.042 A 
ATOM     25  N   UNL     1      -3.862   3.157   0.043  0.00  0.00    -0.244 NA
ATOM     26  C   UNL     1      -4.517   5.498   0.058  0.00  0.00    +0.037 C 
ATOM     27  C   UNL     1      -5.736   6.322  -0.358  0.00  0.00    -0.073 C 
ATOM     28  C   UNL     1      -7.329   4.560   0.042  0.00  0.00    -0.042 C 
ATOM     29  C   UNL     1      -7.987   6.867   0.355  0.00  0.00    -0.096 C 
ATOM     30  N   UNL     1      -6.878   5.893   0.474  0.00  0.00    +0.381 N 
ATOM     31  H   UNL     1      -6.580   5.846   1.455  0.00  0.00    -0.082 HD
BRANCH  21  32
ATOM     32  C   UNL     1      -5.606  -0.076   0.032  0.00  0.00    +0.102 C 
ATOM     33  N   UNL     1      -5.790  -1.197   0.029  0.00  0.00    -0.191 NA
ENDBRANCH  21  32
ENDBRANCH  19  20
ENDBRANCH  18  19
ENDBRANCH   2  18
TORSDOF 9
