REMARK  Name = ZINC08853414
REMARK  8 active torsions:
REMARK  status: ('A' for Active; 'I' for Inactive)
REMARK    1  A    between atoms: C_1  and  C_2
REMARK    2  A    between atoms: C_7  and  N_8
REMARK    3  A    between atoms: C_7  and  N_70
REMARK    4  A    between atoms: N_11  and  C_28
REMARK    5  A    between atoms: C_12  and  C_14
REMARK    6  A    between atoms: C_14  and  O_15
REMARK    7  A    between atoms: O_15  and  C_16
REMARK    8  A    between atoms: C_19  and  C_22
REMARK                            x       y       z     vdW  Elec       q    Type
REMARK                         _______ _______ _______ _____ _____    ______ ____
ROOT
ATOM      1  N   UNL     1      -3.128  -1.539  -0.579  0.00  0.00    -0.257 N 
ATOM      2  C   UNL     1      -2.125  -0.726  -0.971  0.00  0.00    +0.181 A 
ATOM      3  S   UNL     1      -2.042   0.142  -2.445  0.00  0.00    -0.011 S 
ATOM      4  N   UNL     1      -1.201  -0.723   0.010  0.00  0.00    -0.272 N 
ATOM      5  C   UNL     1      -1.638  -1.550   1.018  0.00  0.00    +0.174 A 
ATOM      6  N   UNL     1      -2.788  -2.041   0.685  0.00  0.00    -0.154 NA
ENDROOT
BRANCH   4   7
ATOM      7  C   UNL     1       0.002  -0.004   0.002  0.00  0.00    +0.050 A 
ATOM      8  C   UNL     1      -0.017   1.384   0.010  0.00  0.00    +0.026 A 
ATOM      9  C   UNL     1       1.171   2.090   0.002  0.00  0.00    +0.002 A 
ATOM     10  C   UNL     1       2.377   1.415  -0.013  0.00  0.00    +0.000 A 
ATOM     11  C   UNL     1       2.400   0.032  -0.021  0.00  0.00    +0.002 A 
ATOM     12  C   UNL     1       1.215  -0.679  -0.013  0.00  0.00    +0.026 A 
ENDBRANCH   4   7
BRANCH   1  13
ATOM     13  C   UNL     1      -4.346  -1.843  -1.335  0.00  0.00    +0.072 C 
BRANCH  13  20
ATOM     14  C   UNL     1      -4.014  -6.875  -4.026  0.00  0.00    +0.007 C 
ATOM     15  C   UNL     1      -4.368  -5.768  -3.030  0.00  0.00    -0.018 C 
ATOM     16  C   UNL     1      -5.075  -4.625  -3.765  0.00  0.00    -0.015 C 
ATOM     17  C   UNL     1      -5.371  -3.496  -2.776  0.00  0.00    -0.076 C 
ATOM     18  C   UNL     1      -3.441  -4.086  -1.434  0.00  0.00    -0.076 C 
ATOM     19  C   UNL     1      -3.087  -5.233  -2.383  0.00  0.00    -0.015 C 
ATOM     20  N   UNL     1      -4.096  -3.009  -2.207  0.00  0.00    +0.393 N 
ATOM     21  H   UNL     1      -3.476  -2.725  -2.974  0.00  0.00    -0.079 HD
ENDBRANCH  13  20
ENDBRANCH   1  13
BRANCH   5  22
ATOM     22  C   UNL     1      -0.901  -1.834   2.301  0.00  0.00    +0.305 C 
BRANCH  22  23
ATOM     23  O   UNL     1      -1.287  -0.881   3.294  0.00  0.00    -0.484 OA
BRANCH  23  24
ATOM     24  C   UNL     1      -0.710  -0.998   4.518  0.00  0.00    +0.121 A 
ATOM     25  C   UNL     1       0.205  -2.012   4.762  0.00  0.00    +0.046 A 
ATOM     26  C   UNL     1       0.795  -2.124   6.006  0.00  0.00    +0.007 A 
ATOM     27  C   UNL     1       0.465  -1.235   7.012  0.00  0.00    -0.044 A 
ATOM     28  C   UNL     1      -0.451  -0.227   6.773  0.00  0.00    +0.007 A 
ATOM     29  C   UNL     1      -1.039  -0.106   5.529  0.00  0.00    +0.046 A 
BRANCH  27  30
ATOM     30  C   UNL     1       1.105  -1.364   8.370  0.00  0.00    +0.019 C 
ATOM     31  C   UNL     1       2.623  -1.224   8.234  0.00  0.00    +0.008 C 
ATOM     32  C   UNL     1       3.273  -1.355   9.613  0.00  0.00    +0.001 C 
ATOM     33  C   UNL     1       2.938  -2.725  10.206  0.00  0.00    +0.000 C 
ATOM     34  C   UNL     1       1.421  -2.866  10.342  0.00  0.00    +0.001 C 
ATOM     35  C   UNL     1       0.771  -2.735   8.963  0.00  0.00    +0.008 C 
ENDBRANCH  27  30
ENDBRANCH  23  24
ENDBRANCH  22  23
ENDBRANCH   5  22
TORSDOF 7
