REMARK  Name = ZINC38797079
REMARK  6 active torsions:
REMARK  status: ('A' for Active; 'I' for Inactive)
REMARK    1  A    between atoms: C_1  and  C_2
REMARK    2  A    between atoms: C_6  and  N_12
REMARK    3  A    between atoms: C_9  and  C_11
REMARK    4  A    between atoms: C_13  and  C_15
REMARK    5  A    between atoms: C_15  and  N_16
REMARK    6  A    between atoms: C_21  and  C_23
REMARK                            x       y       z     vdW  Elec       q    Type
REMARK                         _______ _______ _______ _____ _____    ______ ____
ROOT
ATOM      1  N   UNL     1       3.120  -0.129  -3.289  0.00  0.00    -0.288 N 
ATOM      2  C   UNL     1       4.135  -0.407  -4.131  0.00  0.00    +0.199 C 
ATOM      3  O   UNL     1       4.483  -1.556  -4.302  0.00  0.00    -0.278 OA
ATOM      4  H   UNL     1       2.841   0.790  -3.152  0.00  0.00    +0.151 HD
ENDROOT
BRANCH   1   9
ATOM      5  C   UNL     1      -0.019   1.526   0.010  0.00  0.00    +0.030 C 
ATOM      6  C   UNL     1       0.002  -0.004   0.002  0.00  0.00    +0.099 C 
ATOM      7  C   UNL     1       0.712  -0.492  -1.232  0.00  0.00    -0.011 C 
ATOM      8  C   UNL     1       2.029  -0.763  -1.215  0.00  0.00    +0.065 C 
ATOM      9  C   UNL     1       2.437  -1.214  -2.581  0.00  0.00    +0.243 C 
ATOM     10  O   UNL     1       1.211  -1.562  -3.261  0.00  0.00    -0.347 OA
ATOM     11  C   UNL     1       0.198  -0.762  -2.613  0.00  0.00    +0.146 C 
ATOM     12  C   UNL     1       0.002   0.554  -3.369  0.00  0.00    +0.043 C 
ATOM     13  C   UNL     1       2.797  -0.603   0.029  0.00  0.00    +0.258 C 
ATOM     14  O   UNL     1       4.009  -0.695   0.056  0.00  0.00    -0.269 OA
ATOM     15  N   UNL     1       2.069  -0.345   1.144  0.00  0.00    -0.247 N 
ATOM     16  N   UNL     1       0.718  -0.493   1.188  0.00  0.00    -0.233 NA
ATOM     17  H   UNL     1       2.530  -0.044   1.943  0.00  0.00    +0.169 HD
ATOM     18  H   UNL     1       0.464  -1.448   1.395  0.00  0.00    +0.145 HD
ENDBRANCH   1   9
BRANCH   2  19
ATOM     19  C   UNL     1       4.838   0.710  -4.859  0.00  0.00    +0.020 C 
BRANCH  19  20
ATOM     20  N   UNL     1       5.898   0.150  -5.708  0.00  0.00    +0.393 N 
ATOM     21  C   UNL     1       5.294  -0.696  -6.747  0.00  0.00    -0.072 C 
ATOM     22  C   UNL     1       6.405  -1.516  -7.420  0.00  0.00    +0.023 C 
ATOM     23  C   UNL     1       7.534  -0.581  -7.753  0.00  0.00    -0.018 C 
ATOM     24  C   UNL     1       7.679   0.659  -7.294  0.00  0.00    -0.069 C 
ATOM     25  C   UNL     1       6.657   1.244  -6.322  0.00  0.00    -0.009 C 
ATOM     26  C   UNL     1       8.865   1.447  -7.784  0.00  0.00    +0.041 C 
ATOM     27  C   UNL     1       9.971   0.518  -8.341  0.00  0.00    +0.078 C 
ATOM     28  S   UNL     1       8.921  -0.923  -8.806  0.00  0.00    -0.129 S 
ATOM     29  H   UNL     1       6.518  -0.411  -5.143  0.00  0.00    -0.080 HD
BRANCH  25  30
ATOM     30  C   UNL     1       7.371   2.026  -5.250  0.00  0.00    -0.057 A 
ATOM     31  C   UNL     1       7.965   1.364  -4.192  0.00  0.00    +0.002 A 
ATOM     32  C   UNL     1       8.621   2.081  -3.209  0.00  0.00    +0.000 A 
ATOM     33  C   UNL     1       8.683   3.460  -3.284  0.00  0.00    +0.000 A 
ATOM     34  C   UNL     1       8.089   4.122  -4.343  0.00  0.00    +0.000 A 
ATOM     35  C   UNL     1       7.438   3.404  -5.328  0.00  0.00    +0.002 A 
ENDBRANCH  25  30
ENDBRANCH  19  20
ENDBRANCH   2  19
TORSDOF 4
