REMARK  Name = ZINC50322009
REMARK  7 active torsions:
REMARK  status: ('A' for Active; 'I' for Inactive)
REMARK    1  A    between atoms: C_1  and  C_2
REMARK    2  A    between atoms: C_2  and  C_3
REMARK    3  A    between atoms: C_3  and  C_4
REMARK    4  A    between atoms: C_5  and  N_21
REMARK    5  A    between atoms: C_6  and  C_10
REMARK    6  A    between atoms: N_12  and  C_13
REMARK    7  A    between atoms: C_18  and  C_19
REMARK                            x       y       z     vdW  Elec       q    Type
REMARK                         _______ _______ _______ _____ _____    ______ ____
ROOT
ATOM      1  C   UNL     1       0.745  -2.018   1.209  0.00  0.00    +0.057 A 
ATOM      2  C   UNL     1       1.654  -2.810   0.583  0.00  0.00    +0.078 A 
ATOM      3  C   UNL     1       1.260  -4.142   0.873  0.00  0.00    +0.168 A 
ATOM      4  N   UNL     1       0.179  -4.069   1.627  0.00  0.00    -0.167 NA
ATOM      5  N   UNL     1      -0.134  -2.841   1.839  0.00  0.00    -0.279 N 
ATOM      6  H   UNL     1      -0.890  -2.545   2.369  0.00  0.00    +0.189 HD
ENDROOT
BRANCH   3   7
ATOM      7  C   UNL     1       1.930  -5.373   0.418  0.00  0.00    +0.270 C 
ATOM      8  O   UNL     1       2.924  -5.303  -0.277  0.00  0.00    -0.268 OA
ATOM      9  N   UNL     1       1.440  -6.578   0.774  0.00  0.00    -0.280 N 
ATOM     10  H   UNL     1       0.696  -6.635   1.393  0.00  0.00    +0.155 HD
BRANCH   9  11
ATOM     11  C   UNL     1       2.005  -7.745   0.250  0.00  0.00    +0.037 A 
ATOM     12  C   UNL     1       2.674  -7.709  -0.967  0.00  0.00    +0.024 A 
ATOM     13  C   UNL     1       3.232  -8.863  -1.481  0.00  0.00    +0.017 A 
ATOM     14  C   UNL     1       3.123 -10.055  -0.787  0.00  0.00    +0.018 A 
ATOM     15  C   UNL     1       2.456 -10.094   0.425  0.00  0.00    +0.020 A 
ATOM     16  C   UNL     1       1.903  -8.941   0.948  0.00  0.00    -0.028 A 
ATOM     17  C   UNL     1       1.182  -8.984   2.271  0.00  0.00    +0.046 C 
ATOM     18 BR   UNL     1       3.887 -11.633  -1.495  0.00  0.00    -0.050 Br
ENDBRANCH   9  11
ENDBRANCH   3   7
BRANCH   2  19
ATOM     19  N   UNL     1       2.751  -2.398  -0.189  0.00  0.00    -0.355 N 
ATOM     20  H   UNL     1       2.924  -1.453  -0.321  0.00  0.00    +0.142 HD
ATOM     21  H   UNL     1       3.337  -3.059  -0.590  0.00  0.00    +0.142 HD
ENDBRANCH   2  19
BRANCH   1  22
ATOM     22  C   UNL     1       0.719  -0.511   1.211  0.00  0.00    +0.056 C 
BRANCH  22  24
ATOM     23  C   UNL     1      -0.041   1.517  -0.034  0.00  0.00    +0.004 C 
ATOM     24  C   UNL     1      -0.015  -0.012  -0.035  0.00  0.00    +0.003 C 
ENDBRANCH  22  24
ENDBRANCH   1  22
TORSDOF 5
