REMARK  Name = ZINC39923314
REMARK  10 active torsions:
REMARK  status: ('A' for Active; 'I' for Inactive)
REMARK    1  A    between atoms: C_1  and  C_2
REMARK    2  A    between atoms: C_2  and  O_3
REMARK    3  A    between atoms: O_3  and  C_4
REMARK    4  A    between atoms: C_7  and  N_10
REMARK    5  A    between atoms: C_11  and  C_32
REMARK    6  A    between atoms: C_15  and  S_16
REMARK    7  A    between atoms: S_16  and  C_17
REMARK    8  A    between atoms: C_17  and  C_18
REMARK    9  A    between atoms: N_20  and  N_21
REMARK   10  A    between atoms: C_22  and  C_23
REMARK                            x       y       z     vdW  Elec       q    Type
REMARK                         _______ _______ _______ _____ _____    ______ ____
ROOT
ATOM      1  N   UNL     1      -1.975  -6.015  -0.030  0.00  0.00    -0.254 N 
ATOM      2  C   UNL     1      -3.260  -6.725   0.088  0.00  0.00    +0.213 C 
ATOM      3  N   UNL     1      -2.883  -8.149   0.050  0.00  0.00    -0.242 N 
ATOM      4  N   UNL     1      -1.489  -8.180  -0.079  0.00  0.00    -0.162 NA
ATOM      5  C   UNL     1      -0.992  -6.990  -0.128  0.00  0.00    +0.180 C 
ATOM      6  H   UNL     1      -3.480  -8.911   0.104  0.00  0.00    +0.170 HD
ENDROOT
BRANCH   1  10
ATOM      7  C   UNL     1      -1.405  -1.886  -0.077  0.00  0.00    +0.121 A 
ATOM      8  C   UNL     1      -1.137  -2.636  -1.213  0.00  0.00    +0.047 A 
ATOM      9  C   UNL     1      -1.325  -4.004  -1.198  0.00  0.00    +0.027 A 
ATOM     10  C   UNL     1      -1.784  -4.629  -0.046  0.00  0.00    +0.038 A 
ATOM     11  C   UNL     1      -2.052  -3.877   1.091  0.00  0.00    +0.027 A 
ATOM     12  C   UNL     1      -1.858  -2.510   1.076  0.00  0.00    +0.047 A 
BRANCH   7  13
ATOM     13  O   UNL     1      -1.220  -0.539  -0.092  0.00  0.00    -0.492 OA
BRANCH  13  15
ATOM     14  C   UNL     1      -0.605   1.550  -1.139  0.00  0.00    +0.048 C 
ATOM     15  C   UNL     1      -0.752   0.037  -1.313  0.00  0.00    +0.225 C 
ENDBRANCH  13  15
ENDBRANCH   7  13
ENDBRANCH   1  10
BRANCH   2  16
ATOM     16  C   UNL     1      -4.161  -6.383  -1.070  0.00  0.00    -0.008 A 
ATOM     17  C   UNL     1      -5.353  -5.719  -0.846  0.00  0.00    +0.007 A 
ATOM     18  C   UNL     1      -6.179  -5.405  -1.909  0.00  0.00    +0.000 A 
ATOM     19  C   UNL     1      -5.814  -5.755  -3.195  0.00  0.00    +0.000 A 
ATOM     20  C   UNL     1      -4.623  -6.418  -3.420  0.00  0.00    +0.000 A 
ATOM     21  C   UNL     1      -3.794  -6.729  -2.357  0.00  0.00    +0.007 A 
ENDBRANCH   2  16
BRANCH   5  22
ATOM     22  S   UNL     1       0.727  -6.644  -0.295  0.00  0.00    -0.079 S 
BRANCH  22  23
ATOM     23  C   UNL     1       1.499  -8.283  -0.375  0.00  0.00    +0.174 C 
BRANCH  23  24
ATOM     24  C   UNL     1       2.991  -8.130  -0.520  0.00  0.00    +0.242 C 
ATOM     25  O   UNL     1       3.485  -7.023  -0.565  0.00  0.00    -0.273 OA
ATOM     26  N   UNL     1       3.777  -9.222  -0.599  0.00  0.00    -0.206 N 
ATOM     27  H   UNL     1       3.382 -10.107  -0.563  0.00  0.00    +0.177 HD
BRANCH  26  28
ATOM     28  N   UNL     1       5.164  -9.079  -0.734  0.00  0.00    -0.188 NA
ATOM     29  C   UNL     1       5.927 -10.140  -0.811  0.00  0.00    +0.136 C 
BRANCH  29  30
ATOM     30  C   UNL     1       7.315  -9.997  -0.946  0.00  0.00    +0.000 C 
ATOM     31  C   UNL     1       8.261 -11.015  -1.047  0.00  0.00    +0.004 A 
ATOM     32  C   UNL     1       8.151 -12.424  -1.047  0.00  0.00    +0.010 A 
ATOM     33  C   UNL     1       9.268 -13.185  -1.161  0.00  0.00    +0.001 A 
ATOM     34  C   UNL     1      10.537 -12.612  -1.282  0.00  0.00    +0.002 A 
ATOM     35  C   UNL     1      10.718 -11.270  -1.289  0.00  0.00    +0.026 A 
ATOM     36  C   UNL     1       9.596 -10.405  -1.173  0.00  0.00    +0.043 A 
ATOM     37  N   UNL     1       9.507  -9.092  -1.154  0.00  0.00    -0.380 N 
ATOM     38  C   UNL     1       8.099  -8.705  -1.020  0.00  0.00    +0.150 C 
ATOM     39  H   UNL     1      10.254  -8.478  -1.222  0.00  0.00    +0.160 HD
ENDBRANCH  29  30
ENDBRANCH  26  28
ENDBRANCH  23  24
ENDBRANCH  22  23
ENDBRANCH   5  22
TORSDOF 9
