REMARK  Name = ZINC32943471
REMARK  9 active torsions:
REMARK  status: ('A' for Active; 'I' for Inactive)
REMARK    1  A    between atoms: C_1  and  C_2
REMARK    2  A    between atoms: C_5  and  C_38
REMARK    3  A    between atoms: N_6  and  C_7
REMARK    4  A    between atoms: C_10  and  C_13
REMARK    5  A    between atoms: C_13  and  N_15
REMARK    6  A    between atoms: N_17  and  C_18
REMARK    7  A    between atoms: N_25  and  C_26
REMARK    8  A    between atoms: C_26  and  C_27
REMARK    9  A    between atoms: C_27  and  C_28
REMARK                            x       y       z     vdW  Elec       q    Type
REMARK                         _______ _______ _______ _____ _____    ______ ____
ROOT
ATOM      1  N   UNL     1       1.353   5.338   1.326  0.00  0.00    -0.143 NA
ATOM      2  C   UNL     1       1.706   4.039   1.033  0.00  0.00    +0.194 C 
ATOM      3  N   UNL     1       1.140   3.417   0.026  0.00  0.00    -0.328 N 
ATOM      4  N   UNL     1       2.649   3.396   1.794  0.00  0.00    -0.357 N 
ATOM      5  H   UNL     1       2.867   2.333   1.617  0.00  0.00    +0.162 HD
ATOM      6  H   UNL     1       0.320   3.898  -0.527  0.00  0.00    +0.169 HD
ENDROOT
BRANCH   3   7
ATOM      7  C   UNL     1       1.569   2.167  -0.335  0.00  0.00    +0.044 A 
ATOM      8  C   UNL     1       0.662   1.108  -0.409  0.00  0.00    +0.026 A 
ATOM      9  C   UNL     1       1.100  -0.148  -0.774  0.00  0.00    +0.005 A 
ATOM     10  C   UNL     1       2.436  -0.361  -1.068  0.00  0.00    +0.038 A 
ATOM     11  C   UNL     1       3.342   0.685  -0.997  0.00  0.00    +0.125 A 
ATOM     12  C   UNL     1       2.915   1.948  -0.632  0.00  0.00    +0.064 A 
ATOM     13  F   UNL     1       4.644   0.470  -1.284  0.00  0.00    -0.205 F 
ENDBRANCH   3   7
BRANCH   1  14
ATOM     14  C   UNL     1       0.426   5.970   0.578  0.00  0.00    +0.270 C 
ATOM     15  O   UNL     1      -0.098   5.393  -0.355  0.00  0.00    -0.268 OA
BRANCH  14  19
ATOM     16  C   UNL     1      -0.661   9.975   1.480  0.00  0.00    +0.047 A 
ATOM     17  C   UNL     1      -1.262   9.316   0.413  0.00  0.00    +0.027 A 
ATOM     18  C   UNL     1      -0.912   8.018   0.117  0.00  0.00    +0.015 A 
ATOM     19  C   UNL     1       0.048   7.362   0.892  0.00  0.00    +0.039 A 
ATOM     20  C   UNL     1       0.646   8.024   1.967  0.00  0.00    +0.015 A 
ATOM     21  C   UNL     1       0.295   9.325   2.253  0.00  0.00    +0.027 A 
BRANCH  16  27
ATOM     22  C   UNL     1      -0.129  12.360  -0.372  0.00  0.00    +0.064 C 
ATOM     23  C   UNL     1      -0.798  12.379   0.978  0.00  0.00    +0.021 A 
ATOM     24  C   UNL     1      -1.286  13.469   1.604  0.00  0.00    +0.023 A 
ATOM     25  C   UNL     1      -1.820  13.045   2.838  0.00  0.00    +0.023 A 
ATOM     26  C   UNL     1      -1.644  11.711   2.919  0.00  0.00    +0.021 A 
ATOM     27  N   UNL     1      -1.020  11.293   1.778  0.00  0.00    -0.318 N 
ATOM     28  C   UNL     1      -2.063  10.832   4.069  0.00  0.00    +0.064 C 
ENDBRANCH  16  27
ENDBRANCH  14  19
ENDBRANCH   1  14
BRANCH   4  29
ATOM     29  C   UNL     1       3.366   4.126   2.843  0.00  0.00    +0.120 C 
BRANCH  29  30
ATOM     30  C   UNL     1       4.276   3.161   3.606  0.00  0.00    +0.058 C 
BRANCH  30  31
ATOM     31  C   UNL     1       4.933   3.889   4.750  0.00  0.00    -0.021 A 
ATOM     32  C   UNL     1       6.161   4.432   4.750  0.00  0.00    +0.087 A 
ATOM     33  N   UNL     1       6.415   5.010   5.964  0.00  0.00    -0.360 N 
ATOM     34  H   UNL     1       7.377   5.512   6.144  0.00  0.00    +0.165 HD
ATOM     35  C   UNL     1       5.332   4.841   6.798  0.00  0.00    +0.047 A 
ATOM     36  C   UNL     1       4.357   4.131   6.074  0.00  0.00    +0.003 A 
ATOM     37  C   UNL     1       3.138   3.814   6.675  0.00  0.00    +0.010 A 
ATOM     38  C   UNL     1       2.897   4.195   7.965  0.00  0.00    +0.001 A 
ATOM     39  C   UNL     1       3.856   4.895   8.684  0.00  0.00    +0.002 A 
ATOM     40  C   UNL     1       5.066   5.219   8.110  0.00  0.00    +0.026 A 
ENDBRANCH  30  31
ENDBRANCH  29  30
ENDBRANCH   4  29
TORSDOF 7
