REMARK  Name = ZINC36704461
REMARK  10 active torsions:
REMARK  status: ('A' for Active; 'I' for Inactive)
REMARK    1  A    between atoms: C_1  and  C_2
REMARK    2  A    between atoms: C_2  and  C_3
REMARK    3  A    between atoms: N_12  and  C_13
REMARK    4  A    between atoms: C_13  and  C_14
REMARK    5  A    between atoms: C_14  and  N_15
REMARK    6  A    between atoms: N_15  and  C_16
REMARK    7  A    between atoms: N_15  and  C_17
REMARK    8  A    between atoms: C_18  and  C_20
REMARK    9  A    between atoms: N_25  and  S_26
REMARK   10  A    between atoms: S_26  and  C_29
REMARK                            x       y       z     vdW  Elec       q    Type
REMARK                         _______ _______ _______ _____ _____    ______ ____
ROOT
ATOM      1  C   UNL     1       1.127   0.103  -1.002  0.00  0.00    -0.046 A 
ATOM      2  C   UNL     1       0.654   0.641  -2.190  0.00  0.00    +0.006 A 
ATOM      3  C   UNL     1       1.302   0.431  -3.379  0.00  0.00    +0.029 A 
ATOM      4  C   UNL     1       2.482  -0.346  -3.431  0.00  0.00    +0.080 A 
ATOM      5  C   UNL     1       2.934  -0.877  -2.201  0.00  0.00    +0.041 A 
ATOM      6  C   UNL     1       2.281  -0.657  -1.014  0.00  0.00    +0.021 A 
ATOM      7  S   UNL     1       4.397  -1.761  -2.687  0.00  0.00    -0.052 S 
ATOM      8  C   UNL     1       4.320  -1.383  -4.432  0.00  0.00    +0.168 A 
ATOM      9  N   UNL     1       3.236  -0.646  -4.510  0.00  0.00    -0.224 NA
ATOM     10  N   UNL     1       5.184  -1.770  -5.444  0.00  0.00    -0.251 N 
ATOM     11  C   UNL     1       6.254  -2.537  -5.159  0.00  0.00    +0.240 C 
ATOM     12  O   UNL     1       6.413  -2.963  -4.035  0.00  0.00    -0.273 OA
ENDROOT
BRANCH  11  13
ATOM     13  C   UNL     1       7.254  -2.865  -6.238  0.00  0.00    +0.166 C 
ATOM     14  C   UNL     1       6.873  -4.196  -6.920  0.00  0.00    +0.031 C 
ATOM     15  C   UNL     1       8.249  -4.870  -7.161  0.00  0.00    +0.019 C 
ATOM     16  C   UNL     1       9.039  -4.424  -5.905  0.00  0.00    +0.110 C 
ATOM     17  N   UNL     1       8.588  -3.040  -5.647  0.00  0.00    -0.164 NA
BRANCH  17  18
ATOM     18  S   UNL     1       9.442  -1.880  -4.829  0.00  0.00    +0.068 S 
ATOM     19  O   UNL     1      10.813  -2.241  -4.926  0.00  0.00    -0.152 OA
ATOM     20  O   UNL     1       8.951  -0.624  -5.277  0.00  0.00    -0.152 OA
BRANCH  18  21
ATOM     21  C   UNL     1       9.005  -2.014  -3.128  0.00  0.00    +0.144 A 
ATOM     22  C   UNL     1       9.584  -2.758  -2.154  0.00  0.00    +0.038 A 
ATOM     23  C   UNL     1       9.066  -2.706  -0.873  0.00  0.00    +0.030 A 
ATOM     24  C   UNL     1       7.993  -1.912  -0.630  0.00  0.00    +0.080 A 
ATOM     25  S   UNL     1       7.689  -1.198  -2.238  0.00  0.00    -0.057 S 
ATOM     26 CL   UNL     1       7.141  -1.652   0.860  0.00  0.00    -0.076 Cl
ENDBRANCH  18  21
ENDBRANCH  17  18
ENDBRANCH  11  13
BRANCH   1  28
ATOM     27  C   UNL     1       0.930   1.624   0.947  0.00  0.00    +0.009 C 
ATOM     28  C   UNL     1       0.393   0.351   0.291  0.00  0.00    +0.032 C 
ENDBRANCH   1  28
BRANCH  10  29
ATOM     29  C   UNL     1       4.933  -1.344  -6.823  0.00  0.00    +0.097 C 
BRANCH  29  30
ATOM     30  C   UNL     1       5.560   0.032  -7.054  0.00  0.00    -0.060 C 
BRANCH  30  31
ATOM     31  N   UNL     1       5.308   0.459  -8.437  0.00  0.00    +0.377 N 
ATOM     32  C   UNL     1       5.805   1.829  -8.625  0.00  0.00    -0.097 C 
ATOM     33  C   UNL     1       6.004  -0.445  -9.362  0.00  0.00    -0.097 C 
ATOM     34  H   UNL     1       4.317   0.432  -8.622  0.00  0.00    -0.083 HD
ENDBRANCH  30  31
ENDBRANCH  29  30
ENDBRANCH  10  29
TORSDOF 7
