REMARK  Name = ZINC39660394
REMARK  10 active torsions:
REMARK  status: ('A' for Active; 'I' for Inactive)
REMARK    1  A    between atoms: C_1  and  C_2
REMARK    2  A    between atoms: C_2  and  C_3
REMARK    3  A    between atoms: C_3  and  C_4
REMARK    4  A    between atoms: C_4  and  C_5
REMARK    5  A    between atoms: C_5  and  C_6
REMARK    6  A    between atoms: C_6  and  N_7
REMARK    7  A    between atoms: C_8  and  C_10
REMARK    8  A    between atoms: C_21  and  C_23
REMARK    9  A    between atoms: C_27  and  O_28
REMARK   10  A    between atoms: O_28  and  C_29
REMARK                            x       y       z     vdW  Elec       q    Type
REMARK                         _______ _______ _______ _____ _____    ______ ____
ROOT
ATOM      1  C   UNL     1      -5.862  -6.474   0.025  0.00  0.00    +0.100 C 
ATOM      2  C   UNL     1      -6.641  -5.938  -1.197  0.00  0.00    +0.121 C 
ATOM      3  N   UNL     1      -6.512  -7.002  -2.220  0.00  0.00    -0.296 N 
ATOM      4  C   UNL     1      -6.634  -8.266  -1.455  0.00  0.00    +0.115 C 
ATOM      5  C   UNL     1      -5.863  -8.003  -0.146  0.00  0.00    -0.004 C 
ATOM      6  C   UNL     1      -6.575  -8.666   1.029  0.00  0.00    -0.010 C 
ATOM      7  C   UNL     1      -6.512 -10.187   0.866  0.00  0.00    -0.082 C 
ATOM      8  N   UNL     1      -5.110 -10.618   0.811  0.00  0.00    +0.379 N 
ATOM      9  C   UNL     1      -4.457 -10.050  -0.375  0.00  0.00    -0.082 C 
ATOM     10  C   UNL     1      -4.433  -8.522  -0.264  0.00  0.00    -0.010 C 
ATOM     11  C   UNL     1      -6.325  -6.854  -3.547  0.00  0.00    +0.251 C 
ATOM     12  O   UNL     1      -6.146  -5.746  -4.016  0.00  0.00    -0.270 OA
ATOM     13  H   UNL     1      -4.630 -10.303   1.641  0.00  0.00    -0.086 HD
ATOM     14  H   UNL     1      -5.071 -11.625   0.765  0.00  0.00    -0.086 HD
ENDROOT
BRANCH  11  15
ATOM     15  C   UNL     1      -6.339  -8.031  -4.427  0.00  0.00    +0.087 A 
ATOM     16  C   UNL     1      -7.164  -9.107  -4.181  0.00  0.00    +0.063 A 
ATOM     17  S   UNL     1      -6.831 -10.179  -5.428  0.00  0.00    -0.081 S 
ATOM     18  C   UNL     1      -5.598  -9.253  -6.315  0.00  0.00    +0.120 A 
ATOM     19  C   UNL     1      -5.492  -8.113  -5.595  0.00  0.00    +0.158 A 
ATOM     20 CL   UNL     1      -4.743  -9.700  -7.759  0.00  0.00    -0.072 Cl
BRANCH  19  21
ATOM     21  O   UNL     1      -4.639  -7.111  -5.944  0.00  0.00    -0.492 OA
ATOM     22  C   UNL     1      -3.316  -7.168  -5.408  0.00  0.00    +0.277 C 
ENDBRANCH  19  21
ENDBRANCH  11  15
BRANCH   1  24
ATOM     23  N   UNL     1      -3.801  -5.748   1.184  0.00  0.00    -0.315 N 
ATOM     24  C   UNL     1      -4.450  -5.947   0.020  0.00  0.00    +0.218 C 
ATOM     25  O   UNL     1      -3.898  -5.702  -1.032  0.00  0.00    -0.275 OA
ATOM     26  H   UNL     1      -4.242  -5.944   2.026  0.00  0.00    +0.149 HD
BRANCH  23  27
ATOM     27  C   UNL     1      -2.429  -5.235   1.180  0.00  0.00    +0.104 C 
BRANCH  27  28
ATOM     28  C   UNL     1      -1.929  -5.103   2.620  0.00  0.00    +0.019 C 
BRANCH  28  29
ATOM     29  C   UNL     1      -0.496  -4.567   2.615  0.00  0.00    +0.002 C 
BRANCH  29  30
ATOM     30  C   UNL     1       0.004  -4.434   4.055  0.00  0.00    -0.000 C 
BRANCH  30  32
ATOM     31  C   UNL     1       1.937  -3.766   5.490  0.00  0.00    +0.004 C 
ATOM     32  C   UNL     1       1.437  -3.899   4.050  0.00  0.00    -0.003 C 
ENDBRANCH  30  32
ENDBRANCH  29  30
ENDBRANCH  28  29
ENDBRANCH  27  28
ENDBRANCH  23  27
ENDBRANCH   1  24
TORSDOF 8
