REMARK  Name = ZINC34835366
REMARK  19 active torsions:
REMARK  status: ('A' for Active; 'I' for Inactive)
REMARK    1  A    between atoms: C_1  and  C_2
REMARK    2  A    between atoms: C_2  and  C_3
REMARK    3  A    between atoms: C_4  and  C_24
REMARK    4  A    between atoms: C_5  and  N_15
REMARK    5  A    between atoms: N_6  and  C_8
REMARK    6  A    between atoms: N_18  and  C_21
REMARK    7  A    between atoms: C_21  and  C_22
REMARK    8  A    between atoms: C_21  and  C_23
REMARK    9  A    between atoms: C_24  and  N_25
REMARK   10  A    between atoms: N_25  and  C_26
REMARK   11  A    between atoms: C_26  and  C_27
REMARK   12  A    between atoms: C_27  and  C_28
REMARK   13  A    between atoms: C_27  and  C_29
REMARK   14  A    between atoms: C_30  and  C_32
REMARK   15  A    between atoms: C_32  and  C_33
REMARK   16  A    between atoms: C_33  and  C_34
REMARK   17  A    between atoms: C_34  and  O_36
REMARK   18  A    between atoms: O_36  and  C_37
REMARK   19  A    between atoms: C_37  and  C_38
REMARK                            x       y       z     vdW  Elec       q    Type
REMARK                         _______ _______ _______ _____ _____    ______ ____
ROOT
ATOM      1  C   UNL     1       0.467  -0.660  -0.252  0.00  0.00    +0.070 A 
ATOM      2  C   UNL     1       0.340  -0.126  -1.538  0.00  0.00    +0.033 A 
ATOM      3  C   UNL     1       1.437  -0.498  -2.254  0.00  0.00    +0.130 A 
ATOM      4  N   UNL     1       2.226  -1.245  -1.434  0.00  0.00    -0.218 N 
ATOM      5  N   UNL     1       1.593  -1.323  -0.186  0.00  0.00    -0.169 NA
ENDROOT
BRANCH   4   6
ATOM      6  C   UNL     1       3.454  -1.828  -1.776  0.00  0.00    +0.068 A 
ATOM      7  C   UNL     1       3.554  -2.628  -2.906  0.00  0.00    +0.030 A 
ATOM      8  C   UNL     1       4.765  -3.201  -3.241  0.00  0.00    +0.040 A 
ATOM      9  C   UNL     1       5.880  -2.979  -2.450  0.00  0.00    +0.124 A 
ATOM     10  C   UNL     1       5.782  -2.181  -1.322  0.00  0.00    +0.040 A 
ATOM     11  C   UNL     1       4.574  -1.602  -0.987  0.00  0.00    +0.030 A 
ATOM     12  F   UNL     1       7.063  -3.541  -2.779  0.00  0.00    -0.205 F 
ENDBRANCH   4   6
BRANCH   3  13
ATOM     13  N   UNL     1       1.702  -0.175  -3.582  0.00  0.00    -0.318 N 
ATOM     14  C   UNL     1       2.240   1.145  -3.946  0.00  0.00    +0.088 C 
ATOM     15  C   UNL     1       3.463   0.940  -4.845  0.00  0.00    -0.059 C 
ATOM     16  N   UNL     1       3.092   0.100  -5.991  0.00  0.00    +0.383 N 
ATOM     17  C   UNL     1       2.714  -1.241  -5.526  0.00  0.00    -0.059 C 
ATOM     18  C   UNL     1       1.459  -1.146  -4.660  0.00  0.00    +0.088 C 
ATOM     19  H   UNL     1       2.312   0.519  -6.475  0.00  0.00    -0.081 HD
BRANCH  16  20
ATOM     20  C   UNL     1       4.233  -0.005  -6.909  0.00  0.00    -0.075 C 
ATOM     21  C   UNL     1       3.848  -0.880  -8.104  0.00  0.00    -0.014 C 
ATOM     22  C   UNL     1       4.621   1.390  -7.403  0.00  0.00    -0.014 C 
ENDBRANCH  16  20
ENDBRANCH   3  13
BRANCH   1  24
ATOM     23  C   UNL     1      -0.249   0.821   1.605  0.00  0.00    +0.010 C 
ATOM     24  C   UNL     1      -0.524  -0.494   0.872  0.00  0.00    +0.054 C 
ENDBRANCH   1  24
BRANCH   2  25
ATOM     25  C   UNL     1      -0.806   0.712  -2.041  0.00  0.00    +0.148 C 
BRANCH  25  26
ATOM     26  N   UNL     1      -1.659  -0.101  -2.912  0.00  0.00    -0.297 N 
ATOM     27  C   UNL     1      -1.536  -0.011  -4.251  0.00  0.00    +0.216 C 
ATOM     28  O   UNL     1      -0.682   0.703  -4.735  0.00  0.00    -0.276 OA
BRANCH  26  29
ATOM     29  C   UNL     1      -2.647  -1.012  -2.327  0.00  0.00    +0.111 C 
BRANCH  29  30
ATOM     30  C   UNL     1      -4.008  -0.316  -2.265  0.00  0.00    +0.000 C 
ATOM     31  C   UNL     1      -5.062  -1.303  -1.758  0.00  0.00    +0.009 C 
ATOM     32  C   UNL     1      -3.928   0.878  -1.313  0.00  0.00    +0.009 C 
ENDBRANCH  29  30
ENDBRANCH  26  29
BRANCH  27  33
ATOM     33  C   UNL     1      -2.458  -0.796  -5.147  0.00  0.00    +0.107 C 
BRANCH  33  34
ATOM     34  C   UNL     1      -2.108  -0.516  -6.610  0.00  0.00    +0.130 C 
BRANCH  34  35
ATOM     35  C   UNL     1      -3.031  -1.301  -7.507  0.00  0.00    +0.308 C 
ATOM     36  O   UNL     1      -3.881  -2.011  -7.025  0.00  0.00    -0.251 OA
BRANCH  35  37
ATOM     37  O   UNL     1      -2.908  -1.211  -8.840  0.00  0.00    -0.465 OA
BRANCH  37  38
ATOM     38  C   UNL     1      -3.816  -1.983  -9.629  0.00  0.00    +0.229 C 
ATOM     39  C   UNL     1      -3.525  -1.753 -11.113  0.00  0.00    +0.048 C 
ENDBRANCH  37  38
ENDBRANCH  35  37
ENDBRANCH  34  35
ENDBRANCH  33  34
ENDBRANCH  27  33
ENDBRANCH  25  26
ENDBRANCH   2  25
TORSDOF 13
