REMARK  Name = ZINC35700865
REMARK  14 active torsions:
REMARK  status: ('A' for Active; 'I' for Inactive)
REMARK    1  A    between atoms: C_1  and  C_2
REMARK    2  A    between atoms: C_2  and  O_3
REMARK    3  A    between atoms: O_3  and  C_4
REMARK    4  A    between atoms: C_4  and  C_6
REMARK    5  A    between atoms: C_7  and  C_38
REMARK    6  A    between atoms: C_11  and  C_13
REMARK    7  A    between atoms: C_16  and  C_19
REMARK    8  A    between atoms: C_19  and  C_20
REMARK    9  A    between atoms: C_19  and  C_21
REMARK   10  A    between atoms: C_22  and  C_25
REMARK   11  A    between atoms: C_26  and  N_28
REMARK   12  A    between atoms: N_28  and  C_29
REMARK   13  A    between atoms: C_29  and  C_31
REMARK   14  A    between atoms: C_29  and  C_32
REMARK                            x       y       z     vdW  Elec       q    Type
REMARK                         _______ _______ _______ _____ _____    ______ ____
ROOT
ATOM      1  C   UNL     1       1.400  -2.598  -2.505  0.00  0.00    +0.082 C 
ATOM      2  C   UNL     1       1.885  -3.876  -2.707  0.00  0.00    +0.053 C 
ATOM      3  N   UNL     1       2.509  -4.187  -3.831  0.00  0.00    -0.230 NA
ATOM      4  C   UNL     1       2.723  -3.353  -4.827  0.00  0.00    +0.166 C 
ATOM      5  N   UNL     1       2.323  -2.045  -4.827  0.00  0.00    -0.267 N 
ATOM      6  C   UNL     1       1.603  -1.585  -3.609  0.00  0.00    +0.150 C 
ATOM      7  C   UNL     1       2.622  -1.298  -5.948  0.00  0.00    +0.048 C 
ATOM      8  C   UNL     1       3.282  -1.913  -6.954  0.00  0.00    +0.072 C 
ATOM      9  S   UNL     1       3.483  -3.561  -6.309  0.00  0.00    -0.060 S 
ATOM     10  C   UNL     1       1.702  -4.923  -1.638  0.00  0.00    +0.066 C 
ENDROOT
BRANCH   6  11
ATOM     11  C   UNL     1       2.369  -0.421  -3.035  0.00  0.00    -0.022 A 
ATOM     12  C   UNL     1       3.715  -0.554  -2.746  0.00  0.00    +0.006 A 
ATOM     13  C   UNL     1       4.417   0.514  -2.220  0.00  0.00    +0.004 A 
ATOM     14  C   UNL     1       3.775   1.715  -1.983  0.00  0.00    -0.045 A 
ATOM     15  C   UNL     1       2.430   1.848  -2.273  0.00  0.00    +0.004 A 
ATOM     16  C   UNL     1       1.728   0.782  -2.803  0.00  0.00    +0.006 A 
BRANCH  14  17
ATOM     17  C   UNL     1       4.541   2.878  -1.408  0.00  0.00    +0.013 C 
ATOM     18  C   UNL     1       4.577   4.019  -2.428  0.00  0.00    +0.012 C 
ATOM     19  C   UNL     1       3.853   3.360  -0.129  0.00  0.00    +0.012 C 
ENDBRANCH  14  17
ENDBRANCH   6  11
BRANCH   7  20
ATOM     20  C   UNL     1       2.234   0.117  -6.045  0.00  0.00    +0.091 C 
ATOM     21  C   UNL     1       2.412   0.786  -7.200  0.00  0.00    +0.239 C 
ATOM     22  O   UNL     1       2.827   0.126  -8.309  0.00  0.00    -0.271 OA
BRANCH  21  23
ATOM     23  N   UNL     1       2.170   2.149  -7.255  0.00  0.00    -0.305 N 
ATOM     24  H   UNL     1       1.946   2.634  -6.446  0.00  0.00    +0.150 HD
BRANCH  23  25
ATOM     25  C   UNL     1       2.254   2.856  -8.535  0.00  0.00    +0.100 C 
ATOM     26  C   UNL     1       0.900   2.787  -9.246  0.00  0.00    +0.033 C 
BRANCH  25  27
ATOM     27  C   UNL     1       2.619   4.297  -8.290  0.00  0.00    -0.027 A 
ATOM     28  C   UNL     1       2.068   4.978  -7.220  0.00  0.00    +0.005 A 
ATOM     29  C   UNL     1       2.403   6.300  -6.995  0.00  0.00    +0.000 A 
ATOM     30  C   UNL     1       3.289   6.941  -7.839  0.00  0.00    +0.000 A 
ATOM     31  C   UNL     1       3.842   6.261  -8.908  0.00  0.00    +0.000 A 
ATOM     32  C   UNL     1       3.510   4.938  -9.131  0.00  0.00    +0.005 A 
ENDBRANCH  25  27
ENDBRANCH  23  25
ENDBRANCH  21  23
ENDBRANCH   7  20
BRANCH   1  33
ATOM     33  C   UNL     1       0.738  -2.255  -1.321  0.00  0.00    +0.339 C 
ATOM     34  O   UNL     1       0.466  -3.116  -0.502  0.00  0.00    -0.245 OA
BRANCH  33  35
ATOM     35  O   UNL     1       0.400  -0.967  -1.084  0.00  0.00    -0.462 OA
BRANCH  35  37
ATOM     36  C   UNL     1      -0.573   0.809   0.234  0.00  0.00    +0.048 C 
ATOM     37  C   UNL     1      -0.274  -0.689   0.144  0.00  0.00    +0.229 C 
ENDBRANCH  35  37
ENDBRANCH  33  35
ENDBRANCH   1  33
TORSDOF 9
