REMARK  Name = ZINC13256725
REMARK  10 active torsions:
REMARK  status: ('A' for Active; 'I' for Inactive)
REMARK    1  A    between atoms: C_2  and  C_3
REMARK    2  A    between atoms: C_3  and  N_4
REMARK    3  A    between atoms: N_4  and  C_5
REMARK    4  A    between atoms: N_4  and  S_11
REMARK    5  A    between atoms: S_11  and  C_14
REMARK    6  A    between atoms: C_18  and  C_20
REMARK    7  A    between atoms: N_22  and  C_23
REMARK    8  A    between atoms: C_23  and  C_25
REMARK    9  A    between atoms: C_23  and  C_28
REMARK   10  A    between atoms: C_25  and  C_26
REMARK                            x       y       z     vdW  Elec       q    Type
REMARK                         _______ _______ _______ _____ _____    ______ ____
ROOT
ATOM      1  C   UNL     1       2.259   3.972  -0.039  0.00  0.00    +0.109 A 
ATOM      2  C   UNL     1       3.239   3.003  -0.172  0.00  0.00    +0.029 A 
ATOM      3  C   UNL     1       2.889   1.672  -0.311  0.00  0.00    +0.003 A 
ATOM      4  C   UNL     1       1.560   1.301  -0.318  0.00  0.00    +0.013 A 
ATOM      5  C   UNL     1       0.567   2.273  -0.184  0.00  0.00    +0.039 A 
ATOM      6  C   UNL     1       0.927   3.615  -0.049  0.00  0.00    +0.041 A 
ENDROOT
BRANCH   5   7
ATOM      7  C   UNL     1      -0.859   1.884  -0.192  0.00  0.00    +0.245 C 
ATOM      8  O   UNL     1      -1.722   2.733  -0.080  0.00  0.00    -0.270 OA
ATOM      9  N   UNL     1      -1.203   0.588  -0.328  0.00  0.00    -0.304 N 
ATOM     10  H   UNL     1      -0.519  -0.081  -0.492  0.00  0.00    +0.150 HD
BRANCH   9  11
ATOM     11  C   UNL     1      -2.609   0.189  -0.229  0.00  0.00    +0.114 C 
BRANCH  11  12
ATOM     12  C   UNL     1      -2.694  -1.230   0.272  0.00  0.00    -0.027 A 
ATOM     13  C   UNL     1      -1.800  -2.180  -0.186  0.00  0.00    +0.007 A 
ATOM     14  C   UNL     1      -1.874  -3.480   0.277  0.00  0.00    +0.020 A 
ATOM     15  C   UNL     1      -2.851  -3.834   1.191  0.00  0.00    +0.041 A 
ATOM     16  C   UNL     1      -3.749  -2.885   1.644  0.00  0.00    +0.020 A 
ATOM     17  C   UNL     1      -3.671  -1.583   1.185  0.00  0.00    +0.007 A 
ATOM     18 CL   UNL     1      -2.949  -5.468   1.767  0.00  0.00    -0.084 Cl
ENDBRANCH  11  12
BRANCH  11  19
ATOM     19  C   UNL     1      -3.264   0.283  -1.608  0.00  0.00    +0.152 C 
BRANCH  19  20
ATOM     20  C   UNL     1      -4.748   0.051  -1.476  0.00  0.00    +0.358 C 
ATOM     21  O   UNL     1      -5.227  -0.194  -0.395  0.00  0.00    -0.246 OA
ATOM     22  O   UNL     1      -5.536   0.116  -2.561  0.00  0.00    -0.246 OA
ENDBRANCH  19  20
ENDBRANCH  11  19
ENDBRANCH   9  11
ENDBRANCH   5   7
BRANCH   1  23
ATOM     23  S   UNL     1       2.715   5.664   0.138  0.00  0.00    +0.075 S 
ATOM     24  O   UNL     1       1.632   6.311   0.792  0.00  0.00    -0.150 OA
ATOM     25  O   UNL     1       4.037   5.677   0.659  0.00  0.00    -0.150 OA
BRANCH  23  26
ATOM     26  N   UNL     1       2.801   6.309  -1.385  0.00  0.00    -0.199 N 
BRANCH  26  27
ATOM     27  C   UNL     1       3.978   6.190  -2.129  0.00  0.00    +0.052 A 
ATOM     28  C   UNL     1       3.970   5.507  -3.339  0.00  0.00    +0.025 A 
ATOM     29  C   UNL     1       5.133   5.395  -4.074  0.00  0.00    +0.002 A 
ATOM     30  C   UNL     1       6.308   5.952  -3.601  0.00  0.00    +0.000 A 
ATOM     31  C   UNL     1       6.320   6.627  -2.395  0.00  0.00    +0.002 A 
ATOM     32  C   UNL     1       5.159   6.748  -1.657  0.00  0.00    +0.025 A 
ENDBRANCH  26  27
BRANCH  26  33
ATOM     33  C   UNL     1       1.644   7.006  -1.952  0.00  0.00    +0.158 C 
BRANCH  33  35
ATOM     34  C   UNL     1       1.722   9.325  -2.712  0.00  0.00    +0.005 C 
ATOM     35  C   UNL     1       1.778   8.486  -1.707  0.00  0.00    -0.014 C 
ENDBRANCH  33  35
ENDBRANCH  26  33
ENDBRANCH  23  26
ENDBRANCH   1  23
TORSDOF 10
