REMARK  Name = ZINC13163365
REMARK  7 active torsions:
REMARK  status: ('A' for Active; 'I' for Inactive)
REMARK    1  A    between atoms: C_1  and  N_58
REMARK    2  A    between atoms: C_2  and  C_3
REMARK    3  A    between atoms: C_2  and  N_58
REMARK    4  A    between atoms: N_5  and  C_6
REMARK    5  A    between atoms: C_7  and  C_15
REMARK    6  A    between atoms: N_17  and  C_18
REMARK    7  A    between atoms: C_25  and  N_58
REMARK                            x       y       z     vdW  Elec       q    Type
REMARK                         _______ _______ _______ _____ _____    ______ ____
ROOT
ATOM      1  C   UNL     1       0.281   0.955  -7.314  0.00  0.00    +0.084 A 
ATOM      2  C   UNL     1      -0.067   1.006  -8.657  0.00  0.00    +0.069 A 
ATOM      3  C   UNL     1       0.891   0.488  -9.619  0.00  0.00    -0.023 A 
ATOM      4  C   UNL     1       2.035   0.005  -9.088  0.00  0.00    -0.004 A 
ATOM      5  S   UNL     1       1.857   0.236  -7.342  0.00  0.00    -0.077 S 
ATOM      6  C   UNL     1       3.194  -0.589  -9.828  0.00  0.00    +0.043 C 
ATOM      7  C   UNL     1       2.740  -0.913 -11.258  0.00  0.00    +0.005 C 
ATOM      8  C   UNL     1       2.004   0.302 -11.830  0.00  0.00    +0.005 C 
ATOM      9  C   UNL     1       0.657   0.474 -11.124  0.00  0.00    +0.037 C 
ENDROOT
BRANCH   1  12
ATOM     10  C   UNL     1       0.054   1.250  -4.975  0.00  0.00    +0.201 C 
ATOM     11  O   UNL     1       1.151   0.757  -4.817  0.00  0.00    -0.278 OA
ATOM     12  N   UNL     1      -0.452   1.382  -6.217  0.00  0.00    -0.281 N 
ATOM     13  H   UNL     1      -1.330   1.776  -6.344  0.00  0.00    +0.155 HD
BRANCH  10  14
ATOM     14  C   UNL     1      -0.743   1.714  -3.784  0.00  0.00    +0.019 C 
BRANCH  14  16
ATOM     15  C   UNL     1       1.233   2.290  -2.509  0.00  0.00    -0.095 C 
ATOM     16  N   UNL     1       0.030   1.434  -2.555  0.00  0.00    +0.387 N 
ATOM     17  H   UNL     1       0.321   0.449  -2.562  0.00  0.00    -0.081 HD
BRANCH  16  18
ATOM     18  C   UNL     1      -0.810   1.678  -1.363  0.00  0.00    -0.046 C 
ATOM     19  C   UNL     1      -2.075   0.810  -1.459  0.00  0.00    +0.009 C 
ATOM     20  C   UNL     1      -2.771   0.814  -0.068  0.00  0.00    +0.164 C 
ATOM     21  S   UNL     1      -1.307   0.680   1.042  0.00  0.00    -0.033 S 
ATOM     22  O   UNL     1      -1.063  -0.691   1.325  0.00  0.00    -0.174 OA
ATOM     23  O   UNL     1      -1.454   1.600   2.115  0.00  0.00    -0.174 OA
ATOM     24  C   UNL     1      -0.003   1.297  -0.099  0.00  0.00    +0.151 C 
ENDBRANCH  16  18
ENDBRANCH  14  16
ENDBRANCH  10  14
ENDBRANCH   1  12
BRANCH   2  25
ATOM     25  C   UNL     1      -1.352   1.563  -9.089  0.00  0.00    +0.251 C 
ATOM     26  O   UNL     1      -1.447   2.749  -9.345  0.00  0.00    -0.270 OA
ATOM     27  N   UNL     1      -2.430   0.761  -9.202  0.00  0.00    -0.281 N 
ATOM     28  H   UNL     1      -2.372  -0.170  -8.935  0.00  0.00    +0.155 HD
BRANCH  27  29
ATOM     29  C   UNL     1      -3.632   1.272  -9.704  0.00  0.00    +0.034 A 
ATOM     30  C   UNL     1      -4.007   2.578  -9.418  0.00  0.00    +0.025 A 
ATOM     31  C   UNL     1      -5.191   3.080  -9.919  0.00  0.00    +0.022 A 
ATOM     32  C   UNL     1      -6.010   2.281 -10.697  0.00  0.00    +0.041 A 
ATOM     33  C   UNL     1      -5.641   0.977 -10.980  0.00  0.00    +0.022 A 
ATOM     34  C   UNL     1      -4.455   0.471 -10.486  0.00  0.00    +0.025 A 
ATOM     35 CL   UNL     1      -7.501   2.914 -11.321  0.00  0.00    -0.084 Cl
ENDBRANCH  27  29
ENDBRANCH   2  25
TORSDOF 6
