REMARK  Name = ZINC09793709
REMARK  13 active torsions:
REMARK  status: ('A' for Active; 'I' for Inactive)
REMARK    1  A    between atoms: C_1  and  C_2
REMARK    2  A    between atoms: C_5  and  C_33
REMARK    3  A    between atoms: C_6  and  O_8
REMARK    4  A    between atoms: O_8  and  C_9
REMARK    5  A    between atoms: C_9  and  C_10
REMARK    6  A    between atoms: C_13  and  S_16
REMARK    7  A    between atoms: N_14  and  N_15
REMARK    8  A    between atoms: S_16  and  C_17
REMARK    9  A    between atoms: C_17  and  C_18
REMARK   10  A    between atoms: C_30  and  C_31
REMARK   11  A    between atoms: C_30  and  C_32
REMARK   12  A    between atoms: C_33  and  C_34
REMARK   13  A    between atoms: C_33  and  C_35
REMARK                            x       y       z     vdW  Elec       q    Type
REMARK                         _______ _______ _______ _____ _____    ______ ____
ROOT
ATOM      1  C   UNL     1      -4.624  -3.847  -2.218  0.00  0.00    +0.189 A 
ATOM      2  N   UNL     1      -3.337  -3.690  -2.089  0.00  0.00    -0.128 NA
ATOM      3  N   UNL     1      -3.083  -2.553  -1.547  0.00  0.00    -0.121 NA
ATOM      4  C   UNL     1      -4.205  -1.917  -1.298  0.00  0.00    +0.209 A 
ATOM      5  N   UNL     1      -5.223  -2.726  -1.714  0.00  0.00    -0.225 N 
ENDROOT
BRANCH   5   6
ATOM      6  N   UNL     1      -6.563  -2.467  -1.643  0.00  0.00    -0.295 N 
ATOM      7  H   UNL     1      -6.886  -2.001  -2.478  0.00  0.00    +0.163 HD
ATOM      8  H   UNL     1      -7.086  -3.314  -1.476  0.00  0.00    +0.163 HD
ENDBRANCH   5   6
BRANCH   1   9
ATOM      9  C   UNL     1      -5.323  -5.045  -2.808  0.00  0.00    +0.306 C 
BRANCH   9  10
ATOM     10  O   UNL     1      -5.598  -5.993  -1.775  0.00  0.00    -0.484 OA
BRANCH  10  16
ATOM     11  C   UNL     1      -7.600  -8.738  -5.278  0.00  0.00    +0.044 C 
ATOM     12  C   UNL     1      -7.221  -8.512  -3.837  0.00  0.00    -0.047 A 
ATOM     13  C   UNL     1      -7.516  -9.472  -2.886  0.00  0.00    +0.004 A 
ATOM     14  C   UNL     1      -7.170  -9.267  -1.564  0.00  0.00    +0.008 A 
ATOM     15  C   UNL     1      -6.522  -8.105  -1.190  0.00  0.00    -0.003 A 
ATOM     16  C   UNL     1      -6.230  -7.139  -2.141  0.00  0.00    +0.125 A 
ATOM     17  C   UNL     1      -6.579  -7.346  -3.468  0.00  0.00    +0.049 A 
BRANCH  15  18
ATOM     18  C   UNL     1      -6.139  -7.886   0.251  0.00  0.00    +0.016 C 
ATOM     19  C   UNL     1      -7.396  -7.910   1.123  0.00  0.00    +0.012 C 
ATOM     20  C   UNL     1      -5.185  -8.995   0.700  0.00  0.00    +0.012 C 
ENDBRANCH  15  18
ENDBRANCH  10  16
ENDBRANCH   9  10
ENDBRANCH   1   9
BRANCH   4  21
ATOM     21  S   UNL     1      -4.365  -0.325  -0.561  0.00  0.00    -0.075 S 
BRANCH  21  22
ATOM     22  C   UNL     1      -2.620   0.077  -0.299  0.00  0.00    +0.173 C 
BRANCH  22  23
ATOM     23  C   UNL     1      -2.509   1.437   0.341  0.00  0.00    +0.231 C 
ATOM     24  O   UNL     1      -3.506   2.008   0.730  0.00  0.00    -0.274 OA
ATOM     25  N   UNL     1      -1.301   2.019   0.482  0.00  0.00    -0.255 N 
ATOM     26  C   UNL     1      -1.182   3.338   0.946  0.00  0.00    +0.059 A 
ATOM     27  C   UNL     1      -2.179   4.269   0.715  0.00  0.00    +0.025 A 
ATOM     28  C   UNL     1      -2.029   5.564   1.177  0.00  0.00    +0.002 A 
ATOM     29  C   UNL     1      -0.887   5.929   1.866  0.00  0.00    +0.002 A 
ATOM     30  C   UNL     1       0.113   5.003   2.102  0.00  0.00    +0.025 A 
ATOM     31  C   UNL     1      -0.030   3.702   1.645  0.00  0.00    +0.055 A 
ATOM     32  N   UNL     1       0.964   2.747   1.882  0.00  0.00    -0.282 N 
ATOM     33  C   UNL     1       0.968   1.578   1.214  0.00  0.00    +0.241 C 
ATOM     34  O   UNL     1       1.814   0.746   1.466  0.00  0.00    -0.273 OA
ATOM     35  C   UNL     1      -0.066   1.291   0.155  0.00  0.00    +0.113 C 
ATOM     36  C   UNL     1       0.455   1.752  -1.208  0.00  0.00    +0.042 C 
ATOM     37  C   UNL     1      -0.351  -0.212   0.113  0.00  0.00    +0.042 C 
ATOM     38  H   UNL     1       1.658   2.929   2.535  0.00  0.00    +0.155 HD
ENDBRANCH  22  23
ENDBRANCH  21  22
ENDBRANCH   4  21
TORSDOF 8
