REMARK  Name = ZINC40752158
REMARK  6 active torsions:
REMARK  status: ('A' for Active; 'I' for Inactive)
REMARK    1  A    between atoms: C_4  and  C_7
REMARK    2  A    between atoms: C_7  and  C_8
REMARK    3  A    between atoms: C_7  and  N_14
REMARK    4  A    between atoms: C_16  and  N_32
REMARK    5  A    between atoms: C_17  and  O_21
REMARK    6  A    between atoms: O_21  and  C_22
REMARK                            x       y       z     vdW  Elec       q    Type
REMARK                         _______ _______ _______ _____ _____    ______ ____
ROOT
ATOM      1  N   UNL     1       3.807  -1.884  -0.915  0.00  0.00    -0.317 N 
ATOM      2  C   UNL     1       4.018  -1.737  -2.280  0.00  0.00    +0.147 A 
ATOM      3  C   UNL     1       3.827  -2.815  -3.148  0.00  0.00    +0.128 A 
ATOM      4  C   UNL     1       4.052  -2.613  -4.509  0.00  0.00    +0.246 A 
ATOM      5  N   UNL     1       4.437  -1.411  -4.927  0.00  0.00    -0.199 NA
ATOM      6  C   UNL     1       4.607  -0.420  -4.076  0.00  0.00    +0.227 A 
ATOM      7  N   UNL     1       4.400  -0.566  -2.783  0.00  0.00    -0.219 NA
ATOM      8  H   UNL     1       3.529  -2.741  -0.557  0.00  0.00    +0.148 HD
ENDROOT
BRANCH   3   9
ATOM      9  N   UNL     1       3.419  -4.068  -2.663  0.00  0.00    -0.351 N 
ATOM     10  H   UNL     1       3.267  -4.194  -1.714  0.00  0.00    +0.143 HD
ATOM     11  H   UNL     1       3.290  -4.807  -3.278  0.00  0.00    +0.143 HD
ENDBRANCH   3   9
BRANCH   1  12
ATOM     12  C   UNL     1       4.005  -0.744  -0.016  0.00  0.00    +0.132 C 
BRANCH  12  16
ATOM     13  C   UNL     1       0.444   1.612   0.100  0.00  0.00    +0.000 A 
ATOM     14  C   UNL     1       1.681   2.229   0.079  0.00  0.00    +0.000 A 
ATOM     15  C   UNL     1       2.833   1.467   0.042  0.00  0.00    +0.006 A 
ATOM     16  C   UNL     1       2.749   0.087   0.025  0.00  0.00    -0.023 A 
ATOM     17  C   UNL     1       1.512  -0.530   0.047  0.00  0.00    +0.006 A 
ATOM     18  C   UNL     1       0.360   0.233   0.083  0.00  0.00    +0.000 A 
ENDBRANCH  12  16
BRANCH  12  19
ATOM     19  C   UNL     1       4.322  -1.246   1.369  0.00  0.00    -0.023 A 
ATOM     20  C   UNL     1       3.658  -2.348   1.874  0.00  0.00    +0.006 A 
ATOM     21  C   UNL     1       3.948  -2.808   3.144  0.00  0.00    +0.000 A 
ATOM     22  C   UNL     1       4.904  -2.166   3.910  0.00  0.00    +0.000 A 
ATOM     23  C   UNL     1       5.569  -1.065   3.405  0.00  0.00    +0.000 A 
ATOM     24  C   UNL     1       5.281  -0.607   2.133  0.00  0.00    +0.006 A 
ENDBRANCH  12  19
ENDBRANCH   1  12
BRANCH   4  25
ATOM     25  O   UNL     1       3.881  -3.628  -5.393  0.00  0.00    -0.434 OA
BRANCH  25  26
ATOM     26  C   UNL     1       4.011  -3.349  -6.716  0.00  0.00    +0.156 A 
ATOM     27  C   UNL     1       2.903  -3.044  -7.473  0.00  0.00    +0.048 A 
ATOM     28  C   UNL     1       3.023  -2.756  -8.830  0.00  0.00    +0.004 A 
ATOM     29  C   UNL     1       4.238  -2.769  -9.444  0.00  0.00    +0.010 A 
ATOM     30  C   UNL     1       5.392  -3.077  -8.706  0.00  0.00    +0.004 A 
ATOM     31  C   UNL     1       5.285  -3.366  -7.323  0.00  0.00    +0.113 A 
ATOM     32  N   UNL     1       6.381  -3.654  -6.616  0.00  0.00    -0.251 NA
ATOM     33  C   UNL     1       7.567  -3.670  -7.175  0.00  0.00    +0.111 A 
ATOM     34  C   UNL     1       7.744  -3.390  -8.528  0.00  0.00    +0.020 A 
ATOM     35  C   UNL     1       6.663  -3.100  -9.310  0.00  0.00    +0.011 A 
ENDBRANCH  25  26
ENDBRANCH   4  25
TORSDOF 6
