REMARK  Name = ZINC37055493
REMARK  5 active torsions:
REMARK  status: ('A' for Active; 'I' for Inactive)
REMARK    1  A    between atoms: C_1  and  C_2
REMARK    2  A    between atoms: C_2  and  N_3
REMARK    3  A    between atoms: N_6  and  S_9
REMARK    4  A    between atoms: S_9  and  C_12
REMARK    5  A    between atoms: C_15  and  N_19
REMARK                            x       y       z     vdW  Elec       q    Type
REMARK                         _______ _______ _______ _____ _____    ______ ____
ROOT
ATOM      1  S   UNL     1      -4.558  -3.034   1.639  0.00  0.00    +0.063 S 
ATOM      2  O   UNL     1      -4.025  -4.330   1.402  0.00  0.00    -0.153 OA
ATOM      3  O   UNL     1      -4.691  -2.493   2.946  0.00  0.00    -0.153 OA
ENDROOT
BRANCH   1   4
ATOM      4  C   UNL     1      -6.166  -3.012   0.919  0.00  0.00    +0.133 A 
ATOM      5  C   UNL     1      -7.115  -2.115   1.376  0.00  0.00    +0.047 A 
ATOM      6  C   UNL     1      -8.377  -2.096   0.814  0.00  0.00    +0.040 A 
ATOM      7  C   UNL     1      -8.693  -2.977  -0.212  0.00  0.00    +0.027 A 
ATOM      8  C   UNL     1      -7.737  -3.876  -0.670  0.00  0.00    +0.040 A 
ATOM      9  C   UNL     1      -6.476  -3.888  -0.107  0.00  0.00    +0.047 A 
ATOM     10 BR   UNL     1      -5.172  -5.106  -0.734  0.00  0.00    -0.048 Br
ATOM     11 BR   UNL     1      -6.685  -0.915   2.773  0.00  0.00    -0.048 Br
BRANCH   7  12
ATOM     12  N   UNL     1      -9.967  -2.960  -0.783  0.00  0.00    -0.358 N 
ATOM     13  H   UNL     1     -10.634  -2.332  -0.463  0.00  0.00    +0.142 HD
ATOM     14  H   UNL     1     -10.186  -3.576  -1.499  0.00  0.00    +0.142 HD
ENDBRANCH   7  12
ENDBRANCH   1   4
BRANCH   1  18
ATOM     15  N   UNL     1      -1.376  -0.512   0.012  0.00  0.00    -0.300 NA
ATOM     16  C   UNL     1      -2.053  -0.172   1.271  0.00  0.00    +0.101 C 
ATOM     17  C   UNL     1      -3.533  -0.557   1.171  0.00  0.00    +0.125 C 
ATOM     18  N   UNL     1      -3.622  -1.972   0.780  0.00  0.00    -0.174 NA
ATOM     19  C   UNL     1      -2.858  -2.419  -0.395  0.00  0.00    +0.125 C 
ATOM     20  C   UNL     1      -1.405  -1.961  -0.233  0.00  0.00    +0.101 C 
BRANCH  15  22
ATOM     21  C   UNL     1      -0.019   1.526   0.010  0.00  0.00    +0.020 C 
ATOM     22  C   UNL     1       0.002  -0.004   0.002  0.00  0.00    +0.081 C 
ENDBRANCH  15  22
ENDBRANCH   1  18
TORSDOF 4
