REMARK  Name = ZINC15319866
REMARK  4 active torsions:
REMARK  status: ('A' for Active; 'I' for Inactive)
REMARK    1  A    between atoms: C_1  and  C_2
REMARK    2  A    between atoms: N_10  and  C_13
REMARK    3  A    between atoms: N_28  and  C_31
REMARK    4  A    between atoms: C_31  and  C_32
REMARK                            x       y       z     vdW  Elec       q    Type
REMARK                         _______ _______ _______ _____ _____    ______ ____
ROOT
ATOM      1  C   UNL     1      -0.192   1.605  -0.618  0.00  0.00    +0.025 C 
ATOM      2  C   UNL     1      -0.127   0.101  -0.342  0.00  0.00    +0.064 C 
ATOM      3  C   UNL     1       0.764  -0.599  -1.389  0.00  0.00    +0.107 C 
ATOM      4  C   UNL     1       1.529  -1.694  -0.595  0.00  0.00    +0.123 C 
ATOM      5  C   UNL     1       2.970  -1.245  -0.684  0.00  0.00    +0.233 C 
ATOM      6  O   UNL     1       3.917  -1.827  -0.197  0.00  0.00    -0.274 OA
ATOM      7  N   UNL     1       3.040  -0.107  -1.383  0.00  0.00    -0.210 N 
ATOM      8  C   UNL     1       1.850   0.352  -1.837  0.00  0.00    +0.232 C 
ATOM      9  O   UNL     1       1.675   1.358  -2.490  0.00  0.00    -0.274 OA
ATOM     10  C   UNL     1       1.019  -1.553   0.845  0.00  0.00    +0.136 C 
ATOM     11  N   UNL     1       0.538  -0.156   0.963  0.00  0.00    -0.296 NA
ATOM     12  C   UNL     1      -0.058  -2.555   1.147  0.00  0.00    +0.004 A 
ATOM     13  C   UNL     1      -1.294  -2.813   0.598  0.00  0.00    +0.008 A 
ATOM     14  C   UNL     1      -2.080  -3.831   1.108  0.00  0.00    +0.000 A 
ATOM     15  C   UNL     1      -1.620  -4.589   2.170  0.00  0.00    +0.002 A 
ATOM     16  C   UNL     1      -0.383  -4.334   2.724  0.00  0.00    +0.024 A 
ATOM     17  C   UNL     1       0.414  -3.310   2.217  0.00  0.00    +0.042 A 
ATOM     18  N   UNL     1       1.681  -2.864   2.600  0.00  0.00    -0.268 N 
ATOM     19  C   UNL     1       2.107  -1.834   1.845  0.00  0.00    +0.245 C 
ATOM     20  O   UNL     1       3.164  -1.247   1.949  0.00  0.00    -0.273 OA
ATOM     21  H   UNL     1       1.301   0.487   1.113  0.00  0.00    +0.123 HD
ENDROOT
BRANCH   7  22
ATOM     22  C   UNL     1       4.249   0.556  -1.635  0.00  0.00    +0.045 A 
ATOM     23  C   UNL     1       5.201  -0.023  -2.462  0.00  0.00    +0.024 A 
ATOM     24  C   UNL     1       6.391   0.633  -2.709  0.00  0.00    +0.003 A 
ATOM     25  C   UNL     1       6.636   1.865  -2.132  0.00  0.00    +0.020 A 
ATOM     26  C   UNL     1       5.689   2.446  -1.306  0.00  0.00    +0.043 A 
ATOM     27  C   UNL     1       4.494   1.796  -1.060  0.00  0.00    +0.044 A 
ATOM     28 CL   UNL     1       6.000   3.993  -0.583  0.00  0.00    -0.083 Cl
ENDBRANCH   7  22
BRANCH  18  29
ATOM     29  C   UNL     1       2.456  -3.449   3.697  0.00  0.00    +0.125 C 
BRANCH  29  30
ATOM     30  C   UNL     1       3.332  -4.580   3.156  0.00  0.00    +0.099 C 
ATOM     31 BR   UNL     1       4.372  -5.365   4.628  0.00  0.00    -0.090 Br
ENDBRANCH  29  30
ENDBRANCH  18  29
TORSDOF 3
