REMARK  Name = ZINC41088056
REMARK  6 active torsions:
REMARK  status: ('A' for Active; 'I' for Inactive)
REMARK    1  A    between atoms: C_1  and  C_2
REMARK    2  A    between atoms: C_7  and  O_10
REMARK    3  A    between atoms: O_10  and  C_11
REMARK    4  A    between atoms: C_11  and  C_13
REMARK    5  A    between atoms: C_15  and  N_19
REMARK    6  A    between atoms: N_17  and  C_18
REMARK                            x       y       z     vdW  Elec       q    Type
REMARK                         _______ _______ _______ _____ _____    ______ ____
ROOT
ATOM      1  C   UNL     1       1.070  -3.708   2.888  0.00  0.00    +0.356 C 
ATOM      2  O   UNL     1       0.172  -4.329   2.353  0.00  0.00    -0.243 OA
ENDROOT
BRANCH   1   3
ATOM      3  C   UNL     1       1.734  -4.255   4.073  0.00  0.00    +0.129 A 
ATOM      4  C   UNL     1       1.449  -5.461   4.683  0.00  0.00    +0.057 A 
ATOM      5  C   UNL     1       2.318  -5.587   5.774  0.00  0.00    +0.043 A 
ATOM      6  C   UNL     1       3.103  -4.477   5.810  0.00  0.00    +0.108 A 
ATOM      7  N   UNL     1       2.758  -3.664   4.777  0.00  0.00    -0.343 N 
ATOM      8  C   UNL     1       3.374  -2.372   4.465  0.00  0.00    +0.149 C 
BRANCH   5   9
ATOM      9  N   UNL     1       2.370  -6.668   6.673  0.00  0.00    -0.357 N 
ATOM     10  H   UNL     1       1.766  -7.419   6.564  0.00  0.00    +0.142 HD
ATOM     11  H   UNL     1       3.010  -6.663   7.402  0.00  0.00    +0.142 HD
ENDBRANCH   5   9
ENDBRANCH   1   3
BRANCH   1  12
ATOM     12  O   UNL     1       1.454  -2.514   2.391  0.00  0.00    -0.457 OA
BRANCH  12  18
ATOM     13  C   UNL     1      -0.019   1.526   0.010  0.00  0.00    +0.007 C 
ATOM     14  C   UNL     1       0.002  -0.004   0.002  0.00  0.00    -0.011 C 
ATOM     15  C   UNL     1       0.718  -0.497  -1.257  0.00  0.00    +0.003 C 
ATOM     16  C   UNL     1       0.739  -2.027  -1.265  0.00  0.00    +0.004 C 
ATOM     17  C   UNL     1       1.479  -2.534  -0.026  0.00  0.00    +0.045 C 
ATOM     18  C   UNL     1       0.763  -2.041   1.233  0.00  0.00    +0.177 C 
ATOM     19  C   UNL     1       0.742  -0.511   1.242  0.00  0.00    +0.048 C 
ENDBRANCH  12  18
ENDBRANCH   1  12
TORSDOF 4
