REMARK  Name = ZINC15637042
REMARK  3 active torsions:
REMARK  status: ('A' for Active; 'I' for Inactive)
REMARK    1  A    between atoms: C_8  and  N_9
REMARK    2  A    between atoms: N_9  and  N_10
REMARK    3  A    between atoms: C_11  and  C_13
REMARK                            x       y       z     vdW  Elec       q    Type
REMARK                         _______ _______ _______ _____ _____    ______ ____
ROOT
ATOM      1  N   UNL     1      -0.549  -3.046   0.092  0.00  0.00    -0.271 N 
ATOM      2  H   UNL     1      -0.934  -2.156   0.100  0.00  0.00    +0.169 HD
ENDROOT
BRANCH   1  10
ATOM      3  C   UNL     1       0.042   1.327   0.700  0.00  0.00    +0.001 A 
ATOM      4  C   UNL     1       1.223   2.051   0.601  0.00  0.00    +0.002 A 
ATOM      5  C   UNL     1       2.414   1.423   0.321  0.00  0.00    +0.028 A 
ATOM      6  C   UNL     1       2.444   0.036   0.133  0.00  0.00    +0.072 A 
ATOM      7  C   UNL     1       1.239  -0.692   0.235  0.00  0.00    +0.010 A 
ATOM      8  C   UNL     1       0.046  -0.039   0.519  0.00  0.00    +0.011 A 
ATOM      9  C   UNL     1       1.616  -2.098  -0.013  0.00  0.00    +0.017 C 
ATOM     10  C   UNL     1       0.786  -3.204  -0.022  0.00  0.00    +0.097 C 
ATOM     11  C   UNL     1       3.015  -2.065  -0.239  0.00  0.00    +0.121 C 
ATOM     12  N   UNL     1       3.442  -0.835  -0.147  0.00  0.00    -0.254 NA
ENDBRANCH   1  10
BRANCH   1  13
ATOM     13  N   UNL     1      -1.381  -4.169   0.199  0.00  0.00    -0.237 N 
ATOM     14  C   UNL     1      -2.714  -4.012   0.313  0.00  0.00    +0.233 C 
ATOM     15  O   UNL     1      -3.195  -2.898   0.323  0.00  0.00    -0.274 OA
ATOM     16  H   UNL     1      -0.996  -5.060   0.191  0.00  0.00    +0.173 HD
BRANCH  14  17
ATOM     17  C   UNL     1      -3.608  -5.219   0.428  0.00  0.00    +0.083 C 
ATOM     18  C   UNL     1      -4.316  -5.447   1.757  0.00  0.00    +0.005 C 
ATOM     19  C   UNL     1      -5.120  -4.975   0.556  0.00  0.00    +0.005 C 
ATOM     20  C   UNL     1      -6.022  -5.945  -0.204  0.00  0.00    +0.004 C 
ATOM     21  C   UNL     1      -6.380  -7.137   0.684  0.00  0.00    +0.000 C 
ATOM     22  C   UNL     1      -5.082  -7.768   1.201  0.00  0.00    +0.000 C 
ATOM     23  C   UNL     1      -4.513  -6.863   2.277  0.00  0.00    +0.004 C 
ENDBRANCH  14  17
ENDBRANCH   1  13
TORSDOF 3
