REMARK  Name = ZINC05021538
REMARK  8 active torsions:
REMARK  status: ('A' for Active; 'I' for Inactive)
REMARK    1  A    between atoms: C_1  and  C_2
REMARK    2  A    between atoms: C_5  and  C_8
REMARK    3  A    between atoms: C_11  and  S_14
REMARK    4  A    between atoms: N_12  and  N_13
REMARK    5  A    between atoms: S_14  and  C_15
REMARK    6  A    between atoms: C_15  and  C_16
REMARK    7  A    between atoms: N_18  and  C_19
REMARK    8  A    between atoms: C_19  and  C_20
REMARK                            x       y       z     vdW  Elec       q    Type
REMARK                         _______ _______ _______ _____ _____    ______ ____
ROOT
ATOM      1  S   UNL     1      -8.593   1.505   2.603  0.00  0.00    -0.075 S 
ENDROOT
BRANCH   1   5
ATOM      2  C   UNL     1     -10.507   2.053   5.965  0.00  0.00    +0.182 A 
ATOM      3  N   UNL     1      -9.405   2.742   6.145  0.00  0.00    -0.127 NA
ATOM      4  N   UNL     1      -8.655   2.652   5.105  0.00  0.00    -0.121 NA
ATOM      5  C   UNL     1      -9.238   1.906   4.193  0.00  0.00    +0.209 A 
ATOM      6  N   UNL     1     -10.434   1.496   4.708  0.00  0.00    -0.224 N 
BRANCH   2  11
ATOM      7  C   UNL     1     -14.829   1.467   9.719  0.00  0.00    +0.044 C 
ATOM      8  C   UNL     1     -13.697   1.620   8.736  0.00  0.00    -0.050 A 
ATOM      9  C   UNL     1     -13.585   0.742   7.673  0.00  0.00    +0.004 A 
ATOM     10  C   UNL     1     -12.551   0.877   6.769  0.00  0.00    +0.012 A 
ATOM     11  C   UNL     1     -11.617   1.902   6.929  0.00  0.00    +0.021 A 
ATOM     12  C   UNL     1     -11.733   2.781   8.007  0.00  0.00    +0.012 A 
ATOM     13  C   UNL     1     -12.775   2.639   8.901  0.00  0.00    +0.004 A 
ENDBRANCH   2  11
BRANCH   6  14
ATOM     14  N   UNL     1     -11.365   0.700   4.103  0.00  0.00    -0.295 N 
ATOM     15  H   UNL     1     -11.249  -0.264   4.378  0.00  0.00    +0.163 HD
ATOM     16  H   UNL     1     -12.300   1.023   4.300  0.00  0.00    +0.163 HD
ENDBRANCH   6  14
ENDBRANCH   1   5
BRANCH   1  17
ATOM     17  C   UNL     1      -7.019   2.397   2.668  0.00  0.00    +0.173 C 
BRANCH  17  18
ATOM     18  C   UNL     1      -6.272   2.192   1.376  0.00  0.00    +0.223 C 
ATOM     19  O   UNL     1      -6.755   1.510   0.497  0.00  0.00    -0.275 OA
ATOM     20  N   UNL     1      -5.066   2.767   1.196  0.00  0.00    -0.314 N 
ATOM     21  H   UNL     1      -4.679   3.312   1.899  0.00  0.00    +0.149 HD
BRANCH  20  22
ATOM     22  C   UNL     1      -4.340   2.568  -0.060  0.00  0.00    +0.111 C 
BRANCH  22  23
ATOM     23  C   UNL     1      -3.010   3.322  -0.005  0.00  0.00    -0.013 C 
ATOM     24  C   UNL     1      -2.251   3.114  -1.318  0.00  0.00    +0.012 C 
ATOM     25  C   UNL     1      -0.921   3.869  -1.263  0.00  0.00    -0.010 C 
ATOM     26  C   UNL     1      -0.081   3.338  -0.099  0.00  0.00    +0.007 C 
ATOM     27  C   UNL     1      -0.840   3.546   1.214  0.00  0.00    -0.010 C 
ATOM     28  C   UNL     1      -2.170   2.792   1.159  0.00  0.00    +0.012 C 
ATOM     29  C   UNL     1      -1.108   5.039   1.417  0.00  0.00    +0.007 C 
ATOM     30  C   UNL     1      -1.948   5.569   0.253  0.00  0.00    -0.010 C 
ATOM     31  C   UNL     1      -1.189   5.361  -1.059  0.00  0.00    +0.007 C 
ATOM     32  C   UNL     1      -3.278   4.815   0.198  0.00  0.00    +0.012 C 
ENDBRANCH  22  23
ENDBRANCH  20  22
ENDBRANCH  17  18
ENDBRANCH   1  17
TORSDOF 7
