REMARK  Name = ZINC67062358
REMARK  10 active torsions:
REMARK  status: ('A' for Active; 'I' for Inactive)
REMARK    1  A    between atoms: C_1  and  C_2
REMARK    2  A    between atoms: C_2  and  C_3
REMARK    3  A    between atoms: C_3  and  C_5
REMARK    4  A    between atoms: C_3  and  N_15
REMARK    5  A    between atoms: N_18  and  C_19
REMARK    6  A    between atoms: C_19  and  C_20
REMARK    7  A    between atoms: N_26  and  C_27
REMARK    8  A    between atoms: N_26  and  C_29
REMARK    9  A    between atoms: C_27  and  C_28
REMARK   10  A    between atoms: C_29  and  C_30
REMARK                            x       y       z     vdW  Elec       q    Type
REMARK                         _______ _______ _______ _____ _____    ______ ____
ROOT
ATOM      1  N   UNL     1      -2.082  -0.162   1.273  0.00  0.00    -0.290 N 
ATOM      2  C   UNL     1      -2.664   1.047   1.400  0.00  0.00    +0.300 C 
ATOM      3  O   UNL     1      -2.651   1.829   0.469  0.00  0.00    -0.253 OA
ATOM      4  N   UNL     1      -3.260   1.389   2.559  0.00  0.00    -0.295 N 
ATOM      5  H   UNL     1      -2.092  -0.785   2.016  0.00  0.00    +0.151 HD
ATOM      6  H   UNL     1      -3.270   0.765   3.302  0.00  0.00    +0.151 HD
ENDROOT
BRANCH   1   7
ATOM      7  C   UNL     1      -1.433  -0.534   0.013  0.00  0.00    +0.140 C 
BRANCH   7   8
ATOM      8  C   UNL     1      -1.416  -2.035  -0.119  0.00  0.00    +0.129 A 
ATOM      9  N   UNL     1      -2.014  -2.900   0.743  0.00  0.00    -0.340 N 
ATOM     10  H   UNL     1      -2.518  -2.663   1.538  0.00  0.00    +0.167 HD
ATOM     11  C   UNL     1      -1.771  -4.177   0.279  0.00  0.00    +0.066 A 
ATOM     12  C   UNL     1      -2.115  -5.448   0.719  0.00  0.00    +0.028 A 
ATOM     13  C   UNL     1      -1.702  -6.553   0.006  0.00  0.00    +0.002 A 
ATOM     14  C   UNL     1      -0.947  -6.402  -1.149  0.00  0.00    +0.002 A 
ATOM     15  C   UNL     1      -0.599  -5.160  -1.597  0.00  0.00    +0.030 A 
ATOM     16  C   UNL     1      -1.007  -4.025  -0.890  0.00  0.00    +0.089 A 
ATOM     17  N   UNL     1      -0.831  -2.692  -1.078  0.00  0.00    -0.231 NA
ENDBRANCH   7   8
BRANCH   7  19
ATOM     18  C   UNL     1      -0.019   1.526   0.010  0.00  0.00    +0.006 C 
ATOM     19  C   UNL     1       0.002  -0.004   0.002  0.00  0.00    +0.027 C 
ENDBRANCH   7  19
ENDBRANCH   1   7
BRANCH   4  20
ATOM     20  C   UNL     1      -3.893   2.703   2.698  0.00  0.00    +0.142 C 
BRANCH  20  21
ATOM     21  C   UNL     1      -4.481   2.834   4.079  0.00  0.00    -0.014 A 
ATOM     22  C   UNL     1      -5.788   2.434   4.325  0.00  0.00    +0.010 A 
ATOM     23  C   UNL     1      -6.290   2.571   5.607  0.00  0.00    +0.042 A 
ATOM     24  C   UNL     1      -5.473   3.103   6.600  0.00  0.00    +0.099 A 
ATOM     25  N   UNL     1      -4.232   3.474   6.325  0.00  0.00    -0.349 N 
ATOM     26  C   UNL     1      -3.725   3.349   5.113  0.00  0.00    +0.089 A 
ATOM     27  N   UNL     1      -5.965   3.248   7.892  0.00  0.00    -0.317 N 
ATOM     28  H   UNL     1      -3.681   3.842   7.032  0.00  0.00    +0.167 HD
BRANCH  27  29
ATOM     29  C   UNL     1      -5.111   3.807   8.942  0.00  0.00    +0.103 C 
ATOM     30  C   UNL     1      -5.281   5.327   8.982  0.00  0.00    +0.024 C 
ENDBRANCH  27  29
BRANCH  27  31
ATOM     31  C   UNL     1      -7.337   2.840   8.203  0.00  0.00    +0.103 C 
ATOM     32  C   UNL     1      -7.348   1.373   8.637  0.00  0.00    +0.024 C 
ENDBRANCH  27  31
ENDBRANCH  20  21
ENDBRANCH   4  20
TORSDOF 7
