REMARK  Name = ZINC36485142
REMARK  12 active torsions:
REMARK  status: ('A' for Active; 'I' for Inactive)
REMARK    1  A    between atoms: C_1  and  C_2
REMARK    2  A    between atoms: C_2  and  C_3
REMARK    3  A    between atoms: C_3  and  C_4
REMARK    4  A    between atoms: C_4  and  N_5
REMARK    5  A    between atoms: C_6  and  C_8
REMARK    6  A    between atoms: C_8  and  C_10
REMARK    7  A    between atoms: C_8  and  N_19
REMARK    8  A    between atoms: C_13  and  N_16
REMARK    9  A    between atoms: N_19  and  C_20
REMARK   10  A    between atoms: C_27  and  C_29
REMARK   11  A    between atoms: C_33  and  O_36
REMARK   12  A    between atoms: C_34  and  O_35
REMARK                            x       y       z     vdW  Elec       q    Type
REMARK                         _______ _______ _______ _____ _____    ______ ____
ROOT
ATOM      1  N   UNL     1       1.652  -4.735   5.863  0.00  0.00    -0.251 N 
ATOM      2  C   UNL     1       0.724  -5.649   5.514  0.00  0.00    +0.255 C 
ATOM      3  O   UNL     1       0.720  -6.744   6.044  0.00  0.00    -0.269 OA
ENDROOT
BRANCH   1   4
ATOM      4  C   UNL     1       2.538  -5.003   6.912  0.00  0.00    +0.039 A 
ATOM      5  C   UNL     1       2.383  -4.362   8.134  0.00  0.00    +0.023 A 
ATOM      6  C   UNL     1       3.259  -4.628   9.168  0.00  0.00    +0.003 A 
ATOM      7  C   UNL     1       4.290  -5.532   8.988  0.00  0.00    +0.020 A 
ATOM      8  C   UNL     1       4.447  -6.173   7.771  0.00  0.00    +0.043 A 
ATOM      9  C   UNL     1       3.570  -5.915   6.735  0.00  0.00    +0.043 A 
ATOM     10 CL   UNL     1       5.742  -7.307   7.549  0.00  0.00    -0.083 Cl
ENDBRANCH   1   4
BRANCH   2  11
ATOM     11  C   UNL     1      -0.286  -5.321   4.491  0.00  0.00    +0.082 A 
ATOM     12  C   UNL     1       0.109  -4.791   3.259  0.00  0.00    +0.017 A 
ATOM     13  C   UNL     1      -0.837  -4.486   2.305  0.00  0.00    +0.005 A 
ATOM     14  C   UNL     1      -2.182  -4.700   2.560  0.00  0.00    +0.049 A 
ATOM     15  C   UNL     1      -2.589  -5.224   3.775  0.00  0.00    +0.159 A 
ATOM     16  C   UNL     1      -1.644  -5.543   4.746  0.00  0.00    +0.171 A 
BRANCH  16  17
ATOM     17  O   UNL     1      -2.038  -6.062   5.937  0.00  0.00    -0.503 OA
ATOM     18  H   UNL     1      -2.224  -5.397   6.614  0.00  0.00    +0.292 HD
ENDBRANCH  16  17
BRANCH  15  19
ATOM     19  O   UNL     1      -3.911  -5.431   4.018  0.00  0.00    -0.503 OA
ATOM     20  H   UNL     1      -4.225  -6.308   3.759  0.00  0.00    +0.292 HD
ENDBRANCH  15  19
ENDBRANCH   2  11
BRANCH   1  21
ATOM     21  C   UNL     1       1.732  -3.461   5.144  0.00  0.00    +0.197 C 
BRANCH  21  22
ATOM     22  C   UNL     1       1.497  -2.326   6.106  0.00  0.00    -0.018 A 
ATOM     23  C   UNL     1       2.547  -1.821   6.850  0.00  0.00    +0.008 A 
ATOM     24  C   UNL     1       2.331  -0.780   7.733  0.00  0.00    +0.033 A 
ATOM     25  C   UNL     1       1.066  -0.242   7.871  0.00  0.00    +0.126 A 
ATOM     26  C   UNL     1       0.015  -0.745   7.126  0.00  0.00    +0.033 A 
ATOM     27  C   UNL     1       0.232  -1.784   6.241  0.00  0.00    +0.008 A 
BRANCH  25  28
ATOM     28  N   UNL     1       0.835   0.873   8.817  0.00  0.00    +0.056 N 
ATOM     29  O   UNL     1       1.753   1.313   9.469  0.00  0.00    -0.126 OA
ATOM     30  O   UNL     1      -0.273   1.344   8.938  0.00  0.00    -0.126 OA
ENDBRANCH  25  28
ENDBRANCH  21  22
BRANCH  21  32
ATOM     31  N   UNL     1       3.402  -2.219   3.809  0.00  0.00    -0.313 N 
ATOM     32  C   UNL     1       3.098  -3.320   4.524  0.00  0.00    +0.238 C 
ATOM     33  O   UNL     1       3.923  -4.197   4.668  0.00  0.00    -0.273 OA
ATOM     34  H   UNL     1       2.742  -1.518   3.693  0.00  0.00    +0.149 HD
BRANCH  31  35
ATOM     35  C   UNL     1       4.731  -2.081   3.206  0.00  0.00    +0.104 C 
BRANCH  35  36
ATOM     36  C   UNL     1       4.814  -0.751   2.455  0.00  0.00    +0.018 C 
BRANCH  36  38
ATOM     37  C   UNL     1       6.285   0.723   1.074  0.00  0.00    +0.004 C 
ATOM     38  C   UNL     1       6.201  -0.607   1.825  0.00  0.00    -0.002 C 
ENDBRANCH  36  38
ENDBRANCH  35  36
ENDBRANCH  31  35
ENDBRANCH  21  32
ENDBRANCH   1  21
TORSDOF 11
