REMARK  Name = ZINC41354396
REMARK  9 active torsions:
REMARK  status: ('A' for Active; 'I' for Inactive)
REMARK    1  A    between atoms: C_1  and  C_2
REMARK    2  A    between atoms: C_2  and  C_3
REMARK    3  A    between atoms: C_2  and  C_4
REMARK    4  A    between atoms: C_2  and  C_5
REMARK    5  A    between atoms: C_8  and  C_11
REMARK    6  A    between atoms: C_13  and  O_14
REMARK    7  A    between atoms: C_23  and  C_25
REMARK    8  A    between atoms: C_31  and  O_34
REMARK    9  A    between atoms: O_34  and  C_35
REMARK                            x       y       z     vdW  Elec       q    Type
REMARK                         _______ _______ _______ _____ _____    ______ ____
ROOT
ATOM      1  C   UNL     1       2.131  -1.732  -4.752  0.00  0.00    +0.139 A 
ATOM      2  C   UNL     1       3.281  -1.030  -5.050  0.00  0.00    +0.093 A 
ATOM      3  C   UNL     1       3.955  -1.279  -6.247  0.00  0.00    +0.131 A 
ATOM      4  C   UNL     1       3.425  -2.256  -7.126  0.00  0.00    +0.059 A 
ATOM      5  C   UNL     1       4.061  -2.548  -8.343  0.00  0.00    +0.017 A 
ATOM      6  C   UNL     1       3.540  -3.489  -9.174  0.00  0.00    +0.024 A 
ATOM      7  C   UNL     1       2.363  -4.174  -8.821  0.00  0.00    +0.037 A 
ATOM      8  C   UNL     1       1.720  -3.894  -7.612  0.00  0.00    +0.070 A 
ATOM      9  C   UNL     1       2.244  -2.938  -6.761  0.00  0.00    +0.141 A 
ATOM     10  O   UNL     1       1.639  -2.659  -5.588  0.00  0.00    -0.455 OA
ATOM     11  N   UNL     1       1.850  -5.112  -9.658  0.00  0.00    -0.279 N 
ATOM     12  C   UNL     1       0.946  -5.978  -9.212  0.00  0.00    +0.284 C 
ATOM     13  O   UNL     1       0.670  -6.014  -8.023  0.00  0.00    -0.266 OA
ATOM     14  H   UNL     1       2.143  -5.150 -10.582  0.00  0.00    +0.155 HD
ENDROOT
BRANCH  12  15
ATOM     15  C   UNL     1       0.277  -6.896 -10.153  0.00  0.00    +0.191 A 
ATOM     16  C   UNL     1      -0.661  -7.814  -9.813  0.00  0.00    +0.063 A 
ATOM     17  C   UNL     1      -1.037  -8.489 -11.056  0.00  0.00    +0.025 A 
ATOM     18  C   UNL     1      -1.935  -9.512 -11.375  0.00  0.00    +0.012 A 
ATOM     19  C   UNL     1      -2.056  -9.929 -12.670  0.00  0.00    +0.004 A 
ATOM     20  C   UNL     1      -1.294  -9.345 -13.672  0.00  0.00    +0.049 A 
ATOM     21  C   UNL     1      -0.400  -8.332 -13.379  0.00  0.00    +0.163 A 
ATOM     22  C   UNL     1      -0.261  -7.892 -12.063  0.00  0.00    +0.177 A 
ATOM     23  O   UNL     1       0.502  -6.945 -11.482  0.00  0.00    -0.447 OA
BRANCH  21  24
ATOM     24  O   UNL     1       0.341  -7.768 -14.369  0.00  0.00    -0.491 OA
ATOM     25  C   UNL     1       0.146  -8.271 -15.693  0.00  0.00    +0.277 C 
ENDBRANCH  21  24
ENDBRANCH  12  15
BRANCH   1  29
ATOM     26  C   UNL     1       0.110  -0.950  -1.101  0.00  0.00    -0.042 A 
ATOM     27  C   UNL     1      -0.386  -1.904  -1.972  0.00  0.00    +0.005 A 
ATOM     28  C   UNL     1       0.265  -2.163  -3.160  0.00  0.00    +0.012 A 
ATOM     29  C   UNL     1       1.429  -1.460  -3.483  0.00  0.00    +0.017 A 
ATOM     30  C   UNL     1       1.924  -0.498  -2.599  0.00  0.00    +0.012 A 
ATOM     31  C   UNL     1       1.259  -0.245  -1.417  0.00  0.00    +0.005 A 
BRANCH  26  33
ATOM     32  C   UNL     1      -1.047   0.793   0.230  0.00  0.00    +0.015 C 
ATOM     33  C   UNL     1      -0.607  -0.672   0.194  0.00  0.00    -0.013 C 
ATOM     34  C   UNL     1       0.334  -0.950   1.368  0.00  0.00    +0.015 C 
ATOM     35  C   UNL     1      -1.837  -1.576   0.301  0.00  0.00    +0.015 C 
ENDBRANCH  26  33
ENDBRANCH   1  29
BRANCH   3  36
ATOM     36  O   UNL     1       5.083  -0.605  -6.559  0.00  0.00    -0.506 OA
ATOM     37  H   UNL     1       5.356   0.037  -5.890  0.00  0.00    +0.292 HD
ENDBRANCH   3  36
TORSDOF 5
