REMARK  Name = ZINC08853970
REMARK  12 active torsions:
REMARK  status: ('A' for Active; 'I' for Inactive)
REMARK    1  A    between atoms: C_1  and  C_2
REMARK    2  A    between atoms: C_5  and  N_11
REMARK    3  A    between atoms: C_6  and  N_8
REMARK    4  A    between atoms: C_12  and  C_14
REMARK    5  A    between atoms: C_14  and  C_16
REMARK    6  A    between atoms: C_14  and  O_22
REMARK    7  A    between atoms: O_22  and  C_23
REMARK    8  A    between atoms: C_23  and  C_25
REMARK    9  A    between atoms: C_28  and  O_33
REMARK   10  A    between atoms: C_29  and  O_31
REMARK   11  A    between atoms: O_31  and  C_32
REMARK   12  A    between atoms: O_33  and  C_34
REMARK                            x       y       z     vdW  Elec       q    Type
REMARK                         _______ _______ _______ _____ _____    ______ ____
ROOT
ATOM      1  C   UNL     1      -1.297   2.096   0.009  0.00  0.00    +0.292 C 
ENDROOT
BRANCH   1   2
ATOM      2  C   UNL     1       0.024   1.371  -0.021  0.00  0.00    +0.002 A 
ATOM      3  C   UNL     1       1.206   2.087  -0.038  0.00  0.00    +0.008 A 
ATOM      4  C   UNL     1       2.417   1.421  -0.073  0.00  0.00    +0.000 A 
ATOM      5  C   UNL     1       2.446   0.039  -0.088  0.00  0.00    +0.000 A 
ATOM      6  C   UNL     1       1.264  -0.677  -0.070  0.00  0.00    +0.000 A 
ATOM      7  C   UNL     1       0.052  -0.011  -0.037  0.00  0.00    +0.008 A 
ENDBRANCH   1   2
BRANCH   1   9
ATOM      8  N   UNL     1      -1.978   1.494  -2.292  0.00  0.00    -0.280 N 
ATOM      9  C   UNL     1      -1.700   2.463  -1.396  0.00  0.00    +0.263 C 
ATOM     10  O   UNL     1      -1.775   3.629  -1.721  0.00  0.00    -0.271 OA
ATOM     11  H   UNL     1      -1.857   0.562  -2.052  0.00  0.00    +0.155 HD
BRANCH   8  16
ATOM     12  C   UNL     1      -3.860   2.869  -7.464  0.00  0.00    +0.044 C 
ATOM     13  C   UNL     1      -3.361   2.504  -6.090  0.00  0.00    -0.048 A 
ATOM     14  C   UNL     1      -2.434   3.311  -5.456  0.00  0.00    +0.005 A 
ATOM     15  C   UNL     1      -1.974   2.980  -4.197  0.00  0.00    +0.026 A 
ATOM     16  C   UNL     1      -2.443   1.834  -3.567  0.00  0.00    +0.064 A 
ATOM     17  C   UNL     1      -3.369   1.022  -4.209  0.00  0.00    +0.148 A 
ATOM     18  C   UNL     1      -3.829   1.362  -5.466  0.00  0.00    +0.038 A 
BRANCH  17  19
ATOM     19  N   UNL     1      -3.866  -0.203  -3.545  0.00  0.00    +0.058 N 
ATOM     20  O   UNL     1      -4.602  -0.966  -4.145  0.00  0.00    -0.126 OA
ATOM     21  O   UNL     1      -3.540  -0.449  -2.397  0.00  0.00    -0.126 OA
ENDBRANCH  17  19
ENDBRANCH   8  16
ENDBRANCH   1   9
BRANCH   1  22
ATOM     22  O   UNL     1      -1.168   3.303   0.805  0.00  0.00    -0.444 OA
BRANCH  22  23
ATOM     23  C   UNL     1      -1.429   3.197   2.123  0.00  0.00    +0.340 C 
ATOM     24  O   UNL     1      -1.756   2.126   2.593  0.00  0.00    -0.245 OA
BRANCH  23  25
ATOM     25  C   UNL     1      -1.318   4.382   2.994  0.00  0.00    +0.063 A 
ATOM     26  C   UNL     1      -0.937   5.614   2.456  0.00  0.00    +0.019 A 
ATOM     27  C   UNL     1      -0.840   6.721   3.271  0.00  0.00    +0.050 A 
ATOM     28  C   UNL     1      -1.109   6.614   4.628  0.00  0.00    +0.168 A 
ATOM     29  C   UNL     1      -1.484   5.386   5.173  0.00  0.00    +0.162 A 
ATOM     30  C   UNL     1      -1.589   4.274   4.362  0.00  0.00    +0.064 A 
BRANCH  29  31
ATOM     31  O   UNL     1      -1.747   5.285   6.504  0.00  0.00    -0.491 OA
ATOM     32  C   UNL     1      -2.126   3.997   6.994  0.00  0.00    +0.277 C 
ENDBRANCH  29  31
BRANCH  28  33
ATOM     33  O   UNL     1      -1.006   7.706   5.428  0.00  0.00    -0.431 OA
BRANCH  33  34
ATOM     34  C   UNL     1      -0.617   8.932   4.804  0.00  0.00    +0.541 C 
ATOM     35  F   UNL     1       0.643   8.777   4.216  0.00  0.00    -0.166 F 
ATOM     36  F   UNL     1      -1.552   9.272   3.821  0.00  0.00    -0.166 F 
ENDBRANCH  33  34
ENDBRANCH  28  33
ENDBRANCH  23  25
ENDBRANCH  22  23
ENDBRANCH   1  22
TORSDOF 10
