REMARK  Name = ZINC09431474
REMARK  10 active torsions:
REMARK  status: ('A' for Active; 'I' for Inactive)
REMARK    1  A    between atoms: C_1  and  C_2
REMARK    2  A    between atoms: N_6  and  C_7
REMARK    3  A    between atoms: C_7  and  C_9
REMARK    4  A    between atoms: C_7  and  C_10
REMARK    5  A    between atoms: N_12  and  CA_13
REMARK    6  A    between atoms: CA_20  and  C_32
REMARK    7  A    between atoms: C_21  and  C_24
REMARK    8  A    between atoms: C_24  and  S_25
REMARK    9  A    between atoms: S_25  and  C_26
REMARK   10  A    between atoms: N_30  and  C_31
REMARK                            x       y       z     vdW  Elec       q    Type
REMARK                         _______ _______ _______ _____ _____    ______ ____
ROOT
ATOM      1  CA  UNL     1       9.315   4.221  -1.097  0.00  0.00    +0.191 C 
ATOM      2  C   UNL     1       8.350   3.342  -0.324  0.00  0.00    +0.169 C 
ATOM      3  N   UNL     1       7.304   3.625  -1.344  0.00  0.00    -0.249 N 
ATOM      4  C   UNL     1       8.221   4.168  -2.137  0.00  0.00    +0.244 C 
ATOM      5  O   UNL     1       8.190   4.506  -3.301  0.00  0.00    -0.273 OA
ATOM      6  CA  UNL     1       5.919   3.456  -1.212  0.00  0.00    +0.127 C 
ATOM      7  C   UNL     1       5.372   3.349  -0.009  0.00  0.00    -0.021 C 
ATOM      8  C   UNL     1       6.056   3.324   1.319  0.00  0.00    +0.104 C 
ATOM      9  S   UNL     1       7.725   4.046   1.239  0.00  0.00    -0.131 S 
ENDROOT
BRANCH   1  12
ATOM     10  C   UNL     1      11.672   4.279  -1.714  0.00  0.00    +0.238 C 
ATOM     11  O   UNL     1      11.646   5.484  -1.585  0.00  0.00    -0.273 OA
ATOM     12  N   UNL     1      10.558   3.553  -1.493  0.00  0.00    -0.300 N 
ATOM     13  H   UNL     1      10.578   2.589  -1.596  0.00  0.00    +0.150 HD
BRANCH  10  14
ATOM     14  C   UNL     1      12.950   3.591  -2.121  0.00  0.00    +0.190 C 
ATOM     15  C   UNL     1      13.364   2.599  -1.032  0.00  0.00    +0.042 C 
BRANCH  14  21
ATOM     16  C   UNL     1      14.505   4.114  -4.752  0.00  0.00    +0.065 C 
ATOM     17  C   UNL     1      14.690   4.828  -3.438  0.00  0.00    +0.039 A 
ATOM     18  C   UNL     1      15.573   5.823  -3.188  0.00  0.00    +0.077 A 
ATOM     19  C   UNL     1      15.423   6.206  -1.852  0.00  0.00    +0.236 A 
ATOM     20  N   UNL     1      14.481   5.472  -1.319  0.00  0.00    -0.146 NA
ATOM     21  N   UNL     1      14.006   4.591  -2.299  0.00  0.00    -0.255 N 
ATOM     22  N   UNL     1      16.195   7.264  -1.160  0.00  0.00    +0.077 N 
ATOM     23  O   UNL     1      17.049   7.888  -1.764  0.00  0.00    -0.125 OA
ATOM     24  O   UNL     1      15.975   7.510   0.012  0.00  0.00    -0.125 OA
ENDBRANCH  14  21
ENDBRANCH  10  14
ENDBRANCH   1  12
BRANCH   6  25
ATOM     25  C   UNL     1       5.068   3.401  -2.414  0.00  0.00    +0.401 C 
ATOM     26  O   UNL     1       5.545   3.631  -3.507  0.00  0.00    -0.239 OA
ATOM     27  OXT UNL     1       3.760   3.094  -2.300  0.00  0.00    -0.239 OA
ENDBRANCH   6  25
BRANCH   7  28
ATOM     28  C   UNL     1       3.869   3.234   0.022  0.00  0.00    +0.111 C 
BRANCH  28  29
ATOM     29  S   UNL     1       3.392   1.505  -0.222  0.00  0.00    -0.080 S 
BRANCH  29  30
ATOM     30  C   UNL     1       1.639   1.657  -0.142  0.00  0.00    +0.209 A 
ATOM     31  N   UNL     1       0.958   2.767   0.046  0.00  0.00    -0.102 NA
ATOM     32  N   UNL     1      -0.303   2.526   0.051  0.00  0.00    -0.022 NA
ATOM     33  N   UNL     1      -0.520   1.268  -0.131  0.00  0.00    -0.043 NA
ATOM     34  N   UNL     1       0.738   0.654  -0.264  0.00  0.00    -0.223 N 
ATOM     35  C   UNL     1       1.014  -0.768  -0.485  0.00  0.00    +0.177 C 
ENDBRANCH  29  30
ENDBRANCH  28  29
ENDBRANCH   7  28
TORSDOF 7
