REMARK  Name = ZINC13576442
REMARK  4 active torsions:
REMARK  status: ('A' for Active; 'I' for Inactive)
REMARK    1  A    between atoms: C_1  and  C_2
REMARK    2  A    between atoms: C_2  and  N_3
REMARK    3  A    between atoms: C_16  and  C_18
REMARK    4  A    between atoms: N_22  and  C_25
REMARK                            x       y       z     vdW  Elec       q    Type
REMARK                         _______ _______ _______ _____ _____    ______ ____
ROOT
ATOM      1  N   UNL     1       0.690  -0.478  -1.207  0.00  0.00    +0.388 N 
ATOM      2  C   UNL     1      -0.079  -0.076  -2.393  0.00  0.00    -0.073 C 
ATOM      3  C   UNL     1       0.777  -0.281  -3.651  0.00  0.00    +0.019 C 
ATOM      4  C   UNL     1       1.349  -1.675  -3.598  0.00  0.00    -0.022 A 
ATOM      5  C   UNL     1       1.958  -2.460  -4.647  0.00  0.00    +0.003 A 
ATOM      6  C   UNL     1       2.212  -2.207  -5.999  0.00  0.00    +0.010 A 
ATOM      7  C   UNL     1       2.822  -3.208  -6.714  0.00  0.00    +0.001 A 
ATOM      8  C   UNL     1       3.174  -4.417  -6.136  0.00  0.00    +0.002 A 
ATOM      9  C   UNL     1       2.935  -4.694  -4.801  0.00  0.00    +0.026 A 
ATOM     10  C   UNL     1       2.317  -3.697  -4.050  0.00  0.00    +0.047 A 
ATOM     11  N   UNL     1       1.942  -3.640  -2.738  0.00  0.00    -0.359 N 
ATOM     12  H   UNL     1       2.067  -4.351  -2.090  0.00  0.00    +0.166 HD
ATOM     13  C   UNL     1       1.365  -2.428  -2.474  0.00  0.00    +0.011 A 
ATOM     14  C   UNL     1       0.814  -1.943  -1.154  0.00  0.00    +0.021 C 
ATOM     15  H   UNL     1       1.609  -0.066  -1.251  0.00  0.00    -0.080 HD
ENDROOT
BRANCH  14  16
ATOM     16  C   UNL     1       1.753  -2.331  -0.041  0.00  0.00    +0.074 A 
ATOM     17  C   UNL     1       1.354  -3.205   0.926  0.00  0.00    +0.260 A 
ATOM     18  N   UNL     1       2.226  -3.544   1.930  0.00  0.00    -0.274 N 
ATOM     19  C   UNL     1       3.465  -3.021   1.964  0.00  0.00    +0.337 A 
ATOM     20  N   UNL     1       3.877  -2.156   1.018  0.00  0.00    -0.227 N 
ATOM     21  C   UNL     1       3.054  -1.801   0.011  0.00  0.00    +0.267 A 
ATOM     22  O   UNL     1       3.434  -1.022  -0.846  0.00  0.00    -0.267 OA
ATOM     23  O   UNL     1       4.223  -3.332   2.861  0.00  0.00    -0.246 OA
ATOM     24  O   UNL     1       0.112  -3.732   0.897  0.00  0.00    -0.267 OA
ATOM     25  H   UNL     1       1.946  -4.165   2.621  0.00  0.00    +0.173 HD
BRANCH  20  26
ATOM     26  C   UNL     1       5.173  -1.626   1.078  0.00  0.00    +0.073 A 
ATOM     27  C   UNL     1       6.221  -2.277   0.441  0.00  0.00    +0.028 A 
ATOM     28  C   UNL     1       7.497  -1.752   0.500  0.00  0.00    +0.002 A 
ATOM     29  C   UNL     1       7.732  -0.579   1.194  0.00  0.00    +0.002 A 
ATOM     30  C   UNL     1       6.692   0.072   1.830  0.00  0.00    +0.022 A 
ATOM     31  C   UNL     1       5.411  -0.445   1.769  0.00  0.00    +0.065 A 
ATOM     32 CL   UNL     1       4.103   0.377   2.562  0.00  0.00    -0.081 Cl
ENDBRANCH  20  26
ENDBRANCH  14  16
BRANCH   1  34
ATOM     33  C   UNL     1      -0.019   1.526   0.010  0.00  0.00    -0.017 C 
ATOM     34  C   UNL     1       0.002  -0.004   0.002  0.00  0.00    -0.081 C 
ENDBRANCH   1  34
TORSDOF 3
