REMARK  Name = ZINC64825283
REMARK  13 active torsions:
REMARK  status: ('A' for Active; 'I' for Inactive)
REMARK    1  A    between atoms: C_1  and  C_2
REMARK    2  A    between atoms: C_2  and  C_3
REMARK    3  A    between atoms: C_2  and  C_4
REMARK    4  A    between atoms: C_2  and  C_5
REMARK    5  A    between atoms: C_8  and  N_11
REMARK    6  A    between atoms: C_12  and  C_14
REMARK    7  A    between atoms: C_14  and  S_15
REMARK    8  A    between atoms: S_15  and  C_17
REMARK    9  A    between atoms: C_17  and  C_18
REMARK   10  A    between atoms: C_20  and  C_23
REMARK   11  A    between atoms: C_23  and  C_24
REMARK   12  A    between atoms: C_23  and  C_25
REMARK   13  A    between atoms: C_23  and  C_26
REMARK                            x       y       z     vdW  Elec       q    Type
REMARK                         _______ _______ _______ _____ _____    ______ ____
ROOT
ATOM      1  N   UNL     1       2.657  -1.834  -4.665  0.00  0.00    -0.285 N 
ATOM      2  C   UNL     1       3.908  -1.413  -4.938  0.00  0.00    +0.230 C 
ATOM      3  O   UNL     1       4.500  -0.715  -4.142  0.00  0.00    -0.274 OA
ATOM      4  H   UNL     1       2.213  -2.453  -5.265  0.00  0.00    +0.155 HD
ENDROOT
BRANCH   1   8
ATOM      5  C   UNL     1       0.700  -0.475  -1.248  0.00  0.00    -0.042 A 
ATOM      6  C   UNL     1       1.582   0.356  -1.914  0.00  0.00    +0.006 A 
ATOM      7  C   UNL     1       2.232  -0.091  -3.047  0.00  0.00    +0.023 A 
ATOM      8  C   UNL     1       2.000  -1.377  -3.518  0.00  0.00    +0.033 A 
ATOM      9  C   UNL     1       1.114  -2.210  -2.846  0.00  0.00    +0.023 A 
ATOM     10  C   UNL     1       0.470  -1.758  -1.711  0.00  0.00    +0.006 A 
BRANCH   5  12
ATOM     11  C   UNL     1       0.358  -0.877   1.175  0.00  0.00    +0.015 C 
ATOM     12  C   UNL     1      -0.009   0.016  -0.012  0.00  0.00    -0.013 C 
ATOM     13  C   UNL     1      -1.521  -0.032  -0.238  0.00  0.00    +0.015 C 
ATOM     14  C   UNL     1       0.418   1.456   0.282  0.00  0.00    +0.015 C 
ENDBRANCH   5  12
ENDBRANCH   1   8
BRANCH   2  15
ATOM     15  C   UNL     1       4.572  -1.808  -6.232  0.00  0.00    +0.200 C 
BRANCH  15  16
ATOM     16  S   UNL     1       6.236  -1.091  -6.303  0.00  0.00    +0.040 S 
ATOM     17  O   UNL     1       7.028  -1.627  -5.251  0.00  0.00    -0.256 OA
BRANCH  16  18
ATOM     18  C   UNL     1       6.889  -1.654  -7.899  0.00  0.00    +0.202 C 
BRANCH  18  19
ATOM     19  C   UNL     1       8.286  -1.121  -8.086  0.00  0.00    +0.240 A 
ATOM     20  N   UNL     1       9.387  -1.717  -7.720  0.00  0.00    -0.195 NA
ATOM     21  C   UNL     1      10.445  -0.963  -8.039  0.00  0.00    +0.177 A 
ATOM     22  N   UNL     1      10.028   0.128  -8.614  0.00  0.00    -0.061 NA
ATOM     23  O   UNL     1       8.611   0.044  -8.661  0.00  0.00    -0.337 OA
BRANCH  21  24
ATOM     24  C   UNL     1      11.886  -1.318  -7.774  0.00  0.00    +0.025 C 
ATOM     25  C   UNL     1      12.231  -2.622  -8.497  0.00  0.00    +0.019 C 
ATOM     26  C   UNL     1      12.790  -0.196  -8.288  0.00  0.00    +0.019 C 
ATOM     27  C   UNL     1      12.099  -1.496  -6.270  0.00  0.00    +0.019 C 
ENDBRANCH  21  24
ENDBRANCH  18  19
ENDBRANCH  16  18
ENDBRANCH  15  16
ENDBRANCH   2  15
TORSDOF 7
