REMARK  Name = ZINC63514304
REMARK  8 active torsions:
REMARK  status: ('A' for Active; 'I' for Inactive)
REMARK    1  A    between atoms: C_1  and  C_2
REMARK    2  A    between atoms: C_4  and  C_13
REMARK    3  A    between atoms: C_13  and  C_14
REMARK    4  A    between atoms: C_14  and  N_15
REMARK    5  A    between atoms: N_15  and  S_16
REMARK    6  A    between atoms: S_16  and  C_19
REMARK    7  A    between atoms: C_22  and  O_29
REMARK    8  A    between atoms: O_29  and  C_30
REMARK                            x       y       z     vdW  Elec       q    Type
REMARK                         _______ _______ _______ _____ _____    ______ ____
ROOT
ATOM      1  N   UNL     1       1.180  -0.595  -4.906  0.00  0.00    -0.190 NA
ATOM      2  H   UNL     1       0.283  -0.272  -5.082  0.00  0.00    +0.148 HD
ENDROOT
BRANCH   1   3
ATOM      3  S   UNL     1       2.245  -0.808  -6.156  0.00  0.00    +0.059 S 
ATOM      4  O   UNL     1       2.800  -2.107  -6.000  0.00  0.00    -0.153 OA
ATOM      5  O   UNL     1       1.568  -0.406  -7.339  0.00  0.00    -0.153 OA
BRANCH   3   6
ATOM      6  C   UNL     1       3.564   0.335  -5.917  0.00  0.00    +0.113 A 
ATOM      7  C   UNL     1       4.828  -0.118  -5.688  0.00  0.00    +0.033 A 
ATOM      8  C   UNL     1       5.885   0.768  -5.497  0.00  0.00    +0.048 A 
ATOM      9  C   UNL     1       5.684   2.119  -5.534  0.00  0.00    +0.128 A 
ATOM     10  C   UNL     1       4.388   2.623  -5.769  0.00  0.00    +0.026 A 
ATOM     11  C   UNL     1       3.317   1.717  -5.969  0.00  0.00    +0.012 A 
ATOM     12  C   UNL     1       2.026   2.219  -6.208  0.00  0.00    +0.010 A 
ATOM     13  C   UNL     1       1.824   3.564  -6.250  0.00  0.00    +0.001 A 
ATOM     14  C   UNL     1       2.879   4.455  -6.060  0.00  0.00    +0.001 A 
ATOM     15  C   UNL     1       4.140   4.004  -5.814  0.00  0.00    +0.012 A 
BRANCH   9  16
ATOM     16  O   UNL     1       6.725   2.970  -5.345  0.00  0.00    -0.495 OA
ATOM     17  C   UNL     1       8.007   2.385  -5.111  0.00  0.00    +0.277 C 
ENDBRANCH   9  16
ENDBRANCH   3   6
ENDBRANCH   1   3
BRANCH   1  18
ATOM     18  C   UNL     1       1.593  -0.896  -3.533  0.00  0.00    +0.110 C 
BRANCH  18  19
ATOM     19  C   UNL     1       0.617  -0.243  -2.552  0.00  0.00    +0.050 C 
BRANCH  19  22
ATOM     20  C   UNL     1       0.550   1.673   0.062  0.00  0.00    +0.035 C 
ATOM     21  C   UNL     1       0.520   0.145   0.120  0.00  0.00    +0.103 C 
ATOM     22  C   UNL     1       1.116  -0.436  -1.143  0.00  0.00    -0.037 C 
ATOM     23  C   UNL     1       2.186  -1.166  -0.752  0.00  0.00    +0.000 A 
ATOM     24  C   UNL     1       3.168  -1.966  -1.493  0.00  0.00    +0.025 A 
ATOM     25  C   UNL     1       4.150  -2.597  -0.810  0.00  0.00    +0.019 A 
ATOM     26  C   UNL     1       4.253  -2.506   0.586  0.00  0.00    +0.017 A 
ATOM     27  C   UNL     1       3.388  -1.790   1.335  0.00  0.00    +0.027 A 
ATOM     28  C   UNL     1       2.316  -1.086   0.720  0.00  0.00    +0.043 A 
ATOM     29  N   UNL     1       1.362  -0.336   1.221  0.00  0.00    -0.378 N 
ATOM     30 BR   UNL     1       5.417  -3.629  -1.761  0.00  0.00    -0.050 Br
ATOM     31  H   UNL     1       1.235  -0.133   2.161  0.00  0.00    +0.160 HD
ENDBRANCH  19  22
ENDBRANCH  18  19
ENDBRANCH   1  18
TORSDOF 6
