REMARK  Name = ZINC39708098
REMARK  5 active torsions:
REMARK  status: ('A' for Active; 'I' for Inactive)
REMARK    1  A    between atoms: C_4  and  C_7
REMARK    2  A    between atoms: C_12  and  N_13
REMARK    3  A    between atoms: C_14  and  C_16
REMARK    4  A    between atoms: C_16  and  S_17
REMARK    5  A    between atoms: S_17  and  C_18
REMARK                            x       y       z     vdW  Elec       q    Type
REMARK                         _______ _______ _______ _____ _____    ______ ____
ROOT
ATOM      1  C   UNL     1       2.070  -3.565   3.569  0.00  0.00    +0.173 C 
ENDROOT
BRANCH   1   3
ATOM      2  N   UNL     1       2.968  -2.064   1.819  0.00  0.00    -0.284 N 
ATOM      3  C   UNL     1       3.166  -3.118   2.636  0.00  0.00    +0.228 C 
ATOM      4  O   UNL     1       4.226  -3.707   2.621  0.00  0.00    -0.275 OA
ATOM      5  H   UNL     1       2.146  -1.553   1.877  0.00  0.00    +0.155 HD
BRANCH   2  11
ATOM      6  C   UNL     1       3.577  -1.201  -0.362  0.00  0.00    +0.003 A 
ATOM      7  C   UNL     1       4.562  -0.844  -1.280  0.00  0.00    +0.010 A 
ATOM      8  C   UNL     1       5.894  -0.997  -0.956  0.00  0.00    +0.001 A 
ATOM      9  C   UNL     1       6.258  -1.505   0.279  0.00  0.00    +0.002 A 
ATOM     10  C   UNL     1       5.291  -1.863   1.198  0.00  0.00    +0.024 A 
ATOM     11  C   UNL     1       3.948  -1.708   0.889  0.00  0.00    +0.041 A 
BRANCH   6  15
ATOM     12  C   UNL     1      -0.532  -0.735  -1.346  0.00  0.00    +0.000 A 
ATOM     13  C   UNL     1       0.345   0.317  -1.538  0.00  0.00    +0.001 A 
ATOM     14  C   UNL     1       1.681   0.171  -1.220  0.00  0.00    +0.008 A 
ATOM     15  C   UNL     1       2.144  -1.038  -0.705  0.00  0.00    -0.016 A 
ATOM     16  C   UNL     1       1.255  -2.095  -0.514  0.00  0.00    +0.008 A 
ATOM     17  C   UNL     1      -0.078  -1.938  -0.836  0.00  0.00    +0.001 A 
ENDBRANCH   6  15
ENDBRANCH   2  11
ENDBRANCH   1   3
BRANCH   1  18
ATOM     18  S   UNL     1       2.638  -4.995   4.529  0.00  0.00    -0.075 S 
BRANCH  18  19
ATOM     19  C   UNL     1       1.263  -5.392   5.557  0.00  0.00    +0.208 C 
ATOM     20  N   UNL     1       0.180  -4.660   5.451  0.00  0.00    -0.227 NA
ATOM     21  C   UNL     1      -0.926  -4.946   6.362  0.00  0.00    +0.252 C 
ATOM     22  C   UNL     1      -0.823  -6.425   6.708  0.00  0.00    +0.117 C 
ATOM     23  C   UNL     1      -2.074  -6.932   6.520  0.00  0.00    +0.028 A 
ATOM     24  C   UNL     1      -2.630  -8.207   6.777  0.00  0.00    +0.050 A 
ATOM     25  C   UNL     1      -3.941  -8.396   6.453  0.00  0.00    +0.124 A 
ATOM     26  C   UNL     1      -4.761  -7.412   5.886  0.00  0.00    +0.040 A 
ATOM     27  C   UNL     1      -4.333  -6.153   5.604  0.00  0.00    +0.029 A 
ATOM     28  C   UNL     1      -2.928  -5.855   5.929  0.00  0.00    +0.046 A 
ATOM     29  N   UNL     1      -2.253  -4.755   5.794  0.00  0.00    -0.358 N 
ATOM     30  F   UNL     1      -4.483  -9.610   6.693  0.00  0.00    -0.205 F 
ATOM     31  N   UNL     1       0.356  -6.993   6.974  0.00  0.00    -0.147 NA
ATOM     32  N   UNL     1       1.383  -6.440   6.407  0.00  0.00    -0.122 NA
ATOM     33  H   UNL     1      -2.579  -3.940   5.383  0.00  0.00    +0.162 HD
ENDBRANCH  18  19
ENDBRANCH   1  18
TORSDOF 5
