REMARK  Name = ZINC08767854
REMARK  5 active torsions:
REMARK  status: ('A' for Active; 'I' for Inactive)
REMARK    1  A    between atoms: C_4  and  C_7
REMARK    2  A    between atoms: C_9  and  C_29
REMARK    3  A    between atoms: C_14  and  C_16
REMARK    4  A    between atoms: N_18  and  C_19
REMARK    5  A    between atoms: C_22  and  N_26
REMARK                            x       y       z     vdW  Elec       q    Type
REMARK                         _______ _______ _______ _____ _____    ______ ____
ROOT
ATOM      1  C   UNL     1      -7.149  -3.905  -0.559  0.00  0.00    +0.075 A 
ATOM      2  C   UNL     1      -7.877  -2.695  -0.488  0.00  0.00    +0.060 A 
ATOM      3  C   UNL     1      -7.210  -1.526  -0.368  0.00  0.00    +0.149 A 
ATOM      4  N   UNL     1      -5.843  -1.538  -0.318  0.00  0.00    -0.209 N 
ATOM      5  C   UNL     1      -5.165  -2.730  -0.390  0.00  0.00    +0.157 A 
ATOM      6  N   UNL     1      -5.830  -3.886  -0.508  0.00  0.00    -0.228 NA
ATOM      7  C   UNL     1      -3.812  -2.436  -0.315  0.00  0.00    +0.083 A 
ATOM      8  C   UNL     1      -3.687  -1.048  -0.198  0.00  0.00    +0.150 A 
ATOM      9  N   UNL     1      -4.897  -0.513  -0.195  0.00  0.00    -0.160 NA
ENDROOT
BRANCH   1  13
ATOM     10  C   UNL     1      -9.208  -7.604  -0.934  0.00  0.00    +0.000 A 
ATOM     11  C   UNL     1      -7.825  -7.588  -0.881  0.00  0.00    +0.001 A 
ATOM     12  C   UNL     1      -7.151  -6.390  -0.759  0.00  0.00    +0.010 A 
ATOM     13  C   UNL     1      -7.867  -5.194  -0.690  0.00  0.00    +0.000 A 
ATOM     14  C   UNL     1      -9.260  -5.218  -0.737  0.00  0.00    +0.010 A 
ATOM     15  C   UNL     1      -9.923  -6.422  -0.865  0.00  0.00    +0.001 A 
ENDBRANCH   1  13
BRANCH   8  16
ATOM     16  C   UNL     1      -2.414  -0.302  -0.089  0.00  0.00    +0.268 C 
ATOM     17  O   UNL     1      -1.357  -0.901  -0.097  0.00  0.00    -0.268 OA
ATOM     18  N   UNL     1      -2.427   1.041   0.020  0.00  0.00    -0.279 N 
ATOM     19  H   UNL     1      -3.271   1.512   0.107  0.00  0.00    +0.155 HD
BRANCH  18  20
ATOM     20  C   UNL     1      -1.225   1.755   0.006  0.00  0.00    +0.048 A 
ATOM     21  C   UNL     1      -0.103   1.218  -0.610  0.00  0.00    +0.026 A 
ATOM     22  C   UNL     1       1.082   1.928  -0.626  0.00  0.00    +0.034 A 
ATOM     23  C   UNL     1       1.153   3.171  -0.025  0.00  0.00    +0.127 A 
ATOM     24  C   UNL     1       0.039   3.708   0.594  0.00  0.00    +0.049 A 
ATOM     25  C   UNL     1      -1.149   3.003   0.614  0.00  0.00    +0.041 A 
ATOM     26 BR   UNL     1      -2.672   3.737   1.461  0.00  0.00    -0.048 Br
BRANCH  23  27
ATOM     27  N   UNL     1       2.424   3.929  -0.045  0.00  0.00    +0.056 N 
ATOM     28  O   UNL     1       3.406   3.458  -0.590  0.00  0.00    -0.126 OA
ATOM     29  O   UNL     1       2.488   5.025   0.484  0.00  0.00    -0.126 OA
ENDBRANCH  23  27
ENDBRANCH  18  20
ENDBRANCH   8  16
BRANCH   3  30
ATOM     30  C   UNL     1      -7.964  -0.223  -0.290  0.00  0.00    +0.434 C 
ATOM     31  F   UNL     1      -9.338  -0.482  -0.246  0.00  0.00    -0.164 F 
ATOM     32  F   UNL     1      -7.582   0.468   0.865  0.00  0.00    -0.164 F 
ATOM     33  F   UNL     1      -7.671   0.553  -1.416  0.00  0.00    -0.164 F 
ENDBRANCH   3  30
TORSDOF 5
