REMARK  Name = ZINC09013020
REMARK  8 active torsions:
REMARK  status: ('A' for Active; 'I' for Inactive)
REMARK    1  A    between atoms: C_1  and  C_2
REMARK    2  A    between atoms: C_2  and  C_35
REMARK    3  A    between atoms: C_6  and  C_27
REMARK    4  A    between atoms: C_8  and  C_25
REMARK    5  A    between atoms: C_9  and  S_13
REMARK    6  A    between atoms: S_13  and  C_14
REMARK    7  A    between atoms: C_14  and  C_15
REMARK    8  A    between atoms: N_17  and  C_18
REMARK                            x       y       z     vdW  Elec       q    Type
REMARK                         _______ _______ _______ _____ _____    ______ ____
ROOT
ATOM      1  C   UNL     1      -0.033   1.591   0.028  0.00  0.00    +0.011 C 
ATOM      2  C   UNL     1      -0.015   0.061   0.007  0.00  0.00    -0.023 C 
ATOM      3  C   UNL     1       0.720  -0.428  -1.245  0.00  0.00    +0.086 C 
ATOM      4  C   UNL     1       2.147   0.041  -1.200  0.00  0.00    +0.162 C 
ATOM      5  C   UNL     1       2.796   0.241  -0.031  0.00  0.00    +0.029 C 
ATOM      6  C   UNL     1       4.227   0.713  -0.090  0.00  0.00    +0.097 C 
ATOM      7  C   UNL     1       4.795   0.889   1.287  0.00  0.00    +0.073 C 
ATOM      8  C   UNL     1       4.048   0.632   2.413  0.00  0.00    +0.112 C 
ATOM      9  N   UNL     1       2.781   0.213   2.338  0.00  0.00    -0.244 NA
ATOM     10  C   UNL     1       2.160   0.018   1.198  0.00  0.00    +0.050 C 
ATOM     11  C   UNL     1       0.727  -0.461   1.240  0.00  0.00    +0.062 C 
ATOM     12  O   UNL     1       2.798   0.268  -2.358  0.00  0.00    -0.292 OA
ATOM     13  C   UNL     1      -1.450  -0.470   0.006  0.00  0.00    +0.011 C 
ENDROOT
BRANCH   6  14
ATOM     14  C   UNL     1       4.283   2.031  -0.819  0.00  0.00    -0.035 A 
ATOM     15  C   UNL     1       3.591   3.122  -0.328  0.00  0.00    +0.006 A 
ATOM     16  C   UNL     1       3.642   4.331  -0.995  0.00  0.00    +0.020 A 
ATOM     17  C   UNL     1       4.386   4.449  -2.156  0.00  0.00    +0.041 A 
ATOM     18  C   UNL     1       5.079   3.357  -2.647  0.00  0.00    +0.020 A 
ATOM     19  C   UNL     1       5.031   2.150  -1.975  0.00  0.00    +0.006 A 
ATOM     20 CL   UNL     1       4.450   5.967  -2.996  0.00  0.00    -0.084 Cl
ENDBRANCH   6  14
BRANCH   7  21
ATOM     21  C   UNL     1       6.148   1.335   1.432  0.00  0.00    +0.098 C 
ATOM     22  N   UNL     1       7.221   1.689   1.548  0.00  0.00    -0.191 NA
ENDBRANCH   7  21
BRANCH   8  23
ATOM     23  S   UNL     1       4.783   0.862   3.998  0.00  0.00    -0.096 S 
BRANCH  23  24
ATOM     24  C   UNL     1       3.465   0.415   5.161  0.00  0.00    +0.172 C 
BRANCH  24  25
ATOM     25  C   UNL     1       3.967   0.569   6.573  0.00  0.00    +0.228 C 
ATOM     26  O   UNL     1       5.104   0.943   6.775  0.00  0.00    -0.275 OA
ATOM     27  N   UNL     1       3.155   0.291   7.612  0.00  0.00    -0.283 N 
ATOM     28  H   UNL     1       2.228   0.055   7.453  0.00  0.00    +0.155 HD
BRANCH  27  29
ATOM     29  C   UNL     1       3.649   0.344   8.921  0.00  0.00    +0.069 A 
ATOM     30  C   UNL     1       4.609   1.286   9.265  0.00  0.00    +0.026 A 
ATOM     31  C   UNL     1       5.095   1.336  10.557  0.00  0.00    +0.002 A 
ATOM     32  C   UNL     1       4.626   0.450  11.509  0.00  0.00    +0.003 A 
ATOM     33  C   UNL     1       3.671  -0.491  11.172  0.00  0.00    +0.040 A 
ATOM     34  C   UNL     1       3.175  -0.543   9.882  0.00  0.00    +0.144 A 
ATOM     35  F   UNL     1       2.237  -1.458   9.553  0.00  0.00    -0.204 F 
ENDBRANCH  27  29
ENDBRANCH  24  25
ENDBRANCH  23  24
ENDBRANCH   8  23
TORSDOF 6
