REMARK  Name = ZINC38937085
REMARK  9 active torsions:
REMARK  status: ('A' for Active; 'I' for Inactive)
REMARK    1  A    between atoms: C_1  and  C_2
REMARK    2  A    between atoms: C_5  and  N_9
REMARK    3  A    between atoms: C_6  and  C_8
REMARK    4  A    between atoms: N_9  and  C_10
REMARK    5  A    between atoms: C_10  and  C_11
REMARK    6  A    between atoms: C_18  and  C_23
REMARK    7  A    between atoms: C_24  and  C_26
REMARK    8  A    between atoms: C_31  and  O_32
REMARK    9  A    between atoms: O_32  and  C_33
REMARK                            x       y       z     vdW  Elec       q    Type
REMARK                         _______ _______ _______ _____ _____    ______ ____
ROOT
ATOM      1  N   UNL     1      -0.106  -4.439  -0.720  0.00  0.00    -0.266 N 
ATOM      2  C   UNL     1      -1.041  -5.394  -0.543  0.00  0.00    +0.254 C 
ATOM      3  O   UNL     1      -0.708  -6.557  -0.421  0.00  0.00    -0.270 OA
ENDROOT
BRANCH   1   8
ATOM      4  C   UNL     1      -1.673   0.930  -1.663  0.00  0.00    +0.044 C 
ATOM      5  C   UNL     1      -1.257  -0.497  -1.413  0.00  0.00    -0.050 A 
ATOM      6  C   UNL     1      -1.542  -1.096  -0.199  0.00  0.00    +0.005 A 
ATOM      7  C   UNL     1      -1.162  -2.403   0.034  0.00  0.00    +0.024 A 
ATOM      8  C   UNL     1      -0.493  -3.116  -0.953  0.00  0.00    +0.040 A 
ATOM      9  C   UNL     1      -0.208  -2.511  -2.170  0.00  0.00    -0.029 A 
ATOM     10  C   UNL     1      -0.596  -1.206  -2.399  0.00  0.00    +0.008 A 
ATOM     11  C   UNL     1       0.519  -3.281  -3.243  0.00  0.00    +0.045 C 
ENDBRANCH   1   8
BRANCH   2  12
ATOM     12  C   UNL     1      -2.469  -5.027  -0.498  0.00  0.00    +0.079 A 
ATOM     13  C   UNL     1      -3.012  -4.191  -1.477  0.00  0.00    +0.017 A 
ATOM     14  C   UNL     1      -4.346  -3.853  -1.429  0.00  0.00    +0.001 A 
ATOM     15  C   UNL     1      -5.154  -4.337  -0.414  0.00  0.00    +0.004 A 
ATOM     16  C   UNL     1      -4.632  -5.164   0.560  0.00  0.00    +0.046 A 
ATOM     17  C   UNL     1      -3.292  -5.521   0.524  0.00  0.00    +0.132 A 
BRANCH  17  18
ATOM     18  O   UNL     1      -2.778  -6.338   1.477  0.00  0.00    -0.494 OA
ATOM     19  C   UNL     1      -3.676  -6.801   2.487  0.00  0.00    +0.277 C 
ENDBRANCH  17  18
ENDBRANCH   2  12
BRANCH   1  20
ATOM     20  C   UNL     1       1.316  -4.789  -0.668  0.00  0.00    +0.131 C 
BRANCH  20  21
ATOM     21  C   UNL     1       1.775  -4.843   0.790  0.00  0.00    +0.116 C 
ATOM     22  C   UNL     1       3.055  -5.653   0.845  0.00  0.00    -0.003 C 
ATOM     23  C   UNL     1       4.159  -5.042   1.362  0.00  0.00    -0.007 A 
ATOM     24  C   UNL     1       5.436  -5.752   1.453  0.00  0.00    +0.009 A 
ATOM     25  C   UNL     1       6.509  -5.104   1.976  0.00  0.00    +0.001 A 
ATOM     26  C   UNL     1       6.415  -3.786   2.424  0.00  0.00    +0.005 A 
ATOM     27  C   UNL     1       5.260  -3.074   2.368  0.00  0.00    -0.029 A 
ATOM     28  C   UNL     1       4.089  -3.651   1.843  0.00  0.00    +0.043 A 
ATOM     29  N   UNL     1       2.961  -2.943   1.791  0.00  0.00    -0.284 N 
ATOM     30  C   UNL     1       1.827  -3.425   1.313  0.00  0.00    +0.226 C 
ATOM     31  O   UNL     1       0.830  -2.729   1.292  0.00  0.00    -0.275 OA
ATOM     32  C   UNL     1       5.232  -1.653   2.871  0.00  0.00    +0.045 C 
ATOM     33  H   UNL     1       2.973  -2.031   2.122  0.00  0.00    +0.155 HD
ENDBRANCH  20  21
ENDBRANCH   1  20
TORSDOF 5
