REMARK  Name = ZINC39488163
REMARK  8 active torsions:
REMARK  status: ('A' for Active; 'I' for Inactive)
REMARK    1  A    between atoms: C_1  and  C_2
REMARK    2  A    between atoms: C_2  and  C_24
REMARK    3  A    between atoms: N_7  and  C_8
REMARK    4  A    between atoms: C_8  and  C_9
REMARK    5  A    between atoms: C_9  and  C_17
REMARK    6  A    between atoms: N_12  and  S_15
REMARK    7  A    between atoms: S_15  and  C_16
REMARK    8  A    between atoms: C_29  and  O_30
REMARK                            x       y       z     vdW  Elec       q    Type
REMARK                         _______ _______ _______ _____ _____    ______ ____
ROOT
ATOM      1  C   UNL     1       5.046   0.352   0.447  0.00  0.00    +0.039 C 
ATOM      2  C   UNL     1       3.922  -0.253  -0.398  0.00  0.00    +0.081 C 
ATOM      3  C   UNL     1       3.858   0.426  -1.779  0.00  0.00    +0.153 C 
ATOM      4  N   UNL     1       2.518   1.030  -1.813  0.00  0.00    -0.219 N 
ATOM      5  C   UNL     1       1.887   0.765  -0.662  0.00  0.00    +0.315 C 
ATOM      6  O   UNL     1       0.758   1.148  -0.422  0.00  0.00    -0.252 OA
ATOM      7  N   UNL     1       2.612   0.041   0.201  0.00  0.00    -0.273 N 
ATOM      8 BR   UNL     1       1.816   2.002  -3.222  0.00  0.00    +0.040 Br
ENDROOT
BRANCH   2   9
ATOM      9  C   UNL     1       4.116  -1.741  -0.544  0.00  0.00    +0.019 A 
ATOM     10  C   UNL     1       3.138  -2.612  -0.102  0.00  0.00    +0.009 A 
ATOM     11  C   UNL     1       3.315  -3.976  -0.236  0.00  0.00    +0.001 A 
ATOM     12  C   UNL     1       4.470  -4.473  -0.812  0.00  0.00    +0.004 A 
ATOM     13  C   UNL     1       5.450  -3.607  -1.255  0.00  0.00    +0.046 A 
ATOM     14  C   UNL     1       5.272  -2.236  -1.127  0.00  0.00    +0.122 A 
BRANCH  14  15
ATOM     15  O   UNL     1       6.233  -1.382  -1.568  0.00  0.00    -0.506 OA
ATOM     16  H   UNL     1       6.899  -1.162  -0.902  0.00  0.00    +0.292 HD
ENDBRANCH  14  15
ENDBRANCH   2   9
BRANCH   7  17
ATOM     17  C   UNL     1       2.169  -0.390   1.529  0.00  0.00    +0.117 C 
BRANCH  17  18
ATOM     18  C   UNL     1       2.150   0.812   2.475  0.00  0.00    -0.008 C 
ATOM     19  C   UNL     1       1.569   0.389   3.827  0.00  0.00    +0.025 C 
ATOM     20  C   UNL     1       0.123  -0.073   3.634  0.00  0.00    +0.097 C 
ATOM     21  N   UNL     1      -0.670   1.021   3.061  0.00  0.00    -0.250 NA
ATOM     22  C   UNL     1      -0.160   1.412   1.741  0.00  0.00    +0.097 C 
ATOM     23  C   UNL     1       1.277   1.919   1.878  0.00  0.00    +0.025 C 
BRANCH  18  24
ATOM     24  C   UNL     1       3.575   1.332   2.669  0.00  0.00    -0.003 C 
ATOM     25  C   UNL     1       4.384   0.314   3.475  0.00  0.00    +0.004 C 
ATOM     26  C   UNL     1       5.810   0.835   3.670  0.00  0.00    +0.000 C 
ATOM     27  C   UNL     1       5.769   2.165   4.424  0.00  0.00    +0.000 C 
ATOM     28  C   UNL     1       4.959   3.183   3.618  0.00  0.00    +0.000 C 
ATOM     29  C   UNL     1       3.534   2.663   3.423  0.00  0.00    +0.004 C 
ENDBRANCH  18  24
BRANCH  21  30
ATOM     30  S   UNL     1      -2.379   0.587   2.976  0.00  0.00    -0.081 S 
ATOM     31  C   UNL     1      -3.168   2.051   2.252  0.00  0.00    +0.103 C 
ENDBRANCH  21  30
ENDBRANCH  17  18
ENDBRANCH   7  17
TORSDOF 6
