REMARK  Name = ZINC34786235
REMARK  11 active torsions:
REMARK  status: ('A' for Active; 'I' for Inactive)
REMARK    1  A    between atoms: C_1  and  C_2
REMARK    2  A    between atoms: C_2  and  C_3
REMARK    3  A    between atoms: C_4  and  C_32
REMARK    4  A    between atoms: C_6  and  N_13
REMARK    5  A    between atoms: C_7  and  C_8
REMARK    6  A    between atoms: C_8  and  O_10
REMARK    7  A    between atoms: O_10  and  C_11
REMARK    8  A    between atoms: C_11  and  C_12
REMARK    9  A    between atoms: N_19  and  C_22
REMARK   10  A    between atoms: C_22  and  C_23
REMARK   11  A    between atoms: N_25  and  C_26
REMARK                            x       y       z     vdW  Elec       q    Type
REMARK                         _______ _______ _______ _____ _____    ______ ____
ROOT
ATOM      1  N   UNL     1       3.983  -1.482  -2.757  0.00  0.00    -0.263 N 
ATOM      2  C   UNL     1       4.323  -1.907  -3.991  0.00  0.00    +0.307 C 
ATOM      3  O   UNL     1       3.460  -2.110  -4.823  0.00  0.00    -0.252 OA
ATOM      4  N   UNL     1       5.619  -2.106  -4.302  0.00  0.00    -0.283 N 
ATOM      5  C   UNL     1       6.669  -1.978  -3.280  0.00  0.00    +0.124 C 
ATOM      6  C   UNL     1       7.757  -1.040  -3.814  0.00  0.00    +0.104 C 
ATOM      7  N   UNL     1       8.219  -1.526  -5.121  0.00  0.00    -0.291 NA
ATOM      8  C   UNL     1       7.135  -1.500  -6.113  0.00  0.00    +0.104 C 
ATOM      9  C   UNL     1       6.021  -2.463  -5.671  0.00  0.00    +0.124 C 
ATOM     10  H   UNL     1       4.663  -1.391  -2.071  0.00  0.00    +0.157 HD
ENDROOT
BRANCH   1  14
ATOM     11  C   UNL     1       0.709  -0.483  -1.240  0.00  0.00    -0.022 A 
ATOM     12  C   UNL     1       0.052  -0.717  -2.390  0.00  0.00    -0.008 A 
ATOM     13  S   UNL     1       1.337  -1.260  -3.494  0.00  0.00    -0.078 S 
ATOM     14  C   UNL     1       2.663  -1.176  -2.469  0.00  0.00    +0.087 A 
ATOM     15  C   UNL     1       2.134  -0.723  -1.268  0.00  0.00    +0.091 A 
ATOM     16  C   UNL     1      -1.420  -0.557  -2.675  0.00  0.00    +0.052 C 
BRANCH  11  18
ATOM     17  C   UNL     1      -0.014   1.533   0.009  0.00  0.00    +0.009 C 
ATOM     18  C   UNL     1       0.003   0.003  -0.000  0.00  0.00    +0.033 C 
ENDBRANCH  11  18
BRANCH  15  19
ATOM     19  C   UNL     1       2.975  -0.505  -0.090  0.00  0.00    +0.342 C 
ATOM     20  O   UNL     1       3.163  -1.411   0.700  0.00  0.00    -0.245 OA
BRANCH  19  21
ATOM     21  O   UNL     1       3.542   0.701   0.120  0.00  0.00    -0.461 OA
BRANCH  21  22
ATOM     22  C   UNL     1       4.350   0.843   1.290  0.00  0.00    +0.229 C 
ATOM     23  C   UNL     1       4.903   2.268   1.358  0.00  0.00    +0.048 C 
ENDBRANCH  21  22
ENDBRANCH  19  21
ENDBRANCH  15  19
ENDBRANCH   1  14
BRANCH   7  24
ATOM     24  C   UNL     1       9.379  -0.756  -5.589  0.00  0.00    +0.180 C 
BRANCH  24  25
ATOM     25  C   UNL     1       9.974  -1.430  -6.799  0.00  0.00    +0.227 C 
ATOM     26  O   UNL     1       9.480  -2.451  -7.229  0.00  0.00    -0.274 OA
ATOM     27  N   UNL     1      11.055  -0.898  -7.404  0.00  0.00    -0.311 N 
ATOM     28  H   UNL     1      11.450  -0.081  -7.060  0.00  0.00    +0.149 HD
BRANCH  27  29
ATOM     29  C   UNL     1      11.633  -1.552  -8.580  0.00  0.00    +0.073 C 
ATOM     30  C   UNL     1      12.605  -2.645  -8.129  0.00  0.00    +0.022 C 
ATOM     31  C   UNL     1      13.209  -3.328  -9.357  0.00  0.00    +0.002 C 
ATOM     32  C   UNL     1      13.958  -2.294 -10.200  0.00  0.00    +0.000 C 
ATOM     33  C   UNL     1      12.986  -1.202 -10.650  0.00  0.00    +0.002 C 
ATOM     34  C   UNL     1      12.383  -0.518  -9.422  0.00  0.00    +0.022 C 
ENDBRANCH  27  29
ENDBRANCH  24  25
ENDBRANCH   7  24
TORSDOF 8
