REMARK  Name = ZINC05564215
REMARK  11 active torsions:
REMARK  status: ('A' for Active; 'I' for Inactive)
REMARK    1  A    between atoms: C_1  and  C_2
REMARK    2  A    between atoms: C_2  and  N_59
REMARK    3  A    between atoms: C_3  and  C_4
REMARK    4  A    between atoms: C_3  and  N_59
REMARK    5  A    between atoms: C_5  and  C_6
REMARK    6  A    between atoms: C_5  and  N_59
REMARK    7  A    between atoms: C_6  and  N_7
REMARK    8  A    between atoms: C_8  and  C_28
REMARK    9  A    between atoms: C_11  and  C_12
REMARK   10  A    between atoms: C_11  and  O_23
REMARK   11  A    between atoms: C_19  and  C_22
REMARK                            x       y       z     vdW  Elec       q    Type
REMARK                         _______ _______ _______ _____ _____    ______ ____
ROOT
ATOM      1  N   UNL     1      -2.832  -7.901   4.038  0.00  0.00    -0.282 N 
ATOM      2  C   UNL     1      -1.573  -7.174   4.229  0.00  0.00    +0.180 C 
ATOM      3  C   UNL     1      -1.596  -6.010   3.267  0.00  0.00    +0.074 C 
ATOM      4  C   UNL     1      -0.615  -5.051   3.101  0.00  0.00    +0.133 C 
ATOM      5  C   UNL     1      -2.810  -6.101   2.571  0.00  0.00    +0.249 C 
ATOM      6  O   UNL     1      -3.195  -5.340   1.702  0.00  0.00    -0.282 OA
ATOM      7  C   UNL     1      -3.548  -7.289   3.080  0.00  0.00    +0.288 C 
ATOM      8  O   UNL     1      -4.638  -7.653   2.687  0.00  0.00    -0.266 OA
ENDROOT
BRANCH   4   9
ATOM      9  C   UNL     1      -0.847  -3.909   2.203  0.00  0.00    +0.017 A 
ATOM     10  C   UNL     1       0.121  -3.546   1.259  0.00  0.00    +0.015 A 
ATOM     11  C   UNL     1      -0.099  -2.481   0.419  0.00  0.00    +0.046 A 
ATOM     12  C   UNL     1      -1.287  -1.751   0.497  0.00  0.00    +0.124 A 
ATOM     13  C   UNL     1      -2.244  -2.112   1.443  0.00  0.00    -0.002 A 
ATOM     14  C   UNL     1      -2.037  -3.176   2.285  0.00  0.00    +0.019 A 
ATOM     15  C   UNL     1      -3.400  -1.141   1.297  0.00  0.00    +0.083 C 
ATOM     16  C   UNL     1      -2.762  -0.011   0.455  0.00  0.00    +0.175 C 
ATOM     17  O   UNL     1      -1.703  -0.686  -0.243  0.00  0.00    -0.488 OA
ATOM     18  C   UNL     1      -3.778   0.569  -0.532  0.00  0.00    +0.052 C 
ENDBRANCH   4   9
BRANCH   2  19
ATOM     19  C   UNL     1      -1.482  -6.671   5.647  0.00  0.00    +0.130 A 
ATOM     20  C   UNL     1      -0.369  -6.640   6.401  0.00  0.00    +0.047 A 
ATOM     21  C   UNL     1      -0.737  -6.096   7.653  0.00  0.00    +0.041 A 
ATOM     22  C   UNL     1      -2.053  -5.827   7.589  0.00  0.00    +0.195 A 
ATOM     23  O   UNL     1      -2.498  -6.172   6.370  0.00  0.00    -0.466 OA
ENDBRANCH   2  19
BRANCH   4  24
ATOM     24  O   UNL     1       0.556  -5.162   3.764  0.00  0.00    -0.506 OA
ATOM     25  H   UNL     1       1.146  -4.389   3.530  0.00  0.00    +0.292 HD
ENDBRANCH   4  24
BRANCH   1  26
ATOM     26  C   UNL     1      -3.239  -9.104   4.768  0.00  0.00    +0.091 C 
BRANCH  26  27
ATOM     27  C   UNL     1      -2.746 -10.345   4.021  0.00  0.00    -0.060 C 
BRANCH  27  28
ATOM     28  N   UNL     1      -3.146 -11.549   4.780  0.00  0.00    +0.380 N 
ATOM     29  H   UNL     1      -2.842 -11.445   5.755  0.00  0.00    -0.082 HD
BRANCH  28  31
ATOM     30  C   UNL     1      -5.105 -11.902   3.314  0.00  0.00    -0.017 C 
ATOM     31  C   UNL     1      -4.616 -11.700   4.750  0.00  0.00    -0.082 C 
ENDBRANCH  28  31
BRANCH  28  32
ATOM     32  C   UNL     1      -2.503 -12.748   4.202  0.00  0.00    -0.082 C 
ATOM     33  C   UNL     1      -2.637 -13.904   5.194  0.00  0.00    -0.017 C 
ENDBRANCH  28  32
ENDBRANCH  27  28
ENDBRANCH  26  27
ENDBRANCH   1  26
TORSDOF 8
