REMARK  Name = ZINC02960433
REMARK  8 active torsions:
REMARK  status: ('A' for Active; 'I' for Inactive)
REMARK    1  A    between atoms: C_1  and  C_2
REMARK    2  A    between atoms: C_5  and  C_8
REMARK    3  A    between atoms: C_8  and  N_9
REMARK    4  A    between atoms: C_10  and  C_12
REMARK    5  A    between atoms: C_17  and  C_18
REMARK    6  A    between atoms: C_17  and  N_65
REMARK    7  A    between atoms: N_21  and  C_28
REMARK    8  A    between atoms: C_22  and  N_23
REMARK                            x       y       z     vdW  Elec       q    Type
REMARK                         _______ _______ _______ _____ _____    ______ ____
ROOT
ATOM      1  C   UNL     1       3.089   5.772  -0.169  0.00  0.00    +0.071 C 
ATOM      2  C   UNL     1       2.340   6.484   0.961  0.00  0.00    -0.006 C 
ATOM      3  C   UNL     1       1.545   5.453   1.767  0.00  0.00    -0.078 C 
ATOM      4  C   UNL     1       1.295   4.036  -0.183  0.00  0.00    -0.078 C 
ATOM      5  C   UNL     1       2.082   5.024  -1.047  0.00  0.00    -0.006 C 
ATOM      6  N   UNL     1       0.578   4.786   0.870  0.00  0.00    +0.383 N 
ATOM      7  H   UNL     1      -0.013   5.499   0.427  0.00  0.00    -0.081 HD
ENDROOT
BRANCH   1   9
ATOM      8  N   UNL     1       4.559   6.389  -2.061  0.00  0.00    -0.311 N 
ATOM      9  C   UNL     1       3.826   6.789  -1.003  0.00  0.00    +0.216 C 
ATOM     10  O   UNL     1       3.759   7.967  -0.722  0.00  0.00    -0.276 OA
ATOM     11  H   UNL     1       4.612   5.447  -2.286  0.00  0.00    +0.149 HD
BRANCH   8  12
ATOM     12  C   UNL     1       5.275   7.378  -2.871  0.00  0.00    +0.139 C 
BRANCH  12  17
ATOM     13  C   UNL     1       8.101   4.690  -7.135  0.00  0.00    +0.044 C 
ATOM     14  C   UNL     1       7.364   5.391  -6.023  0.00  0.00    -0.050 A 
ATOM     15  C   UNL     1       6.067   5.827  -6.221  0.00  0.00    +0.003 A 
ATOM     16  C   UNL     1       5.391   6.470  -5.201  0.00  0.00    +0.005 A 
ATOM     17  C   UNL     1       6.012   6.677  -3.983  0.00  0.00    -0.030 A 
ATOM     18  C   UNL     1       7.311   6.246  -3.787  0.00  0.00    +0.005 A 
ATOM     19  C   UNL     1       7.985   5.599  -4.806  0.00  0.00    +0.003 A 
ENDBRANCH  12  17
ENDBRANCH   8  12
ENDBRANCH   1   9
BRANCH   6  20
ATOM     20  C   UNL     1      -0.280   3.868   1.648  0.00  0.00    -0.038 C 
BRANCH  20  21
ATOM     21  C   UNL     1      -1.462   3.476   0.799  0.00  0.00    -0.001 A 
ATOM     22  C   UNL     1      -1.639   2.251   0.150  0.00  0.00    +0.138 A 
ATOM     23  N   UNL     1      -2.781   2.280  -0.487  0.00  0.00    -0.173 NA
ATOM     24  N   UNL     1      -3.381   3.526  -0.264  0.00  0.00    -0.216 N 
ATOM     25  C   UNL     1      -2.547   4.252   0.530  0.00  0.00    +0.142 A 
BRANCH  24  26
ATOM     26  C   UNL     1      -4.617   3.951  -0.769  0.00  0.00    +0.068 A 
ATOM     27  C   UNL     1      -5.435   4.774  -0.006  0.00  0.00    +0.028 A 
ATOM     28  C   UNL     1      -6.650   5.196  -0.509  0.00  0.00    +0.002 A 
ATOM     29  C   UNL     1      -7.058   4.789  -1.766  0.00  0.00    +0.000 A 
ATOM     30  C   UNL     1      -6.248   3.964  -2.526  0.00  0.00    +0.002 A 
ATOM     31  C   UNL     1      -5.029   3.544  -2.031  0.00  0.00    +0.028 A 
ENDBRANCH  24  26
BRANCH  25  32
ATOM     32  N   UNL     1      -2.767   5.553   0.988  0.00  0.00    -0.308 N 
ATOM     33  C   UNL     1      -2.757   5.949   2.296  0.00  0.00    +0.092 A 
ATOM     34  C   UNL     1      -3.014   7.273   2.337  0.00  0.00    +0.019 A 
ATOM     35  C   UNL     1      -3.189   7.711   1.008  0.00  0.00    +0.019 A 
ATOM     36  C   UNL     1      -3.033   6.640   0.204  0.00  0.00    +0.092 A 
ENDBRANCH  25  32
ENDBRANCH  20  21
ENDBRANCH   6  20
TORSDOF 7
