REMARK  Name = ZINC63373971
REMARK  10 active torsions:
REMARK  status: ('A' for Active; 'I' for Inactive)
REMARK    1  A    between atoms: C_1  and  C_2
REMARK    2  A    between atoms: C_2  and  C_4
REMARK    3  A    between atoms: C_2  and  N_10
REMARK    4  A    between atoms: C_11  and  C_13
REMARK    5  A    between atoms: C_13  and  C_15
REMARK    6  A    between atoms: C_13  and  N_19
REMARK    7  A    between atoms: C_15  and  C_16
REMARK    8  A    between atoms: C_16  and  C_17
REMARK    9  A    between atoms: C_16  and  C_18
REMARK   10  A    between atoms: C_22  and  C_38
REMARK                            x       y       z     vdW  Elec       q    Type
REMARK                         _______ _______ _______ _____ _____    ______ ____
ROOT
ATOM      1  N   UNL     1       4.181  -1.104  -2.214  0.00  0.00    -0.212 N 
ATOM      2  C   UNL     1       5.082  -0.392  -2.922  0.00  0.00    +0.249 C 
ATOM      3  O   UNL     1       4.860   0.344  -3.859  0.00  0.00    -0.273 OA
ATOM      4  C   UNL     1       6.428  -0.701  -2.302  0.00  0.00    +0.136 C 
ATOM      5  C   UNL     1       7.341  -1.373  -3.335  0.00  0.00    +0.139 C 
ATOM      6  C   UNL     1       8.405  -2.126  -2.545  0.00  0.00    -0.034 C 
ATOM      7  C   UNL     1       9.578  -1.654  -2.954  0.00  0.00    -0.001 A 
ATOM      8  C   UNL     1      10.958  -2.029  -2.603  0.00  0.00    +0.010 A 
ATOM      9  C   UNL     1      11.944  -1.319  -3.212  0.00  0.00    +0.001 A 
ATOM     10  C   UNL     1      11.699  -0.287  -4.123  0.00  0.00    +0.002 A 
ATOM     11  C   UNL     1      10.463   0.121  -4.507  0.00  0.00    +0.026 A 
ATOM     12  C   UNL     1       9.343  -0.553  -3.937  0.00  0.00    +0.043 A 
ATOM     13  N   UNL     1       8.059  -0.380  -4.139  0.00  0.00    -0.375 N 
ATOM     14  C   UNL     1       8.079  -3.143  -1.478  0.00  0.00    +0.052 C 
ATOM     15  C   UNL     1       7.091  -2.475  -0.500  0.00  0.00    +0.115 C 
ATOM     16  N   UNL     1       6.104  -1.727  -1.285  0.00  0.00    -0.269 N 
ATOM     17  C   UNL     1       4.769  -1.839  -1.261  0.00  0.00    +0.313 C 
ATOM     18  O   UNL     1       4.162  -2.530  -0.467  0.00  0.00    -0.252 OA
ATOM     19  C   UNL     1       7.070   0.541  -1.681  0.00  0.00    +0.044 C 
ATOM     20  H   UNL     1       7.650   0.286  -4.714  0.00  0.00    +0.160 HD
ENDROOT
BRANCH   1  21
ATOM     21  C   UNL     1       2.736  -1.073  -2.455  0.00  0.00    +0.171 C 
BRANCH  21  23
ATOM     22  N   UNL     1       0.688  -0.476  -1.203  0.00  0.00    -0.307 N 
ATOM     23  C   UNL     1       2.031  -0.587  -1.215  0.00  0.00    +0.235 C 
ATOM     24  O   UNL     1       2.672  -0.295  -0.228  0.00  0.00    -0.274 OA
ATOM     25  H   UNL     1       0.175  -0.710  -1.993  0.00  0.00    +0.149 HD
BRANCH  22  27
ATOM     26  C   UNL     1      -0.019   1.526   0.010  0.00  0.00    +0.033 C 
ATOM     27  C   UNL     1       0.002  -0.004   0.002  0.00  0.00    +0.100 C 
BRANCH  27  28
ATOM     28  C   UNL     1      -1.412  -0.526   0.013  0.00  0.00    -0.027 A 
ATOM     29  C   UNL     1      -2.141  -0.569  -1.161  0.00  0.00    +0.005 A 
ATOM     30  C   UNL     1      -3.438  -1.047  -1.151  0.00  0.00    +0.000 A 
ATOM     31  C   UNL     1      -4.005  -1.483   0.032  0.00  0.00    +0.000 A 
ATOM     32  C   UNL     1      -3.275  -1.441   1.205  0.00  0.00    +0.000 A 
ATOM     33  C   UNL     1      -1.977  -0.966   1.195  0.00  0.00    +0.005 A 
ENDBRANCH  27  28
ENDBRANCH  22  27
ENDBRANCH  21  23
BRANCH  21  34
ATOM     34  C   UNL     1       2.247  -2.480  -2.801  0.00  0.00    +0.035 C 
BRANCH  34  35
ATOM     35  C   UNL     1       2.868  -2.925  -4.127  0.00  0.00    -0.015 C 
ATOM     36  C   UNL     1       2.479  -4.376  -4.412  0.00  0.00    +0.007 C 
ATOM     37  C   UNL     1       2.356  -2.028  -5.256  0.00  0.00    +0.007 C 
ENDBRANCH  34  35
ENDBRANCH  21  34
ENDBRANCH   1  21
TORSDOF 6
