REMARK  Name = ZINC30286395
REMARK  12 active torsions:
REMARK  status: ('A' for Active; 'I' for Inactive)
REMARK    1  A    between atoms: C_1  and  C_2
REMARK    2  A    between atoms: C_9  and  N_17
REMARK    3  A    between atoms: C_10  and  C_11
REMARK    4  A    between atoms: C_11  and  O_13
REMARK    5  A    between atoms: O_13  and  C_14
REMARK    6  A    between atoms: C_14  and  C_15
REMARK    7  A    between atoms: C_14  and  C_16
REMARK    8  A    between atoms: C_18  and  C_20
REMARK    9  A    between atoms: C_20  and  C_22
REMARK   10  A    between atoms: C_20  and  N_23
REMARK   11  A    between atoms: C_26  and  N_29
REMARK   12  A    between atoms: C_30  and  C_32
REMARK                            x       y       z     vdW  Elec       q    Type
REMARK                         _______ _______ _______ _____ _____    ______ ____
ROOT
ATOM      1  N   UNL     1      -1.700   1.088  -4.849  0.00  0.00    -0.281 N 
ATOM      2  C   UNL     1      -2.110   1.955  -5.796  0.00  0.00    +0.204 C 
ATOM      3  O   UNL     1      -2.415   3.089  -5.489  0.00  0.00    -0.277 OA
ATOM      4  H   UNL     1      -1.424   0.060  -5.127  0.00  0.00    +0.155 HD
ENDROOT
BRANCH   1  12
ATOM      5  C   UNL     1      -1.337   3.784   2.485  0.00  0.00    +0.008 C 
ATOM      6  C   UNL     1      -0.993   3.025   1.202  0.00  0.00    -0.009 C 
ATOM      7  C   UNL     1      -1.399   1.556   1.350  0.00  0.00    +0.008 C 
ATOM      8  C   UNL     1      -0.843   0.742   0.179  0.00  0.00    +0.037 C 
ATOM      9  C   UNL     1      -1.246   1.417  -1.126  0.00  0.00    -0.021 A 
ATOM     10  C   UNL     1      -1.647   2.707  -1.148  0.00  0.00    -0.004 A 
ATOM     11  S   UNL     1      -2.004   3.042  -2.849  0.00  0.00    -0.077 S 
ATOM     12  C   UNL     1      -1.627   1.492  -3.525  0.00  0.00    +0.086 A 
ATOM     13  C   UNL     1      -1.234   0.751  -2.418  0.00  0.00    +0.091 A 
ATOM     14  C   UNL     1      -1.759   3.638   0.020  0.00  0.00    +0.046 C 
BRANCH  13  15
ATOM     15  C   UNL     1      -0.821  -0.648  -2.547  0.00  0.00    +0.342 C 
ATOM     16  O   UNL     1      -1.646  -1.537  -2.452  0.00  0.00    -0.245 OA
BRANCH  15  17
ATOM     17  O   UNL     1       0.474  -0.951  -2.772  0.00  0.00    -0.458 OA
BRANCH  17  18
ATOM     18  C   UNL     1       0.811  -2.358  -2.889  0.00  0.00    +0.171 C 
ATOM     19  C   UNL     1       2.012  -2.519  -3.823  0.00  0.00    +0.052 C 
ATOM     20  C   UNL     1       1.161  -2.916  -1.508  0.00  0.00    +0.052 C 
ENDBRANCH  17  18
ENDBRANCH  15  17
ENDBRANCH  13  15
ENDBRANCH   1  12
BRANCH   2  21
ATOM     21  C   UNL     1      -2.190   1.517  -7.235  0.00  0.00    +0.016 C 
ATOM     22  C   UNL     1      -0.832   1.726  -7.908  0.00  0.00    -0.004 C 
BRANCH  21  23
ATOM     23  N   UNL     1      -3.210   2.311  -7.933  0.00  0.00    +0.387 N 
ATOM     24  C   UNL     1      -3.199   2.031  -9.375  0.00  0.00    -0.076 C 
ATOM     25  C   UNL     1      -4.169   2.978 -10.086  0.00  0.00    +0.004 C 
ATOM     26  C   UNL     1      -5.577   2.779  -9.519  0.00  0.00    +0.069 C 
ATOM     27  C   UNL     1      -5.551   3.029  -8.009  0.00  0.00    +0.004 C 
ATOM     28  C   UNL     1      -4.541   2.082  -7.357  0.00  0.00    -0.076 C 
ATOM     29  H   UNL     1      -2.964   3.375  -7.796  0.00  0.00    -0.081 HD
BRANCH  26  30
ATOM     30  N   UNL     1      -6.499   3.723 -10.156  0.00  0.00    -0.312 N 
ATOM     31  C   UNL     1      -7.076   3.411 -11.333  0.00  0.00    +0.216 C 
ATOM     32  O   UNL     1      -6.833   2.349 -11.866  0.00  0.00    -0.276 OA
ATOM     33  H   UNL     1      -6.720   4.686  -9.673  0.00  0.00    +0.149 HD
BRANCH  31  34
ATOM     34  C   UNL     1      -8.024   4.382 -11.988  0.00  0.00    +0.075 C 
ATOM     35  C   UNL     1      -9.503   3.992 -12.052  0.00  0.00    +0.013 C 
ATOM     36  C   UNL     1      -8.649   3.969 -13.322  0.00  0.00    +0.013 C 
ENDBRANCH  31  34
ENDBRANCH  26  30
ENDBRANCH  21  23
ENDBRANCH   2  21
TORSDOF 8
