REMARK  Name = ZINC16927905
REMARK  10 active torsions:
REMARK  status: ('A' for Active; 'I' for Inactive)
REMARK    1  A    between atoms: C_1  and  C_2
REMARK    2  A    between atoms: C_2  and  N_3
REMARK    3  A    between atoms: C_7  and  C_8
REMARK    4  A    between atoms: C_11  and  O_14
REMARK    5  A    between atoms: O_14  and  C_15
REMARK    6  A    between atoms: C_15  and  C_17
REMARK    7  A    between atoms: C_15  and  C_18
REMARK    8  A    between atoms: N_22  and  C_23
REMARK    9  A    between atoms: C_26  and  O_31
REMARK   10  A    between atoms: C_28  and  C_29
REMARK                            x       y       z     vdW  Elec       q    Type
REMARK                         _______ _______ _______ _____ _____    ______ ____
ROOT
ATOM      1  N   UNL     1      -3.945   5.163  -0.701  0.00  0.00    -0.246 N 
ATOM      2  C   UNL     1      -3.915   3.861  -0.930  0.00  0.00    +0.259 C 
ATOM      3  O   UNL     1      -4.867   3.279  -1.416  0.00  0.00    -0.269 OA
ATOM      4  C   UNL     1      -2.675   3.147  -0.572  0.00  0.00    +0.078 C 
ATOM      5  C   UNL     1      -2.372   1.830  -0.696  0.00  0.00    +0.028 C 
ATOM      6  S   UNL     1      -1.681   4.483   0.079  0.00  0.00    -0.049 S 
ATOM      7  C   UNL     1      -2.858   5.805  -0.151  0.00  0.00    +0.168 C 
ATOM      8  N   UNL     1      -2.722   7.082   0.140  0.00  0.00    -0.225 NA
ENDROOT
BRANCH   5   9
ATOM      9  C   UNL     1      -1.005   1.362  -0.434  0.00  0.00    -0.024 A 
ATOM     10  C   UNL     1       0.056   2.275  -0.404  0.00  0.00    +0.011 A 
ATOM     11  C   UNL     1       1.337   1.831  -0.163  0.00  0.00    +0.046 A 
ATOM     12  C   UNL     1       1.577   0.478   0.051  0.00  0.00    +0.122 A 
ATOM     13  C   UNL     1       0.527  -0.432   0.023  0.00  0.00    +0.046 A 
ATOM     14  C   UNL     1      -0.757   0.001  -0.217  0.00  0.00    +0.011 A 
BRANCH  12  15
ATOM     15  O   UNL     1       2.842   0.045   0.288  0.00  0.00    -0.478 OA
BRANCH  15  16
ATOM     16  C   UNL     1       3.011  -1.349   0.551  0.00  0.00    +0.282 C 
ATOM     17  C   UNL     1       3.108  -2.110  -0.772  0.00  0.00    +0.064 C 
BRANCH  16  18
ATOM     18  C   UNL     1       4.275  -1.560   1.345  0.00  0.00    +0.395 C 
ATOM     19  O   UNL     1       4.960  -0.614   1.654  0.00  0.00    -0.242 OA
ATOM     20  O   UNL     1       4.639  -2.800   1.709  0.00  0.00    -0.242 OA
ENDBRANCH  16  18
ENDBRANCH  15  16
ENDBRANCH  12  15
ENDBRANCH   5   9
BRANCH   8  21
ATOM     21  C   UNL     1      -1.524   7.556   0.581  0.00  0.00    +0.081 A 
ATOM     22  C   UNL     1      -0.350   7.260  -0.117  0.00  0.00    +0.032 A 
ATOM     23  C   UNL     1       0.859   7.741   0.332  0.00  0.00    +0.047 A 
ATOM     24  C   UNL     1       0.925   8.524   1.481  0.00  0.00    +0.118 A 
ATOM     25  C   UNL     1      -0.223   8.829   2.187  0.00  0.00    +0.062 A 
ATOM     26  C   UNL     1      -1.461   8.354   1.744  0.00  0.00    +0.092 A 
BRANCH  26  27
ATOM     27  C   UNL     1      -2.688   8.680   2.486  0.00  0.00    +0.389 C 
ATOM     28  O   UNL     1      -3.762   8.261   2.099  0.00  0.00    -0.241 OA
ATOM     29  O   UNL     1      -2.622   9.443   3.596  0.00  0.00    -0.241 OA
ENDBRANCH  26  27
BRANCH  24  30
ATOM     30  O   UNL     1       2.127   8.992   1.911  0.00  0.00    -0.507 OA
ATOM     31  H   UNL     1       2.366   9.855   1.546  0.00  0.00    +0.292 HD
ENDBRANCH  24  30
ENDBRANCH   8  21
BRANCH   1  33
ATOM     32  C   UNL     1      -6.090   5.952   0.172  0.00  0.00    +0.025 C 
ATOM     33  C   UNL     1      -5.148   5.931  -1.034  0.00  0.00    +0.112 C 
ENDBRANCH   1  33
TORSDOF 8
