REMARK  Name = ZINC22021144
REMARK  4 active torsions:
REMARK  status: ('A' for Active; 'I' for Inactive)
REMARK    1  A    between atoms: C_3  and  C_6
REMARK    2  A    between atoms: N_13  and  C_16
REMARK    3  A    between atoms: C_16  and  C_17
REMARK    4  A    between atoms: N_19  and  C_20
REMARK                            x       y       z     vdW  Elec       q    Type
REMARK                         _______ _______ _______ _____ _____    ______ ____
ROOT
ATOM      1  C   UNL     1      -4.920   0.090   0.721  0.00  0.00    +0.237 C 
ATOM      2  O   UNL     1      -6.096  -0.019   0.996  0.00  0.00    -0.274 OA
ATOM      3  N   UNL     1      -3.989  -0.026   1.688  0.00  0.00    -0.284 N 
ATOM      4  H   UNL     1      -2.920  -0.004   1.428  0.00  0.00    +0.155 HD
ENDROOT
BRANCH   3   5
ATOM      5  C   UNL     1      -4.381  -0.176   3.025  0.00  0.00    +0.037 A 
ATOM      6  C   UNL     1      -3.623   0.395   4.039  0.00  0.00    +0.027 A 
ATOM      7  C   UNL     1      -4.011   0.252   5.357  0.00  0.00    +0.051 A 
ATOM      8  C   UNL     1      -5.151  -0.471   5.672  0.00  0.00    +0.167 A 
ATOM      9  C   UNL     1      -5.910  -1.049   4.657  0.00  0.00    +0.169 A 
ATOM     10  C   UNL     1      -5.524  -0.900   3.335  0.00  0.00    +0.073 A 
ATOM     11  O   UNL     1      -6.970  -1.701   5.221  0.00  0.00    -0.447 OA
ATOM     12  C   UNL     1      -7.069  -1.183   6.556  0.00  0.00    +0.254 C 
ATOM     13  O   UNL     1      -5.736  -0.758   6.873  0.00  0.00    -0.448 OA
ATOM     14  C   UNL     1      -7.522  -2.277   7.517  0.00  0.00    +0.093 C 
ATOM     15  C   UNL     1      -8.932  -2.737   7.141  0.00  0.00    +0.008 C 
ATOM     16  C   UNL     1      -9.892  -1.548   7.206  0.00  0.00    +0.000 C 
ATOM     17  C   UNL     1      -9.436  -0.469   6.221  0.00  0.00    +0.008 C 
ATOM     18  C   UNL     1      -8.029   0.001   6.596  0.00  0.00    +0.093 C 
ENDBRANCH   3   5
BRANCH   1  19
ATOM     19  C   UNL     1      -4.500   0.355  -0.702  0.00  0.00    +0.222 C 
BRANCH  19  27
ATOM     20  C   UNL     1      -8.019  -1.642  -3.699  0.00  0.00    +0.010 A 
ATOM     21  C   UNL     1      -9.109  -1.312  -4.436  0.00  0.00    +0.057 A 
ATOM     22  S   UNL     1      -9.262   0.446  -4.184  0.00  0.00    -0.076 S 
ATOM     23  C   UNL     1      -7.874   0.696  -3.107  0.00  0.00    +0.116 A 
ATOM     24  C   UNL     1      -7.324  -0.589  -2.967  0.00  0.00    +0.080 A 
ATOM     25  C   UNL     1      -6.166  -0.680  -2.131  0.00  0.00    +0.263 A 
ATOM     26  O   UNL     1      -5.617  -1.753  -1.949  0.00  0.00    -0.267 OA
ATOM     27  N   UNL     1      -5.689   0.439  -1.554  0.00  0.00    -0.290 N 
ATOM     28  C   UNL     1      -6.290   1.641  -1.742  0.00  0.00    +0.203 A 
ATOM     29  N   UNL     1      -7.348   1.756  -2.499  0.00  0.00    -0.230 NA
BRANCH  20  32
ATOM     30  C   UNL     1      -7.589  -5.389  -3.369  0.00  0.00    +0.008 A 
ATOM     31  C   UNL     1      -8.253  -4.181  -3.366  0.00  0.00    +0.016 A 
ATOM     32  C   UNL     1      -7.545  -3.041  -3.638  0.00  0.00    +0.021 A 
ATOM     33  S   UNL     1      -5.899  -3.683  -3.893  0.00  0.00    -0.097 S 
ATOM     34  C   UNL     1      -6.258  -5.411  -3.630  0.00  0.00    +0.046 A 
ENDBRANCH  20  32
ENDBRANCH  19  27
ENDBRANCH   1  19
TORSDOF 4
