REMARK  Name = ZINC58949253
REMARK  8 active torsions:
REMARK  status: ('A' for Active; 'I' for Inactive)
REMARK    1  A    between atoms: C_1  and  C_2
REMARK    2  A    between atoms: C_3  and  C_24
REMARK    3  A    between atoms: C_4  and  C_14
REMARK    4  A    between atoms: C_6  and  C_10
REMARK    5  A    between atoms: C_7  and  N_9
REMARK    6  A    between atoms: C_10  and  O_12
REMARK    7  A    between atoms: O_12  and  C_13
REMARK    8  A    between atoms: C_18  and  N_20
REMARK                            x       y       z     vdW  Elec       q    Type
REMARK                         _______ _______ _______ _____ _____    ______ ____
ROOT
ATOM      1  C   UNL     1      -0.117   1.499  -0.043  0.00  0.00    +0.087 C 
ATOM      2  C   UNL     1      -0.045  -0.006  -0.023  0.00  0.00    +0.113 C 
ATOM      3  C   UNL     1      -1.180  -0.708   0.061  0.00  0.00    +0.064 C 
ATOM      4  C   UNL     1      -1.167  -2.212   0.085  0.00  0.00    +0.099 C 
ATOM      5  C   UNL     1       0.168  -2.721  -0.389  0.00  0.00    +0.105 C 
ATOM      6  C   UNL     1       1.244  -1.895  -0.449  0.00  0.00    +0.195 C 
ATOM      7  O   UNL     1       1.157  -0.602  -0.096  0.00  0.00    -0.446 OA
ENDROOT
BRANCH   4   8
ATOM      8  C   UNL     1      -1.413  -2.692   1.492  0.00  0.00    -0.033 A 
ATOM      9  C   UNL     1      -0.548  -2.328   2.507  0.00  0.00    +0.006 A 
ATOM     10  C   UNL     1      -0.773  -2.768   3.798  0.00  0.00    +0.022 A 
ATOM     11  C   UNL     1      -1.864  -3.572   4.074  0.00  0.00    +0.071 A 
ATOM     12  C   UNL     1      -2.729  -3.936   3.058  0.00  0.00    +0.145 A 
ATOM     13  C   UNL     1      -2.506  -3.492   1.768  0.00  0.00    +0.038 A 
ATOM     14 CL   UNL     1      -2.147  -4.125   5.695  0.00  0.00    -0.081 Cl
BRANCH  12  15
ATOM     15  N   UNL     1      -3.896  -4.797   3.352  0.00  0.00    +0.058 N 
ATOM     16  O   UNL     1      -4.652  -5.115   2.464  0.00  0.00    -0.126 OA
ATOM     17  O   UNL     1      -4.094  -5.182   4.481  0.00  0.00    -0.126 OA
ENDBRANCH  12  15
ENDBRANCH   4   8
BRANCH   3  18
ATOM     18  C   UNL     1      -2.458  -0.001   0.131  0.00  0.00    +0.242 C 
ATOM     19  O   UNL     1      -2.481   1.216   0.113  0.00  0.00    -0.271 OA
ATOM     20  N   UNL     1      -3.609  -0.696   0.216  0.00  0.00    -0.325 N 
ATOM     21  H   UNL     1      -3.590  -1.666   0.231  0.00  0.00    +0.145 HD
ATOM     22  H   UNL     1      -4.457  -0.227   0.263  0.00  0.00    +0.145 HD
ENDBRANCH   3  18
BRANCH   6  23
ATOM     23  N   UNL     1       2.445  -2.390  -0.884  0.00  0.00    -0.329 N 
ATOM     24  H   UNL     1       2.500  -3.294  -1.230  0.00  0.00    +0.145 HD
ATOM     25  H   UNL     1       3.240  -1.836  -0.845  0.00  0.00    +0.145 HD
ENDBRANCH   6  23
BRANCH   5  26
ATOM     26  C   UNL     1       0.302  -4.064  -0.771  0.00  0.00    +0.341 C 
ATOM     27  O   UNL     1      -0.097  -4.429  -1.863  0.00  0.00    -0.245 OA
BRANCH  26  28
ATOM     28  O   UNL     1       0.872  -4.953   0.071  0.00  0.00    -0.465 OA
ATOM     29  C   UNL     1       0.976  -6.304  -0.384  0.00  0.00    +0.280 C 
ENDBRANCH  26  28
ENDBRANCH   5  26
TORSDOF 6
