REMARK  Name = ZINC08868789
REMARK  5 active torsions:
REMARK  status: ('A' for Active; 'I' for Inactive)
REMARK    1  A    between atoms: C_6  and  C_7
REMARK    2  A    between atoms: C_10  and  C_32
REMARK    3  A    between atoms: C_15  and  C_17
REMARK    4  A    between atoms: N_19  and  C_20
REMARK    5  A    between atoms: C_20  and  C_21
REMARK                            x       y       z     vdW  Elec       q    Type
REMARK                         _______ _______ _______ _____ _____    ______ ____
ROOT
ATOM      1  C   UNL     1      -1.294  -0.774   0.010  0.00  0.00    +0.104 C 
ATOM      2  C   UNL     1      -1.883  -0.805  -1.404  0.00  0.00    +0.063 C 
ATOM      3  C   UNL     1      -2.071   0.625  -1.923  0.00  0.00    +0.215 C 
ATOM      4  N   UNL     1      -2.785   1.407  -0.910  0.00  0.00    -0.238 N 
ATOM      5  C   UNL     1      -2.865   1.048   0.406  0.00  0.00    +0.119 A 
ATOM      6  C   UNL     1      -3.591   1.982   1.052  0.00  0.00    +0.078 A 
ATOM      7  C   UNL     1      -3.974   2.957   0.103  0.00  0.00    +0.149 A 
ATOM      8  N   UNL     1      -3.485   2.602  -1.072  0.00  0.00    -0.164 NA
ATOM      9  N   UNL     1      -2.258  -0.111   0.910  0.00  0.00    -0.322 N 
ATOM     10  H   UNL     1      -2.460  -0.458   1.793  0.00  0.00    +0.148 HD
ENDROOT
BRANCH   1  16
ATOM     11  C   UNL     1      -0.017   1.378   0.010  0.00  0.00    +0.009 A 
ATOM     12  C   UNL     1       1.170   2.088   0.002  0.00  0.00    +0.050 A 
ATOM     13  C   UNL     1       2.380   1.416  -0.013  0.00  0.00    +0.166 A 
ATOM     14  C   UNL     1       2.399   0.023  -0.021  0.00  0.00    +0.167 A 
ATOM     15  C   UNL     1       1.207  -0.682  -0.014  0.00  0.00    +0.055 A 
ATOM     16  C   UNL     1       0.002  -0.004   0.002  0.00  0.00    -0.024 A 
ATOM     17  O   UNL     1       3.698  -0.395  -0.036  0.00  0.00    -0.453 OA
ATOM     18  C   UNL     1       4.466   0.750  -0.450  0.00  0.00    +0.466 C 
ATOM     19  O   UNL     1       3.668   1.870  -0.024  0.00  0.00    -0.453 OA
ENDBRANCH   1  16
BRANCH   7  20
ATOM     20  C   UNL     1      -4.782   4.163   0.377  0.00  0.00    +0.264 C 
ATOM     21  O   UNL     1      -5.179   4.386   1.504  0.00  0.00    -0.268 OA
ATOM     22  N   UNL     1      -5.079   5.016  -0.623  0.00  0.00    -0.310 N 
ATOM     23  H   UNL     1      -4.763   4.838  -1.522  0.00  0.00    +0.149 HD
BRANCH  22  24
ATOM     24  C   UNL     1      -5.880   6.213  -0.351  0.00  0.00    +0.111 C 
BRANCH  24  25
ATOM     25  C   UNL     1      -6.071   7.004  -1.647  0.00  0.00    -0.013 C 
ATOM     26  C   UNL     1      -4.704   7.419  -2.197  0.00  0.00    +0.012 C 
ATOM     27  C   UNL     1      -4.895   8.210  -3.492  0.00  0.00    -0.010 C 
ATOM     28  C   UNL     1      -5.731   9.459  -3.209  0.00  0.00    +0.007 C 
ATOM     29  C   UNL     1      -7.098   9.044  -2.659  0.00  0.00    -0.010 C 
ATOM     30  C   UNL     1      -6.907   8.253  -1.363  0.00  0.00    +0.012 C 
ATOM     31  C   UNL     1      -7.818   8.171  -3.688  0.00  0.00    +0.007 C 
ATOM     32  C   UNL     1      -6.981   6.922  -3.972  0.00  0.00    -0.010 C 
ATOM     33  C   UNL     1      -5.615   7.337  -4.522  0.00  0.00    +0.007 C 
ATOM     34  C   UNL     1      -6.791   6.131  -2.676  0.00  0.00    +0.012 C 
ENDBRANCH  24  25
ENDBRANCH  22  24
ENDBRANCH   7  20
BRANCH   3  35
ATOM     35  C   UNL     1      -2.885   0.596  -3.219  0.00  0.00    +0.412 C 
ATOM     36  F   UNL     1      -4.137   0.022  -2.971  0.00  0.00    -0.168 F 
ATOM     37  F   UNL     1      -3.057   1.902  -3.691  0.00  0.00    -0.168 F 
ATOM     38  F   UNL     1      -2.207  -0.161  -4.179  0.00  0.00    -0.168 F 
ENDBRANCH   3  35
TORSDOF 5
