REMARK  Name = ZINC06408593
REMARK  7 active torsions:
REMARK  status: ('A' for Active; 'I' for Inactive)
REMARK    1  A    between atoms: C_1  and  C_2
REMARK    2  A    between atoms: C_9  and  C_14
REMARK    3  A    between atoms: C_14  and  C_16
REMARK    4  A    between atoms: C_14  and  N_70
REMARK    5  A    between atoms: N_20  and  C_21
REMARK    6  A    between atoms: C_28  and  C_31
REMARK    7  A    between atoms: C_31  and  C_32
REMARK                            x       y       z     vdW  Elec       q    Type
REMARK                         _______ _______ _______ _____ _____    ______ ____
ROOT
ATOM      1  C   UNL     1       4.959   1.184  -0.036  0.00  0.00    +0.039 C 
ENDROOT
BRANCH   1  10
ATOM      2  C   UNL     1      -2.496   0.971   0.020  0.00  0.00    +0.044 C 
ATOM      3  C   UNL     1      -1.203   1.746   0.017  0.00  0.00    -0.050 A 
ATOM      4  C   UNL     1      -1.233   3.134   0.029  0.00  0.00    +0.005 A 
ATOM      5  C   UNL     1      -0.063   3.862   0.022  0.00  0.00    +0.026 A 
ATOM      6  C   UNL     1       1.161   3.202   0.008  0.00  0.00    +0.049 A 
ATOM      7  C   UNL     1       1.188   1.795   0.000  0.00  0.00    -0.001 A 
ATOM      8  C   UNL     1      -0.013   1.076   0.008  0.00  0.00    +0.013 A 
ATOM      9  C   UNL     1       2.481   1.109  -0.015  0.00  0.00    +0.017 A 
ATOM     10  C   UNL     1       3.611   1.858  -0.021  0.00  0.00    +0.011 A 
ATOM     11  C   UNL     1       3.530   3.267  -0.014  0.00  0.00    +0.251 A 
ATOM     12  O   UNL     1       4.558   3.922  -0.019  0.00  0.00    -0.268 OA
ATOM     13  N   UNL     1       2.347   3.906   0.000  0.00  0.00    -0.322 N 
ATOM     14  H   UNL     1       2.327   4.875   0.005  0.00  0.00    +0.169 HD
ENDBRANCH   1  10
BRANCH   1  20
ATOM     15  C   UNL     1       5.012   1.575   2.352  0.00  0.00    -0.077 C 
ATOM     16  C   UNL     1       5.820   2.221   3.479  0.00  0.00    -0.015 C 
ATOM     17  C   UNL     1       7.167   1.504   3.611  0.00  0.00    -0.010 C 
ATOM     18  C   UNL     1       7.907   1.575   2.273  0.00  0.00    -0.015 C 
ATOM     19  C   UNL     1       7.038   0.948   1.180  0.00  0.00    -0.077 C 
ATOM     20  N   UNL     1       5.768   1.698   1.087  0.00  0.00    +0.389 N 
ATOM     21  H   UNL     1       5.978   2.689   0.921  0.00  0.00    -0.080 HD
BRANCH  17  22
ATOM     22  C   UNL     1       8.004   2.184   4.696  0.00  0.00    +0.038 C 
BRANCH  22  23
ATOM     23  C   UNL     1       7.334   2.006   6.034  0.00  0.00    -0.047 A 
ATOM     24  C   UNL     1       6.423   2.945   6.481  0.00  0.00    +0.003 A 
ATOM     25  C   UNL     1       5.805   2.780   7.706  0.00  0.00    +0.000 A 
ATOM     26  C   UNL     1       6.104   1.680   8.488  0.00  0.00    +0.000 A 
ATOM     27  C   UNL     1       7.018   0.744   8.043  0.00  0.00    +0.000 A 
ATOM     28  C   UNL     1       7.633   0.907   6.816  0.00  0.00    +0.003 A 
ENDBRANCH  22  23
ENDBRANCH  17  22
ENDBRANCH   1  20
BRANCH   1  29
ATOM     29  C   UNL     1       5.665   1.503  -1.329  0.00  0.00    +0.143 A 
ATOM     30  N   UNL     1       6.230   2.640  -1.652  0.00  0.00    -0.115 NA
ATOM     31  N   UNL     1       6.726   2.516  -2.835  0.00  0.00    -0.023 NA
ATOM     32  N   UNL     1       6.486   1.332  -3.277  0.00  0.00    -0.044 NA
ATOM     33  N   UNL     1       5.834   0.676  -2.378  0.00  0.00    -0.227 N 
BRANCH  33  34
ATOM     34  C   UNL     1       5.364  -0.708  -2.479  0.00  0.00    +0.111 C 
ATOM     35  C   UNL     1       6.555  -1.653  -2.741  0.00  0.00    +0.027 C 
ATOM     36  C   UNL     1       5.988  -2.717  -3.713  0.00  0.00    +0.002 C 
ATOM     37  C   UNL     1       5.059  -1.884  -4.630  0.00  0.00    +0.002 C 
ATOM     38  C   UNL     1       4.413  -0.855  -3.679  0.00  0.00    +0.027 C 
ENDBRANCH  33  34
ENDBRANCH   1  29
TORSDOF 6
