REMARK  Name = ZINC41268341
REMARK  7 active torsions:
REMARK  status: ('A' for Active; 'I' for Inactive)
REMARK    1  A    between atoms: C_1  and  C_2
REMARK    2  A    between atoms: C_6  and  N_9
REMARK    3  A    between atoms: C_7  and  C_8
REMARK    4  A    between atoms: C_15  and  C_17
REMARK    5  A    between atoms: N_20  and  C_23
REMARK    6  A    between atoms: C_23  and  C_24
REMARK    7  A    between atoms: C_27  and  C_29
REMARK                            x       y       z     vdW  Elec       q    Type
REMARK                         _______ _______ _______ _____ _____    ______ ____
ROOT
ATOM      1  C   UNL     1       1.419  -6.211   5.656  0.00  0.00    +0.072 C 
ATOM      2  C   UNL     1       2.177  -7.053   4.626  0.00  0.00    -0.006 C 
ATOM      3  C   UNL     1       3.468  -7.580   5.256  0.00  0.00    -0.077 C 
ATOM      4  N   UNL     1       3.144  -8.408   6.424  0.00  0.00    +0.386 N 
ATOM      5  C   UNL     1       2.480  -7.590   7.446  0.00  0.00    -0.077 C 
ATOM      6  C   UNL     1       1.151  -7.064   6.900  0.00  0.00    -0.006 C 
ATOM      7  H   UNL     1       2.529  -9.158   6.143  0.00  0.00    -0.081 HD
ENDROOT
BRANCH   1  14
ATOM      8  N   UNL     1      -0.273  -2.004   3.760  0.00  0.00    -0.327 N 
ATOM      9  C   UNL     1      -1.482  -2.807   3.987  0.00  0.00    +0.124 C 
ATOM     10  C   UNL     1      -1.181  -4.264   3.614  0.00  0.00    +0.126 C 
ATOM     11  N   UNL     1       0.071  -4.667   4.271  0.00  0.00    -0.298 N 
ATOM     12  C   UNL     1       1.281  -3.864   4.043  0.00  0.00    +0.126 C 
ATOM     13  C   UNL     1       0.980  -2.410   4.412  0.00  0.00    +0.124 C 
ATOM     14  C   UNL     1       0.109  -5.754   5.067  0.00  0.00    +0.219 C 
ATOM     15  O   UNL     1      -0.911  -6.363   5.310  0.00  0.00    -0.275 OA
BRANCH   8  21
ATOM     16  C   UNL     1      -0.957   2.834   3.235  0.00  0.00    +0.044 C 
ATOM     17  C   UNL     1      -0.641   1.480   2.653  0.00  0.00    -0.046 A 
ATOM     18  C   UNL     1      -0.390   1.353   1.299  0.00  0.00    +0.004 A 
ATOM     19  C   UNL     1      -0.100   0.112   0.761  0.00  0.00    +0.002 A 
ATOM     20  C   UNL     1      -0.061  -1.003   1.574  0.00  0.00    +0.023 A 
ATOM     21  C   UNL     1      -0.312  -0.878   2.934  0.00  0.00    +0.033 A 
ATOM     22  C   UNL     1      -0.598   0.370   3.473  0.00  0.00    -0.027 A 
ATOM     23  C   UNL     1      -0.866   0.512   4.949  0.00  0.00    +0.046 C 
ENDBRANCH   8  21
ENDBRANCH   1  14
BRANCH   4  24
ATOM     24  C   UNL     1       4.380  -8.975   6.979  0.00  0.00    +0.021 C 
BRANCH  24  25
ATOM     25  C   UNL     1       4.040  -9.921   8.101  0.00  0.00    +0.202 A 
ATOM     26  N   UNL     1       3.816 -11.201   7.987  0.00  0.00    -0.114 NA
ATOM     27  N   UNL     1       3.555 -11.697   9.145  0.00  0.00    -0.107 NA
ATOM     28  C   UNL     1       3.603 -10.743  10.045  0.00  0.00    +0.248 A 
ATOM     29  O   UNL     1       3.917  -9.601   9.400  0.00  0.00    -0.422 OA
BRANCH  28  30
ATOM     30  C   UNL     1       3.365 -10.893  11.496  0.00  0.00    +0.039 A 
ATOM     31  C   UNL     1       3.444  -9.783  12.338  0.00  0.00    +0.014 A 
ATOM     32  C   UNL     1       3.220  -9.929  13.691  0.00  0.00    +0.021 A 
ATOM     33  C   UNL     1       2.916 -11.175  14.214  0.00  0.00    +0.041 A 
ATOM     34  C   UNL     1       2.836 -12.280  13.384  0.00  0.00    +0.021 A 
ATOM     35  C   UNL     1       3.053 -12.145  12.029  0.00  0.00    +0.014 A 
ATOM     36 CL   UNL     1       2.635 -11.351  15.918  0.00  0.00    -0.084 Cl
ENDBRANCH  28  30
ENDBRANCH  24  25
ENDBRANCH   4  24
TORSDOF 5
