REMARK  Name = ZINC36576792
REMARK  20 active torsions:
REMARK  status: ('A' for Active; 'I' for Inactive)
REMARK    1  A    between atoms: C_1  and  C_2
REMARK    2  A    between atoms: C_2  and  C_3
REMARK    3  A    between atoms: C_3  and  N_4
REMARK    4  A    between atoms: N_4  and  C_5
REMARK    5  A    between atoms: C_5  and  C_7
REMARK    6  A    between atoms: C_5  and  C_16
REMARK    7  A    between atoms: C_8  and  O_15
REMARK    8  A    between atoms: C_10  and  O_14
REMARK    9  A    between atoms: C_12  and  O_13
REMARK   10  A    between atoms: N_18  and  C_19
REMARK   11  A    between atoms: C_19  and  C_20
REMARK   12  A    between atoms: C_19  and  C_21
REMARK   13  A    between atoms: C_19  and  C_22
REMARK   14  A    between atoms: C_22  and  C_23
REMARK   15  A    between atoms: C_23  and  C_24
REMARK   16  A    between atoms: C_23  and  C_25
REMARK   17  A    between atoms: C_23  and  C_26
REMARK   18  A    between atoms: C_27  and  C_29
REMARK   19  A    between atoms: C_29  and  O_30
REMARK   20  A    between atoms: O_30  and  C_31
REMARK                            x       y       z     vdW  Elec       q    Type
REMARK                         _______ _______ _______ _____ _____    ______ ____
ROOT
ATOM      1  C   UNL     1       3.425  -2.507   0.281  0.00  0.00    +0.199 C 
ENDROOT
BRANCH   1   2
ATOM      2  C   UNL     1       4.893  -2.430   0.610  0.00  0.00    +0.065 A 
ATOM      3  C   UNL     1       5.567  -3.563   1.042  0.00  0.00    +0.129 A 
ATOM      4  C   UNL     1       6.918  -3.493   1.344  0.00  0.00    +0.091 A 
ATOM      5  C   UNL     1       7.596  -2.290   1.214  0.00  0.00    +0.124 A 
ATOM      6  C   UNL     1       6.923  -1.158   0.781  0.00  0.00    +0.091 A 
ATOM      7  C   UNL     1       5.572  -1.229   0.475  0.00  0.00    +0.129 A 
BRANCH   7   8
ATOM      8  O   UNL     1       4.914  -0.120   0.046  0.00  0.00    -0.506 OA
ATOM      9  H   UNL     1       4.525   0.406   0.758  0.00  0.00    +0.292 HD
ENDBRANCH   7   8
BRANCH   5  10
ATOM     10  O   UNL     1       8.921  -2.221   1.512  0.00  0.00    -0.507 OA
ATOM     11  H   UNL     1       9.502  -2.403   0.761  0.00  0.00    +0.292 HD
ENDBRANCH   5  10
BRANCH   3  12
ATOM     12  O   UNL     1       4.902  -4.742   1.169  0.00  0.00    -0.506 OA
ATOM     13  H   UNL     1       4.973  -5.319   0.396  0.00  0.00    +0.292 HD
ENDBRANCH   3  12
ENDBRANCH   1   2
BRANCH   1  14
ATOM     14  C   UNL     1       3.250  -2.648  -1.209  0.00  0.00    +0.239 C 
ATOM     15  O   UNL     1       2.637  -1.807  -1.831  0.00  0.00    -0.273 OA
ATOM     16  N   UNL     1       3.776  -3.711  -1.851  0.00  0.00    -0.308 N 
ATOM     17  H   UNL     1       4.266  -4.384  -1.354  0.00  0.00    +0.149 HD
BRANCH  16  18
ATOM     18  C   UNL     1       3.606  -3.848  -3.300  0.00  0.00    +0.030 C 
ATOM     19  C   UNL     1       2.188  -4.338  -3.603  0.00  0.00    +0.031 C 
ATOM     20  C   UNL     1       3.832  -2.492  -3.971  0.00  0.00    +0.031 C 
BRANCH  18  21
ATOM     21  C   UNL     1       4.621  -4.859  -3.838  0.00  0.00    +0.031 C 
BRANCH  21  22
ATOM     22  C   UNL     1       5.952  -4.685  -3.105  0.00  0.00    -0.036 C 
ATOM     23  C   UNL     1       5.885  -5.391  -1.750  0.00  0.00    +0.010 C 
ATOM     24  C   UNL     1       7.079  -5.294  -3.943  0.00  0.00    +0.010 C 
ATOM     25  C   UNL     1       6.225  -3.195  -2.891  0.00  0.00    +0.010 C 
ENDBRANCH  21  22
ENDBRANCH  18  21
ENDBRANCH  16  18
ENDBRANCH   1  14
BRANCH   1  26
ATOM     26  N   UNL     1       2.758  -1.284   0.737  0.00  0.00    -0.284 N 
ATOM     27  C   UNL     1       2.599  -1.055   2.055  0.00  0.00    +0.242 C 
ATOM     28  O   UNL     1       3.008  -1.860   2.864  0.00  0.00    -0.273 OA
BRANCH  26  29
ATOM     29  C   UNL     1       2.264  -0.311  -0.241  0.00  0.00    +0.109 C 
BRANCH  29  31
ATOM     30  C   UNL     1       0.283   0.403  -1.586  0.00  0.00    +0.005 C 
ATOM     31  C   UNL     1       0.803  -0.621  -0.576  0.00  0.00    +0.016 C 
ENDBRANCH  29  31
ENDBRANCH  26  29
BRANCH  27  32
ATOM     32  C   UNL     1       1.914   0.203   2.524  0.00  0.00    +0.255 C 
BRANCH  32  33
ATOM     33  O   UNL     1       1.868   0.216   3.952  0.00  0.00    -0.374 OA
ATOM     34  C   UNL     1       1.234   1.373   4.502  0.00  0.00    +0.194 C 
ENDBRANCH  32  33
ENDBRANCH  27  32
ENDBRANCH   1  26
TORSDOF 13
