REMARK  Name = ZINC08424654
REMARK  7 active torsions:
REMARK  status: ('A' for Active; 'I' for Inactive)
REMARK    1  A    between atoms: C_4  and  C_7
REMARK    2  A    between atoms: C_9  and  C_29
REMARK    3  A    between atoms: C_11  and  S_13
REMARK    4  A    between atoms: S_13  and  C_14
REMARK    5  A    between atoms: C_14  and  C_15
REMARK    6  A    between atoms: N_17  and  C_18
REMARK    7  A    between atoms: C_19  and  C_27
REMARK                            x       y       z     vdW  Elec       q    Type
REMARK                         _______ _______ _______ _____ _____    ______ ____
ROOT
ATOM      1  C   UNL     1      -3.658  12.468  -4.317  0.00  0.00    +0.076 A 
ATOM      2  C   UNL     1      -4.015  12.988  -5.561  0.00  0.00    +0.056 A 
ATOM      3  C   UNL     1      -4.051  12.123  -6.655  0.00  0.00    +0.076 A 
ATOM      4  N   UNL     1      -3.746  10.839  -6.475  0.00  0.00    -0.222 NA
ATOM      5  C   UNL     1      -3.411  10.382  -5.278  0.00  0.00    +0.190 A 
ATOM      6  N   UNL     1      -3.370  11.171  -4.215  0.00  0.00    -0.222 NA
ENDROOT
BRANCH   1  10
ATOM      7  C   UNL     1      -3.505  14.983  -0.892  0.00  0.00    +0.000 A 
ATOM      8  C   UNL     1      -3.199  13.639  -0.774  0.00  0.00    +0.001 A 
ATOM      9  C   UNL     1      -3.247  12.818  -1.883  0.00  0.00    +0.010 A 
ATOM     10  C   UNL     1      -3.604  13.345  -3.122  0.00  0.00    +0.001 A 
ATOM     11  C   UNL     1      -3.906  14.701  -3.236  0.00  0.00    +0.010 A 
ATOM     12  C   UNL     1      -3.861  15.512  -2.120  0.00  0.00    +0.001 A 
ENDBRANCH   1  10
BRANCH   3  13
ATOM     13  C   UNL     1      -4.425  12.626  -7.999  0.00  0.00    +0.001 A 
ATOM     14  C   UNL     1      -4.749  13.970  -8.178  0.00  0.00    +0.010 A 
ATOM     15  C   UNL     1      -5.091  14.433  -9.432  0.00  0.00    +0.001 A 
ATOM     16  C   UNL     1      -5.124  13.565 -10.508  0.00  0.00    +0.000 A 
ATOM     17  C   UNL     1      -4.809  12.229 -10.336  0.00  0.00    +0.001 A 
ATOM     18  C   UNL     1      -4.460  11.755  -9.087  0.00  0.00    +0.010 A 
ENDBRANCH   3  13
BRANCH   5  19
ATOM     19  S   UNL     1      -3.016   8.675  -5.093  0.00  0.00    -0.077 S 
BRANCH  19  20
ATOM     20  C   UNL     1      -2.653   8.627  -3.320  0.00  0.00    +0.173 C 
BRANCH  20  21
ATOM     21  C   UNL     1      -2.279   7.222  -2.922  0.00  0.00    +0.228 C 
ATOM     22  O   UNL     1      -2.260   6.341  -3.755  0.00  0.00    -0.275 OA
ATOM     23  N   UNL     1      -1.965   6.946  -1.641  0.00  0.00    -0.278 N 
ATOM     24  H   UNL     1      -1.980   7.652  -0.975  0.00  0.00    +0.155 HD
BRANCH  23  25
ATOM     25  C   UNL     1      -1.621   5.653  -1.274  0.00  0.00    +0.090 A 
ATOM     26  C   UNL     1      -1.271   5.177  -0.019  0.00  0.00    +0.084 A 
ATOM     27  C   UNL     1      -0.951   3.765   0.100  0.00  0.00    -0.018 A 
ATOM     28  C   UNL     1      -1.032   3.059  -1.049  0.00  0.00    -0.004 A 
ATOM     29  S   UNL     1      -1.524   4.240  -2.273  0.00  0.00    -0.077 S 
ATOM     30  C   UNL     1      -0.761   1.597  -1.232  0.00  0.00    +0.043 C 
ATOM     31  C   UNL     1      -0.013   1.086   0.008  0.00  0.00    +0.005 C 
ATOM     32  C   UNL     1      -0.735   1.583   1.264  0.00  0.00    +0.005 C 
ATOM     33  C   UNL     1      -0.551   3.094   1.407  0.00  0.00    +0.037 C 
BRANCH  26  34
ATOM     34  C   UNL     1      -1.226   6.046   1.118  0.00  0.00    +0.102 C 
ATOM     35  N   UNL     1      -1.191   6.736   2.020  0.00  0.00    -0.191 NA
ENDBRANCH  26  34
ENDBRANCH  23  25
ENDBRANCH  20  21
ENDBRANCH  19  20
ENDBRANCH   5  19
TORSDOF 7
