REMARK  Name = ZINC05960568
REMARK  6 active torsions:
REMARK  status: ('A' for Active; 'I' for Inactive)
REMARK    1  A    between atoms: C_1  and  C_2
REMARK    2  A    between atoms: C_2  and  C_3
REMARK    3  A    between atoms: C_9  and  C_10
REMARK    4  A    between atoms: C_9  and  N_54
REMARK    5  A    between atoms: C_16  and  O_30
REMARK    6  A    between atoms: C_17  and  C_21
REMARK                            x       y       z     vdW  Elec       q    Type
REMARK                         _______ _______ _______ _____ _____    ______ ____
ROOT
ATOM      1  C   UNL     1       3.683   3.047  -2.282  0.00  0.00    +0.026 A 
ATOM      2  C   UNL     1       3.037   2.734  -3.481  0.00  0.00    +0.184 A 
ATOM      3  O   UNL     1       3.620   3.026  -4.644  0.00  0.00    -0.288 OA
ATOM      4  C   UNL     1       1.774   2.113  -3.467  0.00  0.00    +0.052 A 
ATOM      5  C   UNL     1       1.171   1.810  -2.289  0.00  0.00    +0.019 A 
ATOM      6  C   UNL     1       1.809   2.120  -1.074  0.00  0.00    +0.060 A 
ATOM      7  C   UNL     1       1.200   1.815   0.161  0.00  0.00    +0.140 A 
ATOM      8  C   UNL     1       1.890   2.156   1.348  0.00  0.00    +0.084 A 
ATOM      9  C   UNL     1       3.127   2.758   1.266  0.00  0.00    +0.209 A 
ATOM     10  O   UNL     1       3.689   3.040   0.088  0.00  0.00    -0.462 OA
ATOM     11  C   UNL     1       3.078   2.744  -1.077  0.00  0.00    +0.143 A 
ENDROOT
BRANCH   8  12
ATOM     12  C   UNL     1       1.291   1.863   2.667  0.00  0.00    +0.116 A 
ATOM     13  N   UNL     1       1.777   2.104   3.865  0.00  0.00    -0.239 NA
ATOM     14  C   UNL     1       1.115   1.781   4.994  0.00  0.00    +0.079 A 
ATOM     15  C   UNL     1       1.520   1.983   6.334  0.00  0.00    +0.029 A 
ATOM     16  C   UNL     1       0.728   1.594   7.369  0.00  0.00    +0.002 A 
ATOM     17  C   UNL     1      -0.503   0.989   7.156  0.00  0.00    +0.001 A 
ATOM     18  C   UNL     1      -0.938   0.773   5.862  0.00  0.00    +0.017 A 
ATOM     19  C   UNL     1      -0.144   1.161   4.810  0.00  0.00    +0.040 A 
ATOM     20  S   UNL     1      -0.281   1.099   3.040  0.00  0.00    -0.067 S 
ENDBRANCH   8  12
BRANCH   7  21
ATOM     21  O   UNL     1      -0.010   1.220   0.208  0.00  0.00    -0.505 OA
ATOM     22  H   UNL     1      -0.023   0.253   0.221  0.00  0.00    +0.292 HD
ENDBRANCH   7  21
BRANCH   1  23
ATOM     23  C   UNL     1       5.036   3.712  -2.303  0.00  0.00    -0.035 C 
BRANCH  23  29
ATOM     24  C   UNL     1       7.387   3.267  -2.671  0.00  0.00    -0.068 C 
ATOM     25  C   UNL     1       8.424   2.151  -2.816  0.00  0.00    -0.015 C 
ATOM     26  C   UNL     1       8.530   1.385  -1.494  0.00  0.00    -0.003 C 
ATOM     27  C   UNL     1       7.153   0.831  -1.121  0.00  0.00    -0.019 C 
ATOM     28  C   UNL     1       6.152   1.985  -1.026  0.00  0.00    -0.078 C 
ATOM     29  N   UNL     1       6.078   2.666  -2.336  0.00  0.00    +0.384 N 
ATOM     30  H   UNL     1       5.835   1.975  -3.056  0.00  0.00    -0.081 HD
BRANCH  24  32
ATOM     31  C   UNL     1       8.605   4.668  -4.343  0.00  0.00    +0.002 C 
ATOM     32  C   UNL     1       7.262   4.022  -3.996  0.00  0.00    -0.019 C 
ENDBRANCH  24  32
ENDBRANCH  23  29
ENDBRANCH   1  23
TORSDOF 5
