REMARK  Name = ZINC59170635
REMARK  11 active torsions:
REMARK  status: ('A' for Active; 'I' for Inactive)
REMARK    1  A    between atoms: C_1  and  C_2
REMARK    2  A    between atoms: C_2  and  C_3
REMARK    3  A    between atoms: C_6  and  N_9
REMARK    4  A    between atoms: C_10  and  C_12
REMARK    5  A    between atoms: C_18  and  O_34
REMARK    6  A    between atoms: N_22  and  N_23
REMARK    7  A    between atoms: N_23  and  S_24
REMARK    8  A    between atoms: S_24  and  C_27
REMARK    9  A    between atoms: C_30  and  C_33
REMARK   10  A    between atoms: O_34  and  C_35
REMARK   11  A    between atoms: C_35  and  C_36
REMARK                            x       y       z     vdW  Elec       q    Type
REMARK                         _______ _______ _______ _____ _____    ______ ____
ROOT
ATOM      1  C   UNL     1      -7.673  -2.162  -0.919  0.00  0.00    +0.099 A 
ATOM      2  C   UNL     1      -8.261  -2.433  -2.131  0.00  0.00    +0.030 A 
ATOM      3  C   UNL     1      -9.409  -3.349  -2.141  0.00  0.00    +0.022 A 
ATOM      4  C   UNL     1      -9.887  -3.880  -3.344  0.00  0.00    +0.012 A 
ATOM      5  C   UNL     1     -10.964  -4.740  -3.331  0.00  0.00    +0.004 A 
ATOM      6  C   UNL     1     -11.575  -5.082  -2.135  0.00  0.00    +0.049 A 
ATOM      7  C   UNL     1     -11.113  -4.563  -0.936  0.00  0.00    +0.163 A 
ATOM      8  C   UNL     1     -10.030  -3.693  -0.929  0.00  0.00    +0.179 A 
ATOM      9  O   UNL     1      -9.569  -3.170   0.237  0.00  0.00    -0.434 OA
ATOM     10  C   UNL     1      -8.247  -2.824   0.275  0.00  0.00    +0.225 A 
ATOM     11  N   UNL     1      -7.516  -3.064   1.327  0.00  0.00    -0.260 N 
ATOM     12  H   UNL     1      -6.555  -2.934   1.290  0.00  0.00    +0.189 HD
ENDROOT
BRANCH   1  14
ATOM     13  N   UNL     1      -5.904  -0.813  -1.928  0.00  0.00    -0.281 N 
ATOM     14  C   UNL     1      -6.517  -1.256  -0.813  0.00  0.00    +0.253 C 
ATOM     15  O   UNL     1      -6.116  -0.908   0.281  0.00  0.00    -0.270 OA
ATOM     16  H   UNL     1      -6.284  -1.006  -2.800  0.00  0.00    +0.155 HD
BRANCH  13  20
ATOM     17  C   UNL     1      -2.379   1.386  -1.633  0.00  0.00    -0.048 A 
ATOM     18  C   UNL     1      -2.629   0.633  -2.765  0.00  0.00    +0.005 A 
ATOM     19  C   UNL     1      -3.797  -0.098  -2.866  0.00  0.00    +0.023 A 
ATOM     20  C   UNL     1      -4.720  -0.075  -1.829  0.00  0.00    +0.034 A 
ATOM     21  C   UNL     1      -4.466   0.682  -0.693  0.00  0.00    +0.023 A 
ATOM     22  C   UNL     1      -3.293   1.406  -0.596  0.00  0.00    +0.005 A 
BRANCH  17  24
ATOM     23  C   UNL     1      -0.015   1.317  -0.888  0.00  0.00    +0.009 C 
ATOM     24  C   UNL     1      -1.104   2.182  -1.526  0.00  0.00    +0.032 C 
ENDBRANCH  17  24
ENDBRANCH  13  20
ENDBRANCH   1  14
BRANCH  11  25
ATOM     25  N   UNL     1      -8.118  -3.508   2.512  0.00  0.00    -0.157 N 
ATOM     26  H   UNL     1      -9.065  -3.716   2.526  0.00  0.00    +0.194 HD
BRANCH  25  27
ATOM     27  S   UNL     1      -7.212  -3.678   3.888  0.00  0.00    +0.085 S 
ATOM     28  O   UNL     1      -8.129  -3.834   4.961  0.00  0.00    -0.149 OA
ATOM     29  O   UNL     1      -6.208  -4.641   3.597  0.00  0.00    -0.149 OA
BRANCH  27  30
ATOM     30  C   UNL     1      -6.379  -2.148   4.155  0.00  0.00    +0.110 A 
ATOM     31  C   UNL     1      -5.144  -1.924   3.578  0.00  0.00    +0.029 A 
ATOM     32  C   UNL     1      -4.490  -0.724   3.788  0.00  0.00    +0.005 A 
ATOM     33  C   UNL     1      -5.073   0.252   4.575  0.00  0.00    -0.050 A 
ATOM     34  C   UNL     1      -6.309   0.028   5.152  0.00  0.00    +0.005 A 
ATOM     35  C   UNL     1      -6.965  -1.171   4.938  0.00  0.00    +0.029 A 
ATOM     36  C   UNL     1      -4.361   1.560   4.805  0.00  0.00    +0.044 C 
ENDBRANCH  27  30
ENDBRANCH  25  27
ENDBRANCH  11  25
BRANCH   7  37
ATOM     37  O   UNL     1     -11.720  -4.904   0.233  0.00  0.00    -0.489 OA
BRANCH  37  38
ATOM     38  C   UNL     1     -12.828  -5.802   0.150  0.00  0.00    +0.226 C 
ATOM     39  C   UNL     1     -13.376  -6.067   1.554  0.00  0.00    +0.048 C 
ENDBRANCH  37  38
ENDBRANCH   7  37
TORSDOF 8
