REMARK  Name = ZINC09614653
REMARK  7 active torsions:
REMARK  status: ('A' for Active; 'I' for Inactive)
REMARK    1  A    between atoms: C_1  and  C_2
REMARK    2  A    between atoms: C_2  and  C_3
REMARK    3  A    between atoms: C_3  and  C_4
REMARK    4  A    between atoms: C_5  and  C_30
REMARK    5  A    between atoms: C_17  and  C_18
REMARK    6  A    between atoms: C_17  and  C_24
REMARK    7  A    between atoms: C_17  and  N_67
REMARK                            x       y       z     vdW  Elec       q    Type
REMARK                         _______ _______ _______ _____ _____    ______ ____
ROOT
ATOM      1  C   UNL     1      -0.136  -2.869  -1.859  0.00  0.00    +0.043 A 
ATOM      2  C   UNL     1      -0.325  -3.270  -0.544  0.00  0.00    +0.083 A 
ATOM      3  N   UNL     1      -0.739  -4.517  -0.284  0.00  0.00    -0.215 NA
ATOM      4  C   UNL     1      -0.961  -5.378  -1.253  0.00  0.00    +0.199 A 
ATOM      5  N   UNL     1      -0.786  -5.037  -2.559  0.00  0.00    -0.295 N 
ATOM      6  H   UNL     1      -0.956  -5.689  -3.257  0.00  0.00    +0.172 HD
ATOM      7  C   UNL     1      -0.376  -3.794  -2.886  0.00  0.00    +0.256 A 
ATOM      8  O   UNL     1      -0.216  -3.479  -4.054  0.00  0.00    -0.267 OA
ATOM      9  N   UNL     1      -1.378  -6.645  -0.942  0.00  0.00    -0.305 N 
ATOM     10  C   UNL     1      -2.576  -7.009  -1.711  0.00  0.00    +0.089 C 
ATOM     11  C   UNL     1      -2.962  -8.456  -1.394  0.00  0.00    -0.058 C 
ATOM     12  C   UNL     1      -2.007  -8.227   0.818  0.00  0.00    -0.058 C 
ATOM     13  C   UNL     1      -1.621  -6.780   0.501  0.00  0.00    +0.089 C 
ATOM     14  N   UNL     1      -3.225  -8.572   0.056  0.00  0.00    +0.389 N 
ATOM     15  H   UNL     1      -3.975  -7.920   0.313  0.00  0.00    -0.080 HD
ENDROOT
BRANCH   2  16
ATOM     16  C   UNL     1      -0.075  -2.321   0.566  0.00  0.00    +0.001 A 
ATOM     17  C   UNL     1       0.826  -2.650   1.579  0.00  0.00    +0.010 A 
ATOM     18  C   UNL     1       1.059  -1.759   2.607  0.00  0.00    +0.001 A 
ATOM     19  C   UNL     1       0.391  -0.548   2.641  0.00  0.00    +0.000 A 
ATOM     20  C   UNL     1      -0.508  -0.219   1.643  0.00  0.00    +0.001 A 
ATOM     21  C   UNL     1      -0.745  -1.098   0.606  0.00  0.00    +0.010 A 
ENDBRANCH   2  16
BRANCH   1  22
ATOM     22  C   UNL     1       0.323  -1.469  -2.177  0.00  0.00    +0.042 C 
BRANCH  22  24
ATOM     23  C   UNL     1       2.313  -0.030  -2.637  0.00  0.00    +0.004 C 
ATOM     24  C   UNL     1       1.847  -1.451  -2.314  0.00  0.00    +0.001 C 
ENDBRANCH  22  24
ENDBRANCH   1  22
BRANCH  14  25
ATOM     25  C   UNL     1      -3.652  -9.950   0.383  0.00  0.00    -0.007 C 
BRANCH  25  26
ATOM     26  C   UNL     1      -3.922 -10.040   1.863  0.00  0.00    -0.057 A 
ATOM     27  C   UNL     1      -4.545  -8.994   2.517  0.00  0.00    +0.002 A 
ATOM     28  C   UNL     1      -4.797  -9.079   3.874  0.00  0.00    +0.000 A 
ATOM     29  C   UNL     1      -4.417 -10.206   4.578  0.00  0.00    +0.000 A 
ATOM     30  C   UNL     1      -3.789 -11.250   3.925  0.00  0.00    +0.000 A 
ATOM     31  C   UNL     1      -3.542 -11.167   2.567  0.00  0.00    +0.002 A 
ENDBRANCH  25  26
BRANCH  25  32
ATOM     32  C   UNL     1      -4.914 -10.264  -0.378  0.00  0.00    -0.057 A 
ATOM     33  C   UNL     1      -5.925  -9.325  -0.459  0.00  0.00    +0.002 A 
ATOM     34  C   UNL     1      -7.080  -9.612  -1.161  0.00  0.00    +0.000 A 
ATOM     35  C   UNL     1      -7.230 -10.842  -1.774  0.00  0.00    +0.000 A 
ATOM     36  C   UNL     1      -6.222 -11.784  -1.687  0.00  0.00    +0.000 A 
ATOM     37  C   UNL     1      -5.064 -11.495  -0.989  0.00  0.00    +0.002 A 
ENDBRANCH  25  32
ENDBRANCH  14  25
TORSDOF 6
