REMARK  Name = ZINC13194248
REMARK  9 active torsions:
REMARK  status: ('A' for Active; 'I' for Inactive)
REMARK    1  A    between atoms: C_1  and  C_2
REMARK    2  A    between atoms: C_5  and  C_33
REMARK    3  A    between atoms: C_7  and  N_8
REMARK    4  A    between atoms: C_9  and  C_23
REMARK    5  A    between atoms: C_11  and  C_16
REMARK    6  A    between atoms: C_16  and  C_18
REMARK    7  A    between atoms: C_28  and  O_29
REMARK    8  A    between atoms: O_29  and  C_30
REMARK    9  A    between atoms: C_30  and  C_31
REMARK                            x       y       z     vdW  Elec       q    Type
REMARK                         _______ _______ _______ _____ _____    ______ ____
ROOT
ATOM      1  N   UNL     1       0.504  -0.101   2.582  0.00  0.00    -0.253 N 
ATOM      2  C   UNL     1      -0.859   0.128   3.077  0.00  0.00    +0.153 C 
ATOM      3  C   UNL     1      -0.744   1.186   4.150  0.00  0.00    +0.077 C 
ATOM      4  C   UNL     1       0.566   1.511   4.239  0.00  0.00    +0.250 C 
ATOM      5  C   UNL     1       1.333   0.706   3.269  0.00  0.00    +0.292 C 
ATOM      6  O   UNL     1       2.537   0.764   3.111  0.00  0.00    -0.266 OA
ATOM      7  O   UNL     1       1.091   2.426   5.088  0.00  0.00    -0.282 OA
ENDROOT
BRANCH   1  14
ATOM      8  C   UNL     1       0.355   0.770  -0.118  0.00  0.00    +0.045 C 
ATOM      9  C   UNL     1       0.817  -0.618   0.244  0.00  0.00    -0.029 A 
ATOM     10  C   UNL     1       1.188  -1.502  -0.751  0.00  0.00    +0.006 A 
ATOM     11  C   UNL     1       1.612  -2.775  -0.428  0.00  0.00    +0.015 A 
ATOM     12  C   UNL     1       1.668  -3.173   0.911  0.00  0.00    +0.065 A 
ATOM     13  C   UNL     1       1.294  -2.279   1.916  0.00  0.00    +0.039 A 
ATOM     14  C   UNL     1       0.874  -1.001   1.579  0.00  0.00    +0.041 A 
BRANCH  12  15
ATOM     15  C   UNL     1       2.121  -4.533   1.260  0.00  0.00    +0.387 C 
ATOM     16  O   UNL     1       2.448  -5.314   0.378  0.00  0.00    -0.241 OA
ATOM     17  O   UNL     1       2.170  -4.879   2.432  0.00  0.00    -0.241 OA
ENDBRANCH  12  15
ENDBRANCH   1  14
BRANCH   2  18
ATOM     18  C   UNL     1      -1.420  -1.144   3.658  0.00  0.00    +0.020 A 
ATOM     19  C   UNL     1      -1.435  -1.331   5.027  0.00  0.00    +0.009 A 
ATOM     20  C   UNL     1      -1.949  -2.497   5.561  0.00  0.00    +0.001 A 
ATOM     21  C   UNL     1      -2.450  -3.480   4.727  0.00  0.00    +0.004 A 
ATOM     22  C   UNL     1      -2.439  -3.298   3.358  0.00  0.00    +0.046 A 
ATOM     23  C   UNL     1      -1.928  -2.125   2.820  0.00  0.00    +0.127 A 
BRANCH  23  24
ATOM     24  O   UNL     1      -1.921  -1.941   1.474  0.00  0.00    -0.477 OA
BRANCH  24  25
ATOM     25  C   UNL     1      -2.548  -2.948   0.678  0.00  0.00    +0.346 C 
BRANCH  25  26
ATOM     26  C   UNL     1      -2.366  -2.631  -0.748  0.00  0.00    +0.104 C 
ATOM     27  N   UNL     1      -2.225  -2.386  -1.849  0.00  0.00    -0.193 NA
ENDBRANCH  25  26
ENDBRANCH  24  25
ENDBRANCH  23  24
ENDBRANCH   2  18
BRANCH   3  28
ATOM     28  C   UNL     1      -1.842   1.751   4.943  0.00  0.00    +0.202 C 
ATOM     29  O   UNL     1      -1.600   2.513   5.863  0.00  0.00    -0.286 OA
BRANCH  28  30
ATOM     30  C   UNL     1      -3.230   1.401   4.628  0.00  0.00    +0.059 A 
ATOM     31  C   UNL     1      -4.394   1.734   5.309  0.00  0.00    +0.019 A 
ATOM     32  C   UNL     1      -5.560   1.255   4.766  0.00  0.00    +0.008 A 
ATOM     33  C   UNL     1      -5.503   0.509   3.633  0.00  0.00    +0.046 A 
ATOM     34  S   UNL     1      -3.865   0.442   3.266  0.00  0.00    -0.093 S 
ENDBRANCH  28  30
ENDBRANCH   3  28
TORSDOF 8
