REMARK  Name = ZINC01785848
REMARK  9 active torsions:
REMARK  status: ('A' for Active; 'I' for Inactive)
REMARK    1  A    between atoms: C_1  and  N_2
REMARK    2  A    between atoms: N_2  and  C_3
REMARK    3  A    between atoms: N_2  and  C_4
REMARK    4  A    between atoms: C_7  and  C_10
REMARK    5  A    between atoms: N_11  and  N_12
REMARK    6  A    between atoms: C_13  and  C_15
REMARK    7  A    between atoms: C_15  and  S_16
REMARK    8  A    between atoms: S_16  and  C_17
REMARK    9  A    between atoms: N_27  and  C_28
REMARK                            x       y       z     vdW  Elec       q    Type
REMARK                         _______ _______ _______ _____ _____    ______ ____
ROOT
ATOM      1  S   UNL     1      -1.076  -2.755   1.126  0.00  0.00    -0.078 S 
ENDROOT
BRANCH   1   2
ATOM      2  C   UNL     1      -2.640  -3.281   0.509  0.00  0.00    +0.177 A 
ATOM      3  N   UNL     1      -3.646  -2.443   0.559  0.00  0.00    -0.223 NA
ATOM      4  C   UNL     1      -4.873  -2.780   0.097  0.00  0.00    +0.079 A 
ATOM      5  C   UNL     1      -5.946  -1.885   0.146  0.00  0.00    +0.028 A 
ATOM      6  C   UNL     1      -7.169  -2.270  -0.327  0.00  0.00    +0.002 A 
ATOM      7  C   UNL     1      -7.364  -3.540  -0.856  0.00  0.00    +0.001 A 
ATOM      8  C   UNL     1      -6.333  -4.437  -0.916  0.00  0.00    +0.015 A 
ATOM      9  C   UNL     1      -5.075  -4.071  -0.442  0.00  0.00    +0.065 A 
ATOM     10  C   UNL     1      -3.932  -4.994  -0.481  0.00  0.00    +0.267 A 
ATOM     11  O   UNL     1      -4.045  -6.118  -0.933  0.00  0.00    -0.267 OA
ATOM     12  N   UNL     1      -2.750  -4.547   0.004  0.00  0.00    -0.255 N 
BRANCH  12  13
ATOM     13  C   UNL     1      -1.630  -5.389  -0.012  0.00  0.00    +0.052 A 
ATOM     14  C   UNL     1      -0.783  -5.399  -1.112  0.00  0.00    +0.026 A 
ATOM     15  C   UNL     1       0.323  -6.226  -1.122  0.00  0.00    +0.002 A 
ATOM     16  C   UNL     1       0.582  -7.051  -0.043  0.00  0.00    +0.000 A 
ATOM     17  C   UNL     1      -0.264  -7.047   1.052  0.00  0.00    +0.002 A 
ATOM     18  C   UNL     1      -1.368  -6.219   1.070  0.00  0.00    +0.026 A 
ENDBRANCH  12  13
ENDBRANCH   1   2
BRANCH   1  19
ATOM     19  C   UNL     1      -1.493  -1.072   1.646  0.00  0.00    +0.174 C 
BRANCH  19  21
ATOM     20  N   UNL     1      -0.343   0.859   2.680  0.00  0.00    -0.206 N 
ATOM     21  C   UNL     1      -0.270  -0.408   2.224  0.00  0.00    +0.242 C 
ATOM     22  O   UNL     1       0.780  -1.012   2.279  0.00  0.00    -0.273 OA
ATOM     23  H   UNL     1      -1.182   1.343   2.632  0.00  0.00    +0.177 HD
BRANCH  20  25
ATOM     24  C   UNL     1       0.723   2.696   3.656  0.00  0.00    +0.138 C 
ATOM     25  N   UNL     1       0.794   1.476   3.217  0.00  0.00    -0.188 NA
BRANCH  24  29
ATOM     26  C   UNL     1       4.168   4.568   5.284  0.00  0.00    +0.029 A 
ATOM     27  C   UNL     1       2.965   5.263   5.222  0.00  0.00    +0.024 A 
ATOM     28  C   UNL     1       1.845   4.659   4.694  0.00  0.00    +0.011 A 
ATOM     29  C   UNL     1       1.919   3.346   4.221  0.00  0.00    -0.005 A 
ATOM     30  C   UNL     1       3.129   2.649   4.290  0.00  0.00    +0.011 A 
ATOM     31  C   UNL     1       4.246   3.261   4.814  0.00  0.00    +0.024 A 
BRANCH  26  33
ATOM     32  C   UNL     1       5.221   6.560   6.314  0.00  0.00    +0.129 C 
ATOM     33  N   UNL     1       5.300   5.184   5.819  0.00  0.00    -0.336 N 
ATOM     34  C   UNL     1       6.568   4.453   5.885  0.00  0.00    +0.129 C 
ENDBRANCH  26  33
ENDBRANCH  24  29
ENDBRANCH  20  25
ENDBRANCH  19  21
ENDBRANCH   1  19
TORSDOF 7
