REMARK  Name = ZINC34107217
REMARK  15 active torsions:
REMARK  status: ('A' for Active; 'I' for Inactive)
REMARK    1  A    between atoms: C_1  and  C_2
REMARK    2  A    between atoms: C_2  and  O_3
REMARK    3  A    between atoms: O_3  and  C_4
REMARK    4  A    between atoms: C_7  and  C_12
REMARK    5  A    between atoms: C_9  and  O_10
REMARK    6  A    between atoms: O_10  and  C_11
REMARK    7  A    between atoms: C_19  and  C_37
REMARK    8  A    between atoms: C_20  and  C_32
REMARK    9  A    between atoms: C_21  and  C_23
REMARK   10  A    between atoms: C_26  and  C_29
REMARK   11  A    between atoms: C_29  and  C_30
REMARK   12  A    between atoms: C_29  and  C_31
REMARK   13  A    between atoms: C_32  and  O_34
REMARK   14  A    between atoms: O_34  and  C_35
REMARK   15  A    between atoms: C_35  and  C_36
REMARK                            x       y       z     vdW  Elec       q    Type
REMARK                         _______ _______ _______ _____ _____    ______ ____
ROOT
ATOM      1  C   UNL     1       1.139  -6.029   1.757  0.00  0.00    +0.028 C 
ATOM      2  C   UNL     1       0.519  -6.857   0.876  0.00  0.00    +0.081 A 
ATOM      3  C   UNL     1       0.408  -8.322   0.891  0.00  0.00    +0.268 A 
ATOM      4  O   UNL     1       0.910  -8.980   1.783  0.00  0.00    -0.266 OA
ATOM      5  N   UNL     1      -0.264  -8.912  -0.106  0.00  0.00    -0.275 N 
ATOM      6  C   UNL     1      -0.814  -8.122  -1.089  0.00  0.00    +0.178 A 
ATOM      7  N   UNL     1      -1.489  -8.586  -2.111  0.00  0.00    -0.228 NA
ATOM      8  C   UNL     1      -1.734  -9.870  -2.335  0.00  0.00    +0.053 C 
ATOM      9  C   UNL     1      -1.275 -10.827  -1.474  0.00  0.00    +0.085 C 
ATOM     10  C   UNL     1      -0.485 -10.376  -0.266  0.00  0.00    +0.162 C 
ATOM     11  C   UNL     1      -2.526 -10.278  -3.551  0.00  0.00    +0.066 C 
ATOM     12  S   UNL     1      -0.386  -6.459  -0.611  0.00  0.00    -0.046 S 
ENDROOT
BRANCH   1  16
ATOM     13  C   UNL     1       0.664  -1.827   1.407  0.00  0.00    +0.162 A 
ATOM     14  C   UNL     1      -0.219  -2.681   0.759  0.00  0.00    +0.050 A 
ATOM     15  C   UNL     1      -0.069  -4.046   0.870  0.00  0.00    +0.012 A 
ATOM     16  C   UNL     1       0.976  -4.575   1.637  0.00  0.00    -0.020 A 
ATOM     17  C   UNL     1       1.866  -3.713   2.290  0.00  0.00    +0.057 A 
ATOM     18  C   UNL     1       1.711  -2.346   2.168  0.00  0.00    +0.162 A 
BRANCH  18  19
ATOM     19  O   UNL     1       2.576  -1.505   2.796  0.00  0.00    -0.491 OA
ATOM     20  C   UNL     1       3.625  -2.105   3.559  0.00  0.00    +0.277 C 
ENDBRANCH  18  19
BRANCH  13  21
ATOM     21  O   UNL     1       0.511  -0.482   1.294  0.00  0.00    -0.489 OA
BRANCH  21  23
ATOM     22  C   UNL     1      -0.593   1.512   0.489  0.00  0.00    +0.048 C 
ATOM     23  C   UNL     1      -0.583  -0.018   0.499  0.00  0.00    +0.226 C 
ENDBRANCH  21  23
ENDBRANCH  13  21
ENDBRANCH   1  16
BRANCH  10  24
ATOM     24  C   UNL     1       0.864 -11.045  -0.321  0.00  0.00    -0.020 A 
ATOM     25  C   UNL     1       1.903 -10.451  -1.013  0.00  0.00    +0.006 A 
ATOM     26  C   UNL     1       3.141 -11.065  -1.062  0.00  0.00    +0.004 A 
ATOM     27  C   UNL     1       3.340 -12.272  -0.420  0.00  0.00    -0.045 A 
ATOM     28  C   UNL     1       2.301 -12.866   0.273  0.00  0.00    +0.004 A 
ATOM     29  C   UNL     1       1.065 -12.250   0.327  0.00  0.00    +0.006 A 
BRANCH  27  30
ATOM     30  C   UNL     1       4.689 -12.942  -0.475  0.00  0.00    +0.013 C 
ATOM     31  C   UNL     1       5.237 -13.102   0.945  0.00  0.00    +0.012 C 
ATOM     32  C   UNL     1       4.549 -14.319  -1.127  0.00  0.00    +0.012 C 
ENDBRANCH  27  30
ENDBRANCH  10  24
BRANCH   9  33
ATOM     33  C   UNL     1      -1.530 -12.189  -1.703  0.00  0.00    +0.339 C 
ATOM     34  O   UNL     1      -2.169 -12.532  -2.682  0.00  0.00    -0.245 OA
BRANCH  33  35
ATOM     35  O   UNL     1      -1.067 -13.118  -0.839  0.00  0.00    -0.462 OA
BRANCH  35  36
ATOM     36  C   UNL     1      -1.363 -14.484  -1.135  0.00  0.00    +0.229 C 
ATOM     37  C   UNL     1      -0.762 -15.382  -0.052  0.00  0.00    +0.048 C 
ENDBRANCH  35  36
ENDBRANCH  33  35
ENDBRANCH   9  33
TORSDOF 9
