REMARK  Name = ZINC09488012
REMARK  9 active torsions:
REMARK  status: ('A' for Active; 'I' for Inactive)
REMARK    1  A    between atoms: C_1  and  C_2
REMARK    2  A    between atoms: C_2  and  C_4
REMARK    3  A    between atoms: C_2  and  O_17
REMARK    4  A    between atoms: N_6  and  C_7
REMARK    5  A    between atoms: C_9  and  C_15
REMARK    6  A    between atoms: C_9  and  C_16
REMARK    7  A    between atoms: C_11  and  C_13
REMARK    8  A    between atoms: C_11  and  C_14
REMARK    9  A    between atoms: O_17  and  C_18
REMARK                            x       y       z     vdW  Elec       q    Type
REMARK                         _______ _______ _______ _____ _____    ______ ____
ROOT
ATOM      1  C   UNL     1       0.382   1.053  -0.151  0.00  0.00    +0.062 C 
ATOM      2  C   UNL     1       0.351  -0.443   0.166  0.00  0.00    +0.256 C 
ENDROOT
BRANCH   2   3
ATOM      3  C   UNL     1       0.907  -0.675   1.547  0.00  0.00    +0.254 C 
ATOM      4  O   UNL     1       0.190  -1.109   2.424  0.00  0.00    -0.272 OA
ATOM      5  N   UNL     1       2.200  -0.400   1.809  0.00  0.00    -0.310 N 
ATOM      6  H   UNL     1       2.773  -0.053   1.107  0.00  0.00    +0.149 HD
BRANCH   5   7
ATOM      7  C   UNL     1       2.741  -0.626   3.155  0.00  0.00    +0.070 C 
ATOM      8  C   UNL     1       2.492   0.616   4.012  0.00  0.00    +0.009 C 
ATOM      9  C   UNL     1       3.061   0.401   5.414  0.00  0.00    -0.072 C 
ATOM     10  N   UNL     1       4.465   0.017   5.383  0.00  0.00    +0.386 N 
ATOM     11  C   UNL     1       4.860  -1.024   4.447  0.00  0.00    -0.072 C 
ATOM     12  C   UNL     1       4.250  -0.849   3.060  0.00  0.00    +0.009 C 
ATOM     13  C   UNL     1       6.397  -0.945   4.286  0.00  0.00    -0.010 C 
ATOM     14  C   UNL     1       4.539  -2.421   4.986  0.00  0.00    -0.010 C 
ATOM     15  C   UNL     1       2.206  -0.606   6.183  0.00  0.00    -0.010 C 
ATOM     16  C   UNL     1       2.963   1.751   6.161  0.00  0.00    -0.010 C 
ATOM     17  H   UNL     1       5.021   0.853   5.188  0.00  0.00    -0.084 HD
ATOM     18  H   UNL     1       4.739  -0.275   6.324  0.00  0.00    -0.084 HD
ENDBRANCH   5   7
ENDBRANCH   2   3
BRANCH   2  19
ATOM     19  O   UNL     1      -0.996  -0.915   0.109  0.00  0.00    -0.478 OA
BRANCH  19  20
ATOM     20  C   UNL     1      -1.475  -1.268  -1.112  0.00  0.00    +0.143 A 
ATOM     21  C   UNL     1      -0.701  -1.056  -2.241  0.00  0.00    +0.094 A 
ATOM     22  C   UNL     1      -1.188  -1.416  -3.487  0.00  0.00    +0.143 A 
ATOM     23  C   UNL     1      -2.466  -1.995  -3.590  0.00  0.00    +0.023 A 
ATOM     24  C   UNL     1      -3.236  -2.202  -2.439  0.00  0.00    +0.035 A 
ATOM     25  C   UNL     1      -2.739  -1.846  -1.218  0.00  0.00    +0.083 A 
ATOM     26 CL   UNL     1      -3.690  -2.110   0.210  0.00  0.00    -0.080 Cl
ATOM     27  C   UNL     1      -2.970  -2.375  -4.912  0.00  0.00    -0.027 A 
ATOM     28  C   UNL     1      -2.179  -2.156  -5.992  0.00  0.00    +0.041 A 
ATOM     29  C   UNL     1      -0.905  -1.571  -5.814  0.00  0.00    +0.341 A 
ATOM     30  O   UNL     1      -0.199  -1.383  -6.788  0.00  0.00    -0.245 OA
ATOM     31  O   UNL     1      -0.451  -1.219  -4.602  0.00  0.00    -0.422 OA
ATOM     32  C   UNL     1      -2.882  -2.617  -7.250  0.00  0.00    +0.043 C 
ATOM     33  C   UNL     1      -4.021  -3.538  -6.761  0.00  0.00    +0.010 C 
ATOM     34  C   UNL     1      -4.278  -3.003  -5.336  0.00  0.00    +0.036 C 
ENDBRANCH  19  20
ENDBRANCH   2  19
TORSDOF 4
