REMARK  Name = ZINC16809240
REMARK  7 active torsions:
REMARK  status: ('A' for Active; 'I' for Inactive)
REMARK    1  A    between atoms: C_1  and  C_2
REMARK    2  A    between atoms: C_3  and  C_18
REMARK    3  A    between atoms: N_10  and  C_11
REMARK    4  A    between atoms: C_18  and  C_19
REMARK    5  A    between atoms: C_19  and  C_20
REMARK    6  A    between atoms: C_20  and  C_21
REMARK    7  A    between atoms: C_20  and  C_22
REMARK                            x       y       z     vdW  Elec       q    Type
REMARK                         _______ _______ _______ _____ _____    ______ ____
ROOT
ATOM      1  C   UNL     1      -0.628  -2.039  -3.352  0.00  0.00    +0.066 C 
ATOM      2  C   UNL     1       0.269  -2.746  -2.369  0.00  0.00    +0.050 A 
ATOM      3  C   UNL     1       1.162  -2.031  -1.625  0.00  0.00    +0.038 A 
ATOM      4  C   UNL     1       1.984  -2.712  -0.711  0.00  0.00    +0.256 A 
ATOM      5  O   UNL     1       2.790  -2.104  -0.025  0.00  0.00    -0.267 OA
ATOM      6  N   UNL     1       1.866  -4.053  -0.605  0.00  0.00    -0.295 N 
ATOM      7  H   UNL     1       2.423  -4.543   0.019  0.00  0.00    +0.172 HD
ATOM      8  C   UNL     1       0.961  -4.714  -1.378  0.00  0.00    +0.200 A 
ATOM      9  N   UNL     1       0.194  -4.068  -2.233  0.00  0.00    -0.221 NA
ATOM     10  N   UNL     1       0.847  -6.075  -1.266  0.00  0.00    -0.285 N 
ATOM     11  H   UNL     1       1.462  -6.569  -0.701  0.00  0.00    +0.155 HD
ENDROOT
BRANCH  10  12
ATOM     12  C   UNL     1      -0.157  -6.753  -1.966  0.00  0.00    +0.034 A 
ATOM     13  C   UNL     1      -1.388  -6.147  -2.178  0.00  0.00    +0.024 A 
ATOM     14  C   UNL     1      -2.375  -6.816  -2.874  0.00  0.00    +0.017 A 
ATOM     15  C   UNL     1      -2.142  -8.094  -3.351  0.00  0.00    +0.018 A 
ATOM     16  C   UNL     1      -0.918  -8.702  -3.137  0.00  0.00    +0.017 A 
ATOM     17  C   UNL     1       0.075  -8.035  -2.447  0.00  0.00    +0.024 A 
ATOM     18 BR   UNL     1      -3.499  -9.010  -4.297  0.00  0.00    -0.050 Br
ENDBRANCH  10  12
BRANCH   3  19
ATOM     19  C   UNL     1       1.260  -0.535  -1.776  0.00  0.00    +0.042 C 
BRANCH  19  20
ATOM     20  C   UNL     1       0.387   0.143  -0.718  0.00  0.00    +0.008 C 
BRANCH  20  21
ATOM     21  C   UNL     1       0.487   1.662  -0.871  0.00  0.00    -0.017 C 
ATOM     22  C   UNL     1      -0.111   2.079  -2.216  0.00  0.00    +0.007 C 
ATOM     23  C   UNL     1      -0.285   2.341   0.262  0.00  0.00    +0.007 C 
ENDBRANCH  20  21
ENDBRANCH  19  20
ENDBRANCH   3  19
TORSDOF 4
