REMARK  Name = ZINC55545298
REMARK  3 active torsions:
REMARK  status: ('A' for Active; 'I' for Inactive)
REMARK    1  A    between atoms: C_3  and  C_9
REMARK    2  A    between atoms: C_11  and  C_21
REMARK    3  A    between atoms: C_17  and  C_18
REMARK                            x       y       z     vdW  Elec       q    Type
REMARK                         _______ _______ _______ _____ _____    ______ ____
ROOT
ATOM      1  C   UNL     1       3.385   1.869   1.916  0.00  0.00    +0.062 C 
ATOM      2  C   UNL     1       3.697   3.164   1.157  0.00  0.00    +0.135 C 
ATOM      3  C   UNL     1       4.119   2.820  -0.247  0.00  0.00    +0.066 C 
ATOM      4  S   UNL     1       5.189   3.863  -1.081  0.00  0.00    -0.039 S 
ATOM      5  N   UNL     1       3.676   1.720  -0.853  0.00  0.00    -0.302 N 
ATOM      6  C   UNL     1       2.863   0.870  -0.289  0.00  0.00    +0.079 C 
ATOM      7  C   UNL     1       2.350   1.075   1.111  0.00  0.00    +0.158 C 
ATOM      8  N   UNL     1       2.472  -0.224  -0.979  0.00  0.00    -0.349 N 
ATOM      9  H   UNL     1       2.795  -0.369  -1.882  0.00  0.00    +0.143 HD
ATOM     10  H   UNL     1       1.867  -0.864  -0.571  0.00  0.00    +0.143 HD
ATOM     11  H   UNL     1       3.973   1.542  -1.760  0.00  0.00    +0.153 HD
ENDROOT
BRANCH   1  14
ATOM     12  C   UNL     1       1.091   3.135   4.633  0.00  0.00    +0.020 A 
ATOM     13  C   UNL     1       1.604   2.832   3.386  0.00  0.00    +0.007 A 
ATOM     14  C   UNL     1       2.827   2.199   3.276  0.00  0.00    -0.023 A 
ATOM     15  C   UNL     1       3.540   1.869   4.415  0.00  0.00    +0.046 A 
ATOM     16  C   UNL     1       3.027   2.171   5.663  0.00  0.00    +0.040 A 
ATOM     17  C   UNL     1       1.802   2.804   5.773  0.00  0.00    +0.042 A 
ATOM     18 CL   UNL     1       1.158   3.185   7.339  0.00  0.00    -0.083 Cl
ATOM     19 CL   UNL     1       5.077   1.073   4.277  0.00  0.00    -0.083 Cl
ENDBRANCH   1  14
BRANCH   2  20
ATOM     20  C   UNL     1       2.467   4.034   1.117  0.00  0.00    +0.220 C 
ATOM     21  O   UNL     1       1.605   3.829   0.289  0.00  0.00    -0.275 OA
ATOM     22  N   UNL     1       2.324   5.041   2.002  0.00  0.00    -0.329 N 
ATOM     23  H   UNL     1       3.014   5.205   2.665  0.00  0.00    +0.145 HD
ATOM     24  H   UNL     1       1.533   5.600   1.977  0.00  0.00    +0.145 HD
ENDBRANCH   2  20
BRANCH   7  25
ATOM     25  C   UNL     1       2.127  -0.232   1.751  0.00  0.00    +0.074 C 
ATOM     26  N   UNL     1       1.956  -1.241   2.245  0.00  0.00    -0.196 NA
ENDBRANCH   7  25
TORSDOF 3
