REMARK  Name = ZINC13500199
REMARK  13 active torsions:
REMARK  status: ('A' for Active; 'I' for Inactive)
REMARK    1  A    between atoms: C_1  and  C_2
REMARK    2  A    between atoms: C_2  and  C_3
REMARK    3  A    between atoms: C_3  and  C_4
REMARK    4  A    between atoms: C_4  and  C_6
REMARK    5  A    between atoms: C_4  and  N_74
REMARK    6  A    between atoms: N_10  and  C_11
REMARK    7  A    between atoms: C_11  and  C_12
REMARK    8  A    between atoms: C_11  and  C_13
REMARK    9  A    between atoms: C_11  and  C_14
REMARK   10  A    between atoms: C_14  and  C_15
REMARK   11  A    between atoms: C_16  and  C_17
REMARK   12  A    between atoms: C_16  and  N_74
REMARK   13  A    between atoms: C_32  and  N_74
REMARK                            x       y       z     vdW  Elec       q    Type
REMARK                         _______ _______ _______ _____ _____    ______ ____
ROOT
ATOM      1  N   UNL     1       1.052   4.003   0.341  0.00  0.00    +0.391 N 
ATOM      2  H   UNL     1       0.722   4.722  -0.314  0.00  0.00    -0.080 HD
ENDROOT
BRANCH   1   3
ATOM      3  C   UNL     1       0.624   2.676  -0.147  0.00  0.00    -0.067 C 
ATOM      4  C   UNL     1       1.255   2.422  -1.518  0.00  0.00    -0.015 C 
ATOM      5  C   UNL     1       0.799   1.060  -2.045  0.00  0.00    -0.002 C 
ATOM      6  C   UNL     1       1.236  -0.036  -1.071  0.00  0.00    -0.000 C 
ATOM      7  C   UNL     1       0.605   0.217   0.299  0.00  0.00    -0.002 C 
ATOM      8  C   UNL     1       1.061   1.579   0.826  0.00  0.00    -0.015 C 
ENDBRANCH   1   3
BRANCH   1   9
ATOM      9  C   UNL     1       2.527   4.063   0.414  0.00  0.00    +0.003 C 
BRANCH   9  10
ATOM     10  C   UNL     1       3.064   4.396  -0.954  0.00  0.00    +0.139 A 
ATOM     11  N   UNL     1       2.505   5.178  -1.845  0.00  0.00    -0.115 NA
ATOM     12  N   UNL     1       3.269   5.210  -2.882  0.00  0.00    -0.023 NA
ATOM     13  N   UNL     1       4.301   4.469  -2.676  0.00  0.00    -0.043 NA
ATOM     14  N   UNL     1       4.214   3.954  -1.496  0.00  0.00    -0.225 N 
BRANCH  14  15
ATOM     15  C   UNL     1       5.183   3.054  -0.866  0.00  0.00    +0.061 C 
ATOM     16  C   UNL     1       5.590   3.617   0.498  0.00  0.00    +0.036 C 
ATOM     17  C   UNL     1       4.551   1.673  -0.680  0.00  0.00    +0.036 C 
BRANCH  15  18
ATOM     18  C   UNL     1       6.421   2.933  -1.757  0.00  0.00    +0.026 C 
ATOM     19  C   UNL     1       7.433   1.993  -1.099  0.00  0.00    +0.006 C 
ENDBRANCH  15  18
ENDBRANCH  14  15
ENDBRANCH   9  10
BRANCH   9  20
ATOM     20  C   UNL     1       2.942   5.153   1.404  0.00  0.00    -0.008 C 
BRANCH  20  22
ATOM     21  C   UNL     1       3.174   5.721   3.826  0.00  0.00    +0.004 C 
ATOM     22  C   UNL     1       2.871   4.601   2.829  0.00  0.00    -0.005 C 
ENDBRANCH  20  22
ENDBRANCH   9  20
ENDBRANCH   1   9
BRANCH   1  23
ATOM     23  C   UNL     1       0.469   4.264   1.673  0.00  0.00    -0.036 C 
BRANCH  23  24
ATOM     24  C   UNL     1      -1.031   4.332   1.544  0.00  0.00    +0.001 A 
ATOM     25  C   UNL     1      -1.782   3.232   1.806  0.00  0.00    +0.017 A 
ATOM     26  C   UNL     1      -3.236   3.332   1.678  0.00  0.00    +0.002 A 
ATOM     27  C   UNL     1      -4.061   2.231   1.940  0.00  0.00    +0.059 A 
ATOM     28  C   UNL     1      -5.426   2.354   1.807  0.00  0.00    +0.167 A 
ATOM     29  C   UNL     1      -5.990   3.574   1.412  0.00  0.00    +0.168 A 
ATOM     30  C   UNL     1      -5.182   4.666   1.150  0.00  0.00    +0.075 A 
ATOM     31  C   UNL     1      -3.803   4.558   1.279  0.00  0.00    +0.053 A 
ATOM     32  N   UNL     1      -2.982   5.636   1.021  0.00  0.00    -0.322 N 
ATOM     33  H   UNL     1      -3.374   6.480   0.745  0.00  0.00    +0.169 HD
ATOM     34  C   UNL     1      -1.647   5.535   1.147  0.00  0.00    +0.251 A 
ATOM     35  O   UNL     1      -0.953   6.509   0.910  0.00  0.00    -0.268 OA
ATOM     36  O   UNL     1      -7.345   3.428   1.360  0.00  0.00    -0.453 OA
ATOM     37  C   UNL     1      -7.635   2.239   2.119  0.00  0.00    +0.466 C 
ATOM     38  O   UNL     1      -6.434   1.453   1.999  0.00  0.00    -0.453 OA
ENDBRANCH  23  24
ENDBRANCH   1  23
TORSDOF 9
