REMARK  Name = ZINC19210575
REMARK  10 active torsions:
REMARK  status: ('A' for Active; 'I' for Inactive)
REMARK    1  A    between atoms: C_1  and  C_2
REMARK    2  A    between atoms: C_5  and  N_8
REMARK    3  A    between atoms: C_13  and  C_31
REMARK    4  A    between atoms: C_16  and  C_21
REMARK    5  A    between atoms: C_16  and  C_27
REMARK    6  A    between atoms: C_27  and  O_29
REMARK    7  A    between atoms: O_29  and  C_30
REMARK    8  A    between atoms: C_34  and  O_39
REMARK    9  A    between atoms: C_35  and  O_37
REMARK   10  A    between atoms: O_37  and  C_38
REMARK                            x       y       z     vdW  Elec       q    Type
REMARK                         _______ _______ _______ _____ _____    ______ ____
ROOT
ATOM      1  N   UNL     1      -0.178  -4.277  -0.404  0.00  0.00    -0.210 N 
ATOM      2  C   UNL     1      -0.352  -5.104  -1.441  0.00  0.00    +0.232 C 
ATOM      3  O   UNL     1      -0.585  -4.761  -2.580  0.00  0.00    -0.274 OA
ATOM      4  C   UNL     1      -0.214  -6.535  -0.971  0.00  0.00    +0.112 C 
ATOM      5  C   UNL     1      -1.587  -7.234  -1.061  0.00  0.00    +0.098 C 
ATOM      6  N   UNL     1      -1.729  -7.953   0.231  0.00  0.00    -0.290 NA
ATOM      7  C   UNL     1      -1.175  -7.011   1.236  0.00  0.00    +0.155 C 
ATOM      8  C   UNL     1       0.076  -6.387   0.547  0.00  0.00    +0.125 C 
ATOM      9  C   UNL     1       0.073  -4.889   0.758  0.00  0.00    +0.233 C 
ATOM     10  O   UNL     1       0.266  -4.331   1.817  0.00  0.00    -0.274 OA
ATOM     11  H   UNL     1      -2.697  -8.160   0.424  0.00  0.00    +0.124 HD
ENDROOT
BRANCH   1  16
ATOM     12  C   UNL     1      -0.457   1.370  -0.905  0.00  0.00    +0.044 C 
ATOM     13  C   UNL     1      -0.383  -0.130  -0.772  0.00  0.00    -0.050 A 
ATOM     14  C   UNL     1       0.798  -0.730  -0.374  0.00  0.00    +0.005 A 
ATOM     15  C   UNL     1       0.869  -2.104  -0.252  0.00  0.00    +0.024 A 
ATOM     16  C   UNL     1      -0.247  -2.882  -0.527  0.00  0.00    +0.044 A 
ATOM     17  C   UNL     1      -1.431  -2.277  -0.926  0.00  0.00    +0.024 A 
ATOM     18  C   UNL     1      -1.497  -0.902  -1.042  0.00  0.00    +0.005 A 
ENDBRANCH   1  16
BRANCH   7  19
ATOM     19  C   UNL     1      -2.186  -5.944   1.569  0.00  0.00    -0.016 A 
ATOM     20  C   UNL     1      -2.616  -5.069   0.588  0.00  0.00    +0.006 A 
ATOM     21  C   UNL     1      -3.543  -4.091   0.893  0.00  0.00    +0.000 A 
ATOM     22  C   UNL     1      -4.041  -3.987   2.179  0.00  0.00    +0.000 A 
ATOM     23  C   UNL     1      -3.612  -4.862   3.159  0.00  0.00    +0.000 A 
ATOM     24  C   UNL     1      -2.688  -5.843   2.853  0.00  0.00    +0.006 A 
ENDBRANCH   7  19
BRANCH   5  25
ATOM     25  C   UNL     1      -1.606  -8.207  -2.211  0.00  0.00    -0.026 A 
ATOM     26  C   UNL     1      -1.035  -9.458  -2.066  0.00  0.00    +0.009 A 
ATOM     27  C   UNL     1      -1.050 -10.354  -3.119  0.00  0.00    +0.049 A 
ATOM     28  C   UNL     1      -1.638 -10.000  -4.322  0.00  0.00    +0.158 A 
ATOM     29  C   UNL     1      -2.213  -8.741  -4.468  0.00  0.00    +0.162 A 
ATOM     30  C   UNL     1      -2.199  -7.849  -3.408  0.00  0.00    +0.054 A 
BRANCH  29  31
ATOM     31  O   UNL     1      -2.792  -8.389  -5.647  0.00  0.00    -0.491 OA
ATOM     32  C   UNL     1      -3.362  -7.080  -5.725  0.00  0.00    +0.277 C 
ENDBRANCH  29  31
BRANCH  28  33
ATOM     33  O   UNL     1      -1.653 -10.880  -5.359  0.00  0.00    -0.503 OA
ATOM     34  H   UNL     1      -2.431 -11.455  -5.375  0.00  0.00    +0.292 HD
ENDBRANCH  28  33
ENDBRANCH   5  25
BRANCH   7  35
ATOM     35  C   UNL     1      -0.764  -7.753   2.481  0.00  0.00    +0.333 C 
ATOM     36  O   UNL     1       0.219  -7.409   3.093  0.00  0.00    -0.248 OA
BRANCH  35  37
ATOM     37  O   UNL     1      -1.491  -8.797   2.911  0.00  0.00    -0.466 OA
ATOM     38  C   UNL     1      -1.043  -9.454   4.098  0.00  0.00    +0.280 C 
ENDBRANCH  35  37
ENDBRANCH   7  35
TORSDOF 7
