REMARK  Name = ZINC38995135
REMARK  6 active torsions:
REMARK  status: ('A' for Active; 'I' for Inactive)
REMARK    1  A    between atoms: C_1  and  C_2
REMARK    2  A    between atoms: C_4  and  C_15
REMARK    3  A    between atoms: C_5  and  C_14
REMARK    4  A    between atoms: N_7  and  C_8
REMARK    5  A    between atoms: N_16  and  N_17
REMARK    6  A    between atoms: C_18  and  C_24
REMARK                            x       y       z     vdW  Elec       q    Type
REMARK                         _______ _______ _______ _____ _____    ______ ____
ROOT
ATOM      1  C   UNL     1       0.446  -0.306  -2.559  0.00  0.00    +0.137 C 
ATOM      2  N   UNL     1       1.209  -0.795  -3.496  0.00  0.00    -0.184 NA
ENDROOT
BRANCH   1   5
ATOM      3  C   UNL     1      -0.054   1.494   0.019  0.00  0.00    +0.035 C 
ATOM      4  C   UNL     1      -0.014  -0.036   0.003  0.00  0.00    +0.124 C 
ATOM      5  C   UNL     1       0.764  -0.532  -1.196  0.00  0.00    +0.012 C 
ATOM      6  C   UNL     1       1.813  -1.225  -0.725  0.00  0.00    +0.025 C 
ATOM      7  N   UNL     1       1.826  -1.251   0.645  0.00  0.00    -0.267 N 
ATOM      8  N   UNL     1       0.733  -0.542   1.167  0.00  0.00    -0.246 N 
ATOM      9  C   UNL     1       2.846  -1.892  -1.596  0.00  0.00    +0.062 C 
ATOM     10  H   UNL     1       2.499  -1.699   1.181  0.00  0.00    +0.170 HD
BRANCH   8  11
ATOM     11  C   UNL     1       0.417  -0.353   2.514  0.00  0.00    +0.048 A 
ATOM     12  C   UNL     1      -0.711   0.376   2.869  0.00  0.00    +0.025 A 
ATOM     13  C   UNL     1      -1.020   0.560   4.202  0.00  0.00    +0.002 A 
ATOM     14  C   UNL     1      -0.208   0.021   5.183  0.00  0.00    +0.000 A 
ATOM     15  C   UNL     1       0.915  -0.705   4.833  0.00  0.00    +0.002 A 
ATOM     16  C   UNL     1       1.227  -0.898   3.502  0.00  0.00    +0.025 A 
ENDBRANCH   8  11
ENDBRANCH   1   5
BRANCH   2  17
ATOM     17  N   UNL     1       0.838  -0.665  -4.840  0.00  0.00    -0.172 N 
ATOM     18  C   UNL     1       1.499  -1.254  -6.020  0.00  0.00    +0.265 C 
ATOM     19  N   UNL     1       0.683  -0.785  -7.151  0.00  0.00    -0.189 NA
ATOM     20  N   UNL     1      -0.231  -0.088  -6.702  0.00  0.00    -0.219 N 
ATOM     21  C   UNL     1      -0.208   0.024  -5.347  0.00  0.00    +0.174 C 
ATOM     22  S   UNL     1      -1.340   0.911  -4.418  0.00  0.00    -0.015 S 
ATOM     23  H   UNL     1      -0.902   0.335  -7.260  0.00  0.00    +0.176 HD
BRANCH  18  24
ATOM     24  C   UNL     1       2.914  -0.750  -6.140  0.00  0.00    +0.012 A 
ATOM     25  C   UNL     1       3.590  -0.313  -5.016  0.00  0.00    +0.008 A 
ATOM     26  C   UNL     1       4.888   0.149  -5.126  0.00  0.00    +0.000 A 
ATOM     27  C   UNL     1       5.512   0.173  -6.360  0.00  0.00    +0.001 A 
ATOM     28  C   UNL     1       4.837  -0.264  -7.484  0.00  0.00    +0.015 A 
ATOM     29  C   UNL     1       3.539  -0.731  -7.374  0.00  0.00    +0.025 A 
ATOM     30 BR   UNL     1       2.618  -1.336  -8.910  0.00  0.00    -0.050 Br
ENDBRANCH  18  24
ENDBRANCH   2  17
TORSDOF 4
