REMARK  Name = ZINC60033325
REMARK  10 active torsions:
REMARK  status: ('A' for Active; 'I' for Inactive)
REMARK    1  A    between atoms: C_1  and  C_2
REMARK    2  A    between atoms: C_2  and  C_3
REMARK    3  A    between atoms: C_3  and  C_4
REMARK    4  A    between atoms: C_4  and  N_5
REMARK    5  A    between atoms: C_6  and  C_8
REMARK    6  A    between atoms: C_12  and  C_33
REMARK    7  A    between atoms: C_16  and  C_18
REMARK    8  A    between atoms: C_18  and  C_19
REMARK    9  A    between atoms: C_22  and  S_24
REMARK   10  A    between atoms: S_24  and  N_27
REMARK                            x       y       z     vdW  Elec       q    Type
REMARK                         _______ _______ _______ _____ _____    ______ ____
ROOT
ATOM      1  C   UNL     1      -4.422  -4.360  -0.069  0.00  0.00    +0.092 C 
ATOM      2  C   UNL     1      -4.480  -5.883   0.063  0.00  0.00    +0.016 C 
ATOM      3  C   UNL     1      -3.721  -6.526  -1.101  0.00  0.00    +0.023 C 
ATOM      4  C   UNL     1      -4.388  -6.129  -2.421  0.00  0.00    +0.073 C 
ATOM      5  N   UNL     1      -4.468  -4.664  -2.489  0.00  0.00    -0.298 N 
ATOM      6  C   UNL     1      -5.098  -3.938  -1.377  0.00  0.00    +0.120 C 
ATOM      7  C   UNL     1      -3.972  -3.998  -3.551  0.00  0.00    +0.221 C 
ATOM      8  O   UNL     1      -3.548  -4.611  -4.508  0.00  0.00    -0.275 OA
ATOM      9  C   UNL     1      -3.558  -6.656  -3.594  0.00  0.00    +0.028 C 
ENDROOT
BRANCH   1  11
ATOM     10  N   UNL     1      -2.689  -2.599  -0.185  0.00  0.00    -0.315 N 
ATOM     11  C   UNL     1      -2.984  -3.909  -0.076  0.00  0.00    +0.218 C 
ATOM     12  O   UNL     1      -2.092  -4.726   0.015  0.00  0.00    -0.275 OA
ATOM     13  H   UNL     1      -3.402  -1.946  -0.259  0.00  0.00    +0.149 HD
BRANCH  10  14
ATOM     14  C   UNL     1      -1.291  -2.161  -0.193  0.00  0.00    +0.104 C 
BRANCH  14  15
ATOM     15  C   UNL     1      -1.234  -0.638  -0.326  0.00  0.00    +0.018 C 
BRANCH  15  17
ATOM     16  C   UNL     1       0.282   1.343  -0.467  0.00  0.00    +0.004 C 
ATOM     17  C   UNL     1       0.226  -0.181  -0.334  0.00  0.00    -0.002 C 
ENDBRANCH  15  17
ENDBRANCH  14  15
ENDBRANCH  10  14
ENDBRANCH   1  11
BRANCH   7  18
ATOM     18  C   UNL     1      -3.945  -2.491  -3.549  0.00  0.00    +0.138 C 
BRANCH  18  19
ATOM     19  C   UNL     1      -3.348  -1.998  -4.842  0.00  0.00    +0.000 A 
ATOM     20  C   UNL     1      -3.968  -1.695  -6.008  0.00  0.00    +0.013 A 
ATOM     21  C   UNL     1      -3.210  -1.255  -7.077  0.00  0.00    +0.036 A 
ATOM     22  C   UNL     1      -1.868  -1.138  -6.926  0.00  0.00    +0.143 A 
ATOM     23  S   UNL     1      -1.640  -1.653  -5.232  0.00  0.00    -0.073 S 
BRANCH  22  24
ATOM     24  S   UNL     1      -0.661  -0.609  -8.097  0.00  0.00    +0.067 S 
ATOM     25  O   UNL     1       0.577  -1.172  -7.686  0.00  0.00    -0.152 OA
ATOM     26  O   UNL     1      -1.215  -0.842  -9.384  0.00  0.00    -0.152 OA
BRANCH  24  27
ATOM     27  N   UNL     1      -0.511   1.033  -7.936  0.00  0.00    -0.176 NA
ATOM     28  C   UNL     1      -1.357   1.942  -8.721  0.00  0.00    +0.109 C 
ATOM     29  C   UNL     1      -2.056   2.914  -7.765  0.00  0.00    +0.017 C 
ATOM     30  C   UNL     1      -1.007   3.619  -6.903  0.00  0.00    +0.003 C 
ATOM     31  C   UNL     1      -0.249   2.582  -6.069  0.00  0.00    +0.017 C 
ATOM     32  C   UNL     1       0.467   1.607  -7.002  0.00  0.00    +0.109 C 
ENDBRANCH  24  27
ENDBRANCH  22  24
ENDBRANCH  18  19
ENDBRANCH   7  18
TORSDOF 8
