REMARK  Name = ZINC10043798
REMARK  9 active torsions:
REMARK  status: ('A' for Active; 'I' for Inactive)
REMARK    1  A    between atoms: C_1  and  C_2
REMARK    2  A    between atoms: C_2  and  N_3
REMARK    3  A    between atoms: N_3  and  C_4
REMARK    4  A    between atoms: N_3  and  C_16
REMARK    5  A    between atoms: C_4  and  C_5
REMARK    6  A    between atoms: N_7  and  C_8
REMARK    7  A    between atoms: C_17  and  N_32
REMARK    8  A    between atoms: N_18  and  C_25
REMARK    9  A    between atoms: C_25  and  C_26
REMARK                            x       y       z     vdW  Elec       q    Type
REMARK                         _______ _______ _______ _____ _____    ______ ____
ROOT
ATOM      1  C   UNL     1      -0.033   1.482   0.003  0.00  0.00    +0.134 A 
ATOM      2  C   UNL     1       1.043   2.313  -0.155  0.00  0.00    +0.127 A 
ATOM      3  N   UNL     1       2.313   1.784  -0.131  0.00  0.00    -0.276 N 
ATOM      4  C   UNL     1       2.497   0.463   0.046  0.00  0.00    +0.331 A 
ATOM      5  O   UNL     1       3.627   0.012   0.065  0.00  0.00    -0.246 OA
ATOM      6  N   UNL     1       1.450  -0.368   0.203  0.00  0.00    -0.273 N 
ATOM      7  H   UNL     1       1.610  -1.347   0.334  0.00  0.00    +0.173 HD
ATOM      8  C   UNL     1       0.189   0.106   0.186  0.00  0.00    +0.277 A 
ATOM      9  O   UNL     1      -0.754  -0.654   0.329  0.00  0.00    -0.266 OA
ENDROOT
BRANCH   2  10
ATOM     10  N   UNL     1       0.857   3.664  -0.336  0.00  0.00    -0.343 N 
ATOM     11  H   UNL     1      -0.041   4.032  -0.353  0.00  0.00    +0.144 HD
ATOM     12  H   UNL     1       1.623   4.249  -0.447  0.00  0.00    +0.144 HD
ENDBRANCH   2  10
BRANCH   1  13
ATOM     13  N   UNL     1      -1.349   2.000  -0.024  0.00  0.00    -0.315 N 
BRANCH  13  15
ATOM     14  C   UNL     1      -1.704   2.017  -2.447  0.00  0.00    +0.024 C 
ATOM     15  C   UNL     1      -2.129   1.398  -1.113  0.00  0.00    +0.102 C 
ENDBRANCH  13  15
BRANCH  13  16
ATOM     16  C   UNL     1      -2.017   1.807   1.270  0.00  0.00    +0.201 C 
BRANCH  16  17
ATOM     17  C   UNL     1      -3.227   2.702   1.349  0.00  0.00    +0.235 C 
ATOM     18  O   UNL     1      -3.446   3.505   0.468  0.00  0.00    -0.274 OA
ATOM     19  N   UNL     1      -4.066   2.609   2.400  0.00  0.00    -0.282 N 
ATOM     20  H   UNL     1      -3.853   2.020   3.141  0.00  0.00    +0.155 HD
BRANCH  19  21
ATOM     21  C   UNL     1      -5.247   3.362   2.422  0.00  0.00    +0.069 A 
ATOM     22  C   UNL     1      -5.315   4.568   1.737  0.00  0.00    +0.027 A 
ATOM     23  C   UNL     1      -6.481   5.309   1.760  0.00  0.00    +0.017 A 
ATOM     24  C   UNL     1      -7.580   4.852   2.464  0.00  0.00    +0.021 A 
ATOM     25  C   UNL     1      -7.517   3.651   3.148  0.00  0.00    +0.055 A 
ATOM     26  C   UNL     1      -6.354   2.901   3.124  0.00  0.00    +0.146 A 
ATOM     27  F   UNL     1      -6.294   1.726   3.787  0.00  0.00    -0.204 F 
ATOM     28 BR   UNL     1      -9.173   5.870   2.493  0.00  0.00    -0.050 Br
ENDBRANCH  19  21
ENDBRANCH  16  17
ENDBRANCH  13  16
ENDBRANCH   1  13
BRANCH   3  29
ATOM     29  C   UNL     1       3.472   2.664  -0.300  0.00  0.00    +0.163 C 
BRANCH  29  30
ATOM     30  C   UNL     1       3.814   2.769  -1.764  0.00  0.00    -0.028 A 
ATOM     31  C   UNL     1       4.706   1.878  -2.331  0.00  0.00    +0.005 A 
ATOM     32  C   UNL     1       5.016   1.972  -3.675  0.00  0.00    +0.000 A 
ATOM     33  C   UNL     1       4.442   2.962  -4.449  0.00  0.00    +0.000 A 
ATOM     34  C   UNL     1       3.554   3.857  -3.881  0.00  0.00    +0.000 A 
ATOM     35  C   UNL     1       3.240   3.760  -2.538  0.00  0.00    +0.005 A 
ENDBRANCH  29  30
ENDBRANCH   3  29
TORSDOF 8
