REMARK  Name = ZINC52094460
REMARK  5 active torsions:
REMARK  status: ('A' for Active; 'I' for Inactive)
REMARK    1  A    between atoms: C_1  and  C_2
REMARK    2  A    between atoms: C_6  and  C_7
REMARK    3  A    between atoms: C_7  and  C_9
REMARK    4  A    between atoms: C_7  and  N_22
REMARK    5  A    between atoms: N_22  and  C_23
REMARK                            x       y       z     vdW  Elec       q    Type
REMARK                         _______ _______ _______ _____ _____    ______ ____
ROOT
ATOM      1  C   UNL     1       1.722  -0.295   2.883  0.00  0.00    -0.010 A 
ATOM      2  C   UNL     1       2.564  -0.950   2.005  0.00  0.00    +0.034 A 
ATOM      3  C   UNL     1       3.915  -1.059   2.296  0.00  0.00    +0.067 A 
ATOM      4  C   UNL     1       4.420  -0.506   3.475  0.00  0.00    +0.068 A 
ATOM      5  C   UNL     1       3.568   0.149   4.350  0.00  0.00    +0.043 A 
ATOM      6  C   UNL     1       2.223   0.258   4.049  0.00  0.00    +0.025 A 
ATOM      7 BR   UNL     1       1.062   1.159   5.239  0.00  0.00    -0.050 Br
ATOM      8  N   UNL     1       5.787  -0.771   3.491  0.00  0.00    -0.306 N 
ATOM      9  H   UNL     1       6.408  -0.509   4.188  0.00  0.00    +0.170 HD
ATOM     10  C   UNL     1       6.100  -1.453   2.373  0.00  0.00    +0.325 A 
ATOM     11  O   UNL     1       7.215  -1.841   2.078  0.00  0.00    -0.247 OA
ATOM     12  N   UNL     1       4.992  -1.642   1.632  0.00  0.00    -0.306 N 
ATOM     13  H   UNL     1       4.951  -2.106   0.781  0.00  0.00    +0.170 HD
ENDROOT
BRANCH   1  14
ATOM     14  C   UNL     1       0.254  -0.177   2.566  0.00  0.00    +0.122 C 
BRANCH  14  20
ATOM     15  C   UNL     1      -0.058   1.870   0.297  0.00  0.00    +0.044 C 
ATOM     16  C   UNL     1      -0.115   0.381   0.070  0.00  0.00    -0.038 A 
ATOM     17  C   UNL     1      -0.309  -0.127  -1.201  0.00  0.00    +0.011 A 
ATOM     18  C   UNL     1      -0.356  -1.471  -1.371  0.00  0.00    +0.046 A 
ATOM     19  S   UNL     1      -0.122  -2.063   0.297  0.00  0.00    -0.099 S 
ATOM     20  C   UNL     1       0.028  -0.479   1.107  0.00  0.00    +0.014 A 
ENDBRANCH  14  20
BRANCH  14  21
ATOM     21  N   UNL     1      -0.502  -1.132   3.387  0.00  0.00    -0.308 NA
ATOM     22  C   UNL     1      -1.891  -0.689   3.566  0.00  0.00    +0.102 C 
ATOM     23  H   UNL     1      -0.467  -2.058   2.988  0.00  0.00    +0.123 HD
ENDBRANCH  14  21
ENDBRANCH   1  14
TORSDOF 3
