REMARK  Name = ZINC39845615
REMARK  7 active torsions:
REMARK  status: ('A' for Active; 'I' for Inactive)
REMARK    1  A    between atoms: C_1  and  C_2
REMARK    2  A    between atoms: C_5  and  C_33
REMARK    3  A    between atoms: C_8  and  N_10
REMARK    4  A    between atoms: N_10  and  C_11
REMARK    5  A    between atoms: C_12  and  S_23
REMARK    6  A    between atoms: C_14  and  C_16
REMARK    7  A    between atoms: S_23  and  C_26
REMARK                            x       y       z     vdW  Elec       q    Type
REMARK                         _______ _______ _______ _____ _____    ______ ____
ROOT
ATOM      1  C   UNL     1       2.835  -2.627   0.016  0.00  0.00    +0.233 A 
ATOM      2  C   UNL     1       3.599  -3.042  -1.023  0.00  0.00    +0.243 A 
ATOM      3  N   UNL     1       4.880  -3.008  -0.627  0.00  0.00    -0.188 NA
ATOM      4  C   UNL     1       4.927  -2.588   0.614  0.00  0.00    +0.233 A 
ATOM      5  O   UNL     1       3.671  -2.340   1.034  0.00  0.00    -0.420 OA
ENDROOT
BRANCH   4   6
ATOM      6  C   UNL     1       6.153  -2.411   1.418  0.00  0.00    +0.055 A 
ATOM      7  C   UNL     1       7.403  -2.693   0.863  0.00  0.00    +0.014 A 
ATOM      8  C   UNL     1       8.544  -2.525   1.618  0.00  0.00    +0.001 A 
ATOM      9  C   UNL     1       8.454  -2.078   2.925  0.00  0.00    +0.001 A 
ATOM     10  C   UNL     1       7.220  -1.796   3.483  0.00  0.00    +0.021 A 
ATOM     11  C   UNL     1       6.069  -1.954   2.736  0.00  0.00    +0.053 A 
ATOM     12 CL   UNL     1       4.521  -1.593   3.435  0.00  0.00    -0.083 Cl
ENDBRANCH   4   6
BRANCH   2  13
ATOM     13  S   UNL     1       3.015  -3.538  -2.610  0.00  0.00    +0.047 S 
ATOM     14  O   UNL     1       4.011  -4.389  -3.162  0.00  0.00    -0.163 OA
ATOM     15  O   UNL     1       1.668  -3.956  -2.435  0.00  0.00    -0.163 OA
BRANCH  13  16
ATOM     16  C   UNL     1       2.968  -2.096  -3.622  0.00  0.00    +0.096 A 
ATOM     17  C   UNL     1       1.825  -1.319  -3.664  0.00  0.00    +0.029 A 
ATOM     18  C   UNL     1       1.787  -0.188  -4.458  0.00  0.00    +0.022 A 
ATOM     19  C   UNL     1       2.893   0.167  -5.209  0.00  0.00    +0.041 A 
ATOM     20  C   UNL     1       4.037  -0.611  -5.166  0.00  0.00    +0.022 A 
ATOM     21  C   UNL     1       4.075  -1.739  -4.368  0.00  0.00    +0.029 A 
ATOM     22 CL   UNL     1       2.847   1.587  -6.206  0.00  0.00    -0.084 Cl
ENDBRANCH  13  16
ENDBRANCH   2  13
BRANCH   1  23
ATOM     23  N   UNL     1       1.448  -2.513   0.028  0.00  0.00    -0.309 N 
ATOM     24  H   UNL     1       0.936  -2.747  -0.762  0.00  0.00    +0.149 HD
BRANCH  23  30
ATOM     25  C   UNL     1      -0.019   1.526   0.010  0.00  0.00    +0.007 C 
ATOM     26  C   UNL     1       0.002  -0.004   0.002  0.00  0.00    -0.012 C 
ATOM     27  C   UNL     1      -1.433  -0.534   0.013  0.00  0.00    +0.006 C 
ATOM     28  C   UNL     1      -1.413  -2.063   0.004  0.00  0.00    -0.012 C 
ATOM     29  C   UNL     1      -0.673  -2.570   1.244  0.00  0.00    +0.025 C 
ATOM     30  C   UNL     1       0.763  -2.041   1.233  0.00  0.00    +0.074 C 
ATOM     31  C   UNL     1       0.742  -0.511   1.242  0.00  0.00    +0.025 C 
ATOM     32  C   UNL     1      -2.848  -2.593   0.015  0.00  0.00    +0.007 C 
ENDBRANCH  23  30
ENDBRANCH   1  23
TORSDOF 5
