REMARK  Name = ZINC59060943
REMARK  12 active torsions:
REMARK  status: ('A' for Active; 'I' for Inactive)
REMARK    1  A    between atoms: C_1  and  C_2
REMARK    2  A    between atoms: C_5  and  C_35
REMARK    3  A    between atoms: N_8  and  C_10
REMARK    4  A    between atoms: C_10  and  C_11
REMARK    5  A    between atoms: C_16  and  C_17
REMARK    6  A    between atoms: C_17  and  N_18
REMARK    7  A    between atoms: C_19  and  C_21
REMARK    8  A    between atoms: C_21  and  N_22
REMARK    9  A    between atoms: N_22  and  C_23
REMARK   10  A    between atoms: N_22  and  S_24
REMARK   11  A    between atoms: S_24  and  C_27
REMARK   12  A    between atoms: C_30  and  C_33
REMARK                            x       y       z     vdW  Elec       q    Type
REMARK                         _______ _______ _______ _____ _____    ______ ____
ROOT
ATOM      1  N   UNL     1       1.148  -2.905   4.014  0.00  0.00    -0.310 N 
ATOM      2  C   UNL     1       0.815  -4.160   3.653  0.00  0.00    +0.229 C 
ATOM      3  O   UNL     1      -0.072  -4.344   2.847  0.00  0.00    -0.274 OA
ATOM      4  H   UNL     1       1.858  -2.758   4.659  0.00  0.00    +0.149 HD
ENDROOT
BRANCH   1   5
ATOM      5  C   UNL     1       0.437  -1.763   3.434  0.00  0.00    +0.139 C 
BRANCH   5  11
ATOM      6  C   UNL     1       2.218  -0.014   3.255  0.00  0.00    -0.059 A 
ATOM      7  C   UNL     1       2.809   1.164   3.673  0.00  0.00    +0.002 A 
ATOM      8  C   UNL     1       2.270   1.870   4.732  0.00  0.00    +0.000 A 
ATOM      9  C   UNL     1       1.140   1.398   5.374  0.00  0.00    +0.000 A 
ATOM     10  C   UNL     1       0.548   0.221   4.955  0.00  0.00    +0.005 A 
ATOM     11  C   UNL     1       1.085  -0.483   3.893  0.00  0.00    -0.029 A 
BRANCH   6  12
ATOM     12  C   UNL     1       2.805  -0.783   2.100  0.00  0.00    -0.043 C 
BRANCH  12  18
ATOM     13  C   UNL     1       4.806  -3.210   4.914  0.00  0.00    +0.005 C 
ATOM     14  C   UNL     1       5.654  -2.413   3.920  0.00  0.00    -0.031 C 
ATOM     15  C   UNL     1       6.140  -3.341   2.803  0.00  0.00    +0.003 C 
ATOM     16  C   UNL     1       4.929  -3.877   2.035  0.00  0.00    -0.031 C 
ATOM     17  C   UNL     1       4.111  -2.701   1.497  0.00  0.00    -0.075 C 
ATOM     18  N   UNL     1       3.654  -1.866   2.615  0.00  0.00    +0.383 N 
ATOM     19  C   UNL     1       4.810  -1.290   3.314  0.00  0.00    -0.075 C 
ATOM     20  C   UNL     1       5.406  -4.744   0.869  0.00  0.00    +0.005 C 
ATOM     21  H   UNL     1       3.121  -2.431   3.259  0.00  0.00    -0.081 HD
ENDBRANCH  12  18
ENDBRANCH   6  12
ENDBRANCH   5  11
ENDBRANCH   1   5
BRANCH   2  22
ATOM     22  C   UNL     1       1.546  -5.335   4.250  0.00  0.00    +0.204 C 
BRANCH  22  23
ATOM     23  N   UNL     1       1.003  -6.580   3.699  0.00  0.00    -0.171 NA
ATOM     24  C   UNL     1       1.504  -7.096   2.423  0.00  0.00    +0.132 C 
BRANCH  23  25
ATOM     25  S   UNL     1      -0.177  -7.402   4.520  0.00  0.00    +0.061 S 
ATOM     26  O   UNL     1      -0.101  -8.755   4.092  0.00  0.00    -0.153 OA
ATOM     27  O   UNL     1      -0.059  -7.027   5.885  0.00  0.00    -0.153 OA
BRANCH  25  28
ATOM     28  C   UNL     1      -1.729  -6.783   3.959  0.00  0.00    +0.106 A 
ATOM     29  C   UNL     1      -2.312  -5.705   4.601  0.00  0.00    +0.030 A 
ATOM     30  C   UNL     1      -3.527  -5.215   4.167  0.00  0.00    +0.021 A 
ATOM     31  C   UNL     1      -4.168  -5.810   3.079  0.00  0.00    +0.052 A 
ATOM     32  C   UNL     1      -3.573  -6.898   2.436  0.00  0.00    +0.021 A 
ATOM     33  C   UNL     1      -2.356  -7.374   2.877  0.00  0.00    +0.030 A 
BRANCH  31  34
ATOM     34  C   UNL     1      -5.429  -5.308   2.623  0.00  0.00    +0.099 C 
ATOM     35  N   UNL     1      -6.430  -4.909   2.263  0.00  0.00    -0.191 NA
ENDBRANCH  31  34
ENDBRANCH  25  28
ENDBRANCH  23  25
ENDBRANCH  22  23
ENDBRANCH   2  22
TORSDOF 9
