REMARK  Name = ZINC44790573
REMARK  3 active torsions:
REMARK  status: ('A' for Active; 'I' for Inactive)
REMARK    1  A    between atoms: C_3  and  C_9
REMARK    2  A    between atoms: C_4  and  O_8
REMARK    3  A    between atoms: N_11  and  N_12
REMARK                            x       y       z     vdW  Elec       q    Type
REMARK                         _______ _______ _______ _____ _____    ______ ____
ROOT
ATOM      1  C   UNL     1       3.651   2.171  -0.022  0.00  0.00    +0.267 C 
ATOM      2  O   UNL     1       4.713   1.577  -0.035  0.00  0.00    -0.268 OA
ATOM      3  N   UNL     1       3.632   3.518  -0.015  0.00  0.00    -0.203 N 
ATOM      4  H   UNL     1       2.786   3.991  -0.004  0.00  0.00    +0.178 HD
ENDROOT
BRANCH   3   5
ATOM      5  N   UNL     1       4.836   4.236  -0.023  0.00  0.00    -0.189 NA
ATOM      6  C   UNL     1       4.818   5.516  -0.016  0.00  0.00    +0.040 C 
ATOM      7  C   UNL     1       3.595   6.421   0.007  0.00  0.00    +0.056 C 
ATOM      8  C   UNL     1       4.171   7.871   0.013  0.00  0.00    -0.005 C 
ATOM      9  C   UNL     1       4.748   8.063  -1.423  0.00  0.00    +0.004 C 
ATOM     10  C   UNL     1       5.975   7.124  -1.474  0.00  0.00    +0.010 C 
ATOM     11  C   UNL     1       6.025   6.464  -0.023  0.00  0.00    +0.035 C 
ATOM     12  C   UNL     1       5.482   7.646   0.847  0.00  0.00    +0.013 C 
ENDBRANCH   3   5
BRANCH   1  15
ATOM     13  C   UNL     1      -0.017   1.382   0.010  0.00  0.00    +0.021 A 
ATOM     14  C   UNL     1       1.163   2.093   0.002  0.00  0.00    +0.018 A 
ATOM     15  C   UNL     1       2.385   1.416  -0.013  0.00  0.00    +0.080 A 
ATOM     16  C   UNL     1       2.400   0.013  -0.021  0.00  0.00    +0.130 A 
ATOM     17  C   UNL     1       1.204  -0.687  -0.013  0.00  0.00    +0.066 A 
ATOM     18  C   UNL     1       0.002  -0.004   0.002  0.00  0.00    +0.044 A 
ATOM     19 CL   UNL     1      -1.492  -0.888   0.012  0.00  0.00    -0.083 Cl
BRANCH  16  20
ATOM     20  O   UNL     1       3.581  -0.655  -0.036  0.00  0.00    -0.506 OA
ATOM     21  H   UNL     1       3.932  -0.854   0.843  0.00  0.00    +0.292 HD
ENDBRANCH  16  20
ENDBRANCH   1  15
TORSDOF 3
