REMARK  Name = ZINC60411489
REMARK  6 active torsions:
REMARK  status: ('A' for Active; 'I' for Inactive)
REMARK    1  A    between atoms: C_1  and  C_2
REMARK    2  A    between atoms: C_5  and  N_8
REMARK    3  A    between atoms: C_11  and  C_13
REMARK    4  A    between atoms: N_15  and  N_16
REMARK    5  A    between atoms: N_19  and  C_20
REMARK    6  A    between atoms: C_20  and  C_21
REMARK                            x       y       z     vdW  Elec       q    Type
REMARK                         _______ _______ _______ _____ _____    ______ ____
ROOT
ATOM      1  N   UNL     1       0.057  -4.172  -0.021  0.00  0.00    -0.236 N 
ATOM      2  C   UNL     1       0.707  -4.948   0.888  0.00  0.00    +0.049 A 
ATOM      3  C   UNL     1       0.485  -6.234   0.539  0.00  0.00    +0.006 A 
ATOM      4  C   UNL     1      -0.327  -6.184  -0.618  0.00  0.00    +0.152 A 
ATOM      5  N   UNL     1      -0.542  -4.911  -0.884  0.00  0.00    -0.161 NA
ATOM      6  C   UNL     1       1.176  -7.169   1.502  0.00  0.00    +0.040 C 
ATOM      7  C   UNL     1       2.206  -6.289   2.244  0.00  0.00    +0.011 C 
ATOM      8  C   UNL     1       1.573  -4.885   2.126  0.00  0.00    +0.056 C 
ENDROOT
BRANCH   1  13
ATOM      9  C   UNL     1      -0.018   1.503   0.010  0.00  0.00    +0.044 C 
ATOM     10  C   UNL     1       0.002  -0.004   0.002  0.00  0.00    -0.050 A 
ATOM     11  C   UNL     1       0.006  -0.687  -1.200  0.00  0.00    +0.005 A 
ATOM     12  C   UNL     1       0.024  -2.068  -1.211  0.00  0.00    +0.028 A 
ATOM     13  C   UNL     1       0.039  -2.771  -0.013  0.00  0.00    +0.066 A 
ATOM     14  C   UNL     1       0.036  -2.082   1.192  0.00  0.00    +0.028 A 
ATOM     15  C   UNL     1       0.023  -0.700   1.196  0.00  0.00    +0.005 A 
ENDBRANCH   1  13
BRANCH   4  16
ATOM     16  C   UNL     1      -0.841  -7.340  -1.379  0.00  0.00    +0.281 C 
ATOM     17  O   UNL     1      -0.572  -8.471  -1.023  0.00  0.00    -0.267 OA
ATOM     18  N   UNL     1      -1.608  -7.141  -2.469  0.00  0.00    -0.228 N 
ATOM     19  H   UNL     1      -1.823  -6.239  -2.753  0.00  0.00    +0.173 HD
BRANCH  18  20
ATOM     20  N   UNL     1      -2.096  -8.238  -3.192  0.00  0.00    -0.218 N 
ATOM     21  C   UNL     1      -2.864  -8.039  -4.282  0.00  0.00    +0.316 C 
ATOM     22  O   UNL     1      -3.287  -8.991  -4.909  0.00  0.00    -0.251 OA
ATOM     23  N   UNL     1      -3.162  -6.785  -4.677  0.00  0.00    -0.290 N 
ATOM     24  H   UNL     1      -1.882  -9.140  -2.908  0.00  0.00    +0.174 HD
ATOM     25  H   UNL     1      -2.824  -6.026  -4.176  0.00  0.00    +0.151 HD
BRANCH  23  26
ATOM     26  C   UNL     1      -3.996  -6.569  -5.862  0.00  0.00    +0.219 C 
BRANCH  26  27
ATOM     27  C   UNL     1      -4.180  -5.067  -6.088  0.00  0.00    +0.405 C 
ATOM     28  F   UNL     1      -2.931  -4.468  -6.282  0.00  0.00    -0.169 F 
ATOM     29  F   UNL     1      -4.977  -4.861  -7.220  0.00  0.00    -0.169 F 
ATOM     30  F   UNL     1      -4.801  -4.500  -4.971  0.00  0.00    -0.169 F 
ENDBRANCH  26  27
ENDBRANCH  23  26
ENDBRANCH  18  20
ENDBRANCH   4  16
TORSDOF 5
