REMARK  Name = ZINC34774197
REMARK  9 active torsions:
REMARK  status: ('A' for Active; 'I' for Inactive)
REMARK    1  A    between atoms: C_1  and  C_2
REMARK    2  A    between atoms: C_2  and  C_3
REMARK    3  A    between atoms: C_3  and  S_4
REMARK    4  A    between atoms: S_4  and  C_5
REMARK    5  A    between atoms: C_9  and  C_14
REMARK    6  A    between atoms: N_23  and  C_26
REMARK    7  A    between atoms: C_26  and  C_27
REMARK    8  A    between atoms: C_29  and  C_34
REMARK    9  A    between atoms: C_32  and  C_33
REMARK                            x       y       z     vdW  Elec       q    Type
REMARK                         _______ _______ _______ _____ _____    ______ ____
ROOT
ATOM      1  C   UNL     1       1.151  -2.600   3.817  0.00  0.00    +0.191 A 
ATOM      2  N   UNL     1       1.352  -3.901   3.992  0.00  0.00    -0.206 NA
ATOM      3  C   UNL     1       2.356  -4.539   3.416  0.00  0.00    +0.134 A 
ATOM      4  C   UNL     1       3.254  -3.818   2.582  0.00  0.00    +0.055 A 
ATOM      5  C   UNL     1       4.422  -4.292   1.845  0.00  0.00    +0.002 A 
ATOM      6  C   UNL     1       5.130  -3.405   1.108  0.00  0.00    +0.056 A 
ATOM      7  S   UNL     1       4.265  -1.868   1.361  0.00  0.00    -0.076 S 
ATOM      8  C   UNL     1       2.981  -2.442   2.442  0.00  0.00    +0.115 A 
ATOM      9  N   UNL     1       1.954  -1.878   3.047  0.00  0.00    -0.215 NA
ATOM     10  N   UNL     1       2.532  -5.896   3.622  0.00  0.00    -0.318 N 
ATOM     11  C   UNL     1       3.049  -6.405   4.902  0.00  0.00    +0.088 C 
ATOM     12  C   UNL     1       2.116  -7.515   5.396  0.00  0.00    -0.059 C 
ATOM     13  N   UNL     1       1.974  -8.536   4.350  0.00  0.00    +0.384 N 
ATOM     14  C   UNL     1       1.313  -7.958   3.173  0.00  0.00    -0.059 C 
ATOM     15  C   UNL     1       2.202  -6.870   2.571  0.00  0.00    +0.088 C 
ATOM     16  H   UNL     1       2.888  -8.876   4.088  0.00  0.00    -0.081 HD
ENDROOT
BRANCH   5  17
ATOM     17  C   UNL     1       4.824  -5.717   1.903  0.00  0.00    -0.017 A 
ATOM     18  C   UNL     1       5.154  -6.302   3.126  0.00  0.00    +0.008 A 
ATOM     19  C   UNL     1       5.527  -7.630   3.174  0.00  0.00    +0.001 A 
ATOM     20  C   UNL     1       5.575  -8.380   2.013  0.00  0.00    +0.000 A 
ATOM     21  C   UNL     1       5.248  -7.806   0.797  0.00  0.00    +0.001 A 
ATOM     22  C   UNL     1       4.868  -6.480   0.737  0.00  0.00    +0.008 A 
ENDBRANCH   5  17
BRANCH   1  23
ATOM     23  S   UNL     1      -0.210  -1.820   4.619  0.00  0.00    -0.086 S 
BRANCH  23  24
ATOM     24  C   UNL     1      -0.093  -0.087   4.095  0.00  0.00    +0.077 C 
BRANCH  24  26
ATOM     25  C   UNL     1      -1.134   2.177   4.287  0.00  0.00    +0.004 C 
ATOM     26  C   UNL     1      -1.232   0.715   4.728  0.00  0.00    +0.008 C 
ENDBRANCH  24  26
ENDBRANCH  23  24
ENDBRANCH   1  23
BRANCH  13  27
ATOM     27  C   UNL     1       1.169  -9.652   4.863  0.00  0.00    -0.043 C 
BRANCH  27  28
ATOM     28  C   UNL     1       1.125 -10.754   3.836  0.00  0.00    -0.061 A 
ATOM     29  C   UNL     1       0.022 -10.890   3.014  0.00  0.00    +0.005 A 
ATOM     30  C   UNL     1      -0.018 -11.900   2.072  0.00  0.00    -0.050 A 
ATOM     31  C   UNL     1       1.046 -12.775   1.951  0.00  0.00    +0.003 A 
ATOM     32  C   UNL     1       2.149 -12.639   2.772  0.00  0.00    +0.004 A 
ATOM     33  C   UNL     1       2.191 -11.625   3.711  0.00  0.00    -0.049 A 
ATOM     34  C   UNL     1       3.397 -11.473   4.603  0.00  0.00    +0.044 C 
ATOM     35  C   UNL     1      -1.221 -12.049   1.177  0.00  0.00    +0.044 C 
ENDBRANCH  27  28
ENDBRANCH  13  27
TORSDOF 6
