REMARK  Name = ZINC08442120
REMARK  8 active torsions:
REMARK  status: ('A' for Active; 'I' for Inactive)
REMARK    1  A    between atoms: C_1  and  C_2
REMARK    2  A    between atoms: C_5  and  S_8
REMARK    3  A    between atoms: S_8  and  C_9
REMARK    4  A    between atoms: C_9  and  C_10
REMARK    5  A    between atoms: C_17  and  N_34
REMARK    6  A    between atoms: C_18  and  C_32
REMARK    7  A    between atoms: N_26  and  C_29
REMARK    8  A    between atoms: C_29  and  C_30
REMARK                            x       y       z     vdW  Elec       q    Type
REMARK                         _______ _______ _______ _____ _____    ______ ____
ROOT
ATOM      1  C   UNL     1       0.097  -6.482   1.870  0.00  0.00    +0.081 A 
ATOM      2  C   UNL     1      -1.016  -7.308   1.944  0.00  0.00    +0.062 A 
ATOM      3  C   UNL     1      -0.578  -8.600   2.061  0.00  0.00    +0.223 A 
ATOM      4  N   UNL     1       0.764  -8.573   2.059  0.00  0.00    -0.246 N 
ATOM      5  H   UNL     1       1.351  -9.343   2.128  0.00  0.00    +0.192 HD
ATOM      6  N   UNL     1       1.169  -7.235   1.933  0.00  0.00    -0.175 NA
ATOM      7  O   UNL     1      -1.426  -9.653   2.156  0.00  0.00    -0.423 OA
ATOM      8  C   UNL     1      -2.727  -9.396   2.402  0.00  0.00    +0.201 C 
ATOM      9  C   UNL     1      -3.280  -8.165   2.307  0.00  0.00    +0.110 C 
ATOM     10  C   UNL     1      -2.477  -6.957   1.909  0.00  0.00    +0.145 C 
ATOM     11  C   UNL     1      -2.883  -6.452   0.562  0.00  0.00    -0.001 A 
ATOM     12  C   UNL     1      -2.862  -7.045  -0.682  0.00  0.00    +0.007 A 
ATOM     13  C   UNL     1      -3.319  -6.283  -1.752  0.00  0.00    +0.000 A 
ATOM     14  C   UNL     1      -3.773  -4.992  -1.573  0.00  0.00    +0.002 A 
ATOM     15  C   UNL     1      -3.798  -4.390  -0.325  0.00  0.00    +0.024 A 
ATOM     16  C   UNL     1      -3.342  -5.144   0.758  0.00  0.00    +0.041 A 
ATOM     17  N   UNL     1      -3.259  -4.799   2.095  0.00  0.00    -0.266 N 
ATOM     18  C   UNL     1      -2.763  -5.805   2.847  0.00  0.00    +0.241 C 
ATOM     19  O   UNL     1      -2.580  -5.788   4.046  0.00  0.00    -0.274 OA
ENDROOT
BRANCH   8  20
ATOM     20  N   UNL     1      -3.536 -10.443   2.769  0.00  0.00    -0.328 N 
ATOM     21  H   UNL     1      -3.167 -11.337   2.845  0.00  0.00    +0.145 HD
ATOM     22  H   UNL     1      -4.476 -10.289   2.952  0.00  0.00    +0.145 HD
ENDBRANCH   8  20
BRANCH   9  23
ATOM     23  C   UNL     1      -4.675  -8.006   2.593  0.00  0.00    +0.102 C 
ATOM     24  N   UNL     1      -5.781  -7.881   2.820  0.00  0.00    -0.191 NA
ENDBRANCH   9  23
BRANCH   1  25
ATOM     25  C   UNL     1       0.077  -4.981   1.735  0.00  0.00    +0.132 C 
BRANCH  25  26
ATOM     26  S   UNL     1       0.062  -4.533  -0.023  0.00  0.00    -0.119 S 
BRANCH  26  31
ATOM     27  C   UNL     1      -0.018   1.503   0.010  0.00  0.00    +0.044 C 
ATOM     28  C   UNL     1       0.002  -0.004   0.002  0.00  0.00    -0.050 A 
ATOM     29  C   UNL     1       0.006  -0.687  -1.200  0.00  0.00    +0.004 A 
ATOM     30  C   UNL     1       0.024  -2.068  -1.212  0.00  0.00    +0.015 A 
ATOM     31  C   UNL     1       0.039  -2.771  -0.013  0.00  0.00    +0.008 A 
ATOM     32  C   UNL     1       0.036  -2.081   1.193  0.00  0.00    +0.015 A 
ATOM     33  C   UNL     1       0.023  -0.700   1.197  0.00  0.00    +0.004 A 
ENDBRANCH  26  31
ENDBRANCH  25  26
ENDBRANCH   1  25
BRANCH  17  34
ATOM     34  C   UNL     1      -3.662  -3.497   2.632  0.00  0.00    +0.140 C 
BRANCH  34  35
ATOM     35  C   UNL     1      -5.116  -3.544   3.026  0.00  0.00    -0.015 C 
ATOM     36  C   UNL     1      -5.476  -3.221   4.243  0.00  0.00    +0.005 C 
ENDBRANCH  34  35
ENDBRANCH  17  34
TORSDOF 7
