REMARK  Name = ZINC38728611
REMARK  16 active torsions:
REMARK  status: ('A' for Active; 'I' for Inactive)
REMARK    1  A    between atoms: C_1  and  C_2
REMARK    2  A    between atoms: C_2  and  C_3
REMARK    3  A    between atoms: N_16  and  C_31
REMARK    4  A    between atoms: C_17  and  C_19
REMARK    5  A    between atoms: C_22  and  O_28
REMARK    6  A    between atoms: C_23  and  O_25
REMARK    7  A    between atoms: O_25  and  C_26
REMARK    8  A    between atoms: C_26  and  C_27
REMARK    9  A    between atoms: O_28  and  C_29
REMARK   10  A    between atoms: C_29  and  C_30
REMARK   11  A    between atoms: C_31  and  C_32
REMARK   12  A    between atoms: C_32  and  N_33
REMARK   13  A    between atoms: N_33  and  C_34
REMARK   14  A    between atoms: N_33  and  C_36
REMARK   15  A    between atoms: C_34  and  C_35
REMARK   16  A    between atoms: C_36  and  C_37
REMARK                            x       y       z     vdW  Elec       q    Type
REMARK                         _______ _______ _______ _____ _____    ______ ____
ROOT
ATOM      1  C   UNL     1       0.851  -2.938  -1.125  0.00  0.00    -0.047 A 
ATOM      2  C   UNL     1       0.106  -2.881  -2.295  0.00  0.00    +0.007 A 
ATOM      3  C   UNL     1       0.716  -2.978  -3.525  0.00  0.00    +0.047 A 
ATOM      4  C   UNL     1       2.100  -3.135  -3.608  0.00  0.00    +0.139 A 
ATOM      5  C   UNL     1       2.844  -3.185  -2.418  0.00  0.00    +0.065 A 
ATOM      6  C   UNL     1       2.209  -3.084  -1.181  0.00  0.00    +0.019 A 
ATOM      7  C   UNL     1       4.319  -3.336  -2.497  0.00  0.00    +0.199 A 
ATOM      8  O   UNL     1       5.020  -3.557  -1.525  0.00  0.00    -0.287 OA
ATOM      9  C   UNL     1       4.851  -3.196  -3.857  0.00  0.00    +0.072 A 
ATOM     10  C   UNL     1       4.018  -3.149  -4.938  0.00  0.00    +0.199 A 
ATOM     11  O   UNL     1       2.678  -3.236  -4.827  0.00  0.00    -0.450 OA
ATOM     12  C   UNL     1       4.842  -2.996  -6.150  0.00  0.00    +0.283 C 
ATOM     13  O   UNL     1       4.407  -2.919  -7.282  0.00  0.00    -0.267 OA
ATOM     14  N   UNL     1       6.149  -2.955  -5.820  0.00  0.00    -0.285 N 
ATOM     15  C   UNL     1       6.253  -3.079  -4.357  0.00  0.00    +0.145 C 
ENDROOT
BRANCH  15  16
ATOM     16  C   UNL     1       7.039  -4.313  -3.995  0.00  0.00    -0.019 A 
ATOM     17  C   UNL     1       6.890  -5.468  -4.739  0.00  0.00    +0.009 A 
ATOM     18  C   UNL     1       7.609  -6.603  -4.411  0.00  0.00    +0.050 A 
ATOM     19  C   UNL     1       8.480  -6.584  -3.334  0.00  0.00    +0.162 A 
ATOM     20  C   UNL     1       8.630  -5.421  -2.585  0.00  0.00    +0.162 A 
ATOM     21  C   UNL     1       7.910  -4.286  -2.922  0.00  0.00    +0.055 A 
BRANCH  20  22
ATOM     22  O   UNL     1       9.484  -5.397  -1.526  0.00  0.00    -0.489 OA
BRANCH  22  23
ATOM     23  C   UNL     1       9.586  -4.169  -0.803  0.00  0.00    +0.226 C 
ATOM     24  C   UNL     1      10.587  -4.335   0.343  0.00  0.00    +0.048 C 
ENDBRANCH  22  23
ENDBRANCH  20  22
BRANCH  19  25
ATOM     25  O   UNL     1       9.187  -7.700  -3.009  0.00  0.00    -0.489 OA
BRANCH  25  26
ATOM     26  C   UNL     1       8.982  -8.857  -3.822  0.00  0.00    +0.226 C 
ATOM     27  C   UNL     1       9.856 -10.003  -3.308  0.00  0.00    +0.048 C 
ENDBRANCH  25  26
ENDBRANCH  19  25
ENDBRANCH  15  16
BRANCH   1  29
ATOM     28  C   UNL     1       0.080  -1.363   0.628  0.00  0.00    +0.009 C 
ATOM     29  C   UNL     1       0.161  -2.833   0.210  0.00  0.00    +0.032 C 
ENDBRANCH   1  29
BRANCH  14  30
ATOM     30  C   UNL     1       7.268  -2.813  -6.754  0.00  0.00    +0.090 C 
BRANCH  30  31
ATOM     31  C   UNL     1       7.581  -1.328  -6.952  0.00  0.00    -0.060 C 
BRANCH  31  32
ATOM     32  N   UNL     1       8.704  -1.185  -7.889  0.00  0.00    +0.380 N 
ATOM     33  H   UNL     1       9.491  -1.721  -7.555  0.00  0.00    -0.082 HD
BRANCH  32  34
ATOM     34  C   UNL     1       8.302  -1.678  -9.213  0.00  0.00    -0.082 C 
ATOM     35  C   UNL     1       9.511  -1.663 -10.151  0.00  0.00    -0.017 C 
ENDBRANCH  32  34
BRANCH  32  36
ATOM     36  C   UNL     1       9.082   0.231  -7.987  0.00  0.00    -0.082 C 
ATOM     37  C   UNL     1       9.635   0.706  -6.642  0.00  0.00    -0.017 C 
ENDBRANCH  32  36
ENDBRANCH  31  32
ENDBRANCH  30  31
ENDBRANCH  14  30
TORSDOF 11
