REMARK  Name = ZINC22936234
REMARK  12 active torsions:
REMARK  status: ('A' for Active; 'I' for Inactive)
REMARK    1  A    between atoms: C_1  and  C_2
REMARK    2  A    between atoms: C_2  and  N_3
REMARK    3  A    between atoms: C_7  and  C_9
REMARK    4  A    between atoms: C_9  and  N_10
REMARK    5  A    between atoms: N_10  and  C_11
REMARK    6  A    between atoms: C_11  and  C_12
REMARK    7  A    between atoms: C_14  and  O_28
REMARK    8  A    between atoms: C_15  and  O_19
REMARK    9  A    between atoms: O_19  and  C_20
REMARK   10  A    between atoms: C_20  and  C_21
REMARK   11  A    between atoms: O_28  and  C_29
REMARK   12  A    between atoms: C_29  and  C_30
REMARK                            x       y       z     vdW  Elec       q    Type
REMARK                         _______ _______ _______ _____ _____    ______ ____
ROOT
ATOM      1  C   UNL     1      -3.380  -1.431  -4.043  0.00  0.00    -0.060 A 
ATOM      2  C   UNL     1      -4.504  -2.044  -3.522  0.00  0.00    +0.051 A 
ATOM      3  C   UNL     1      -5.739  -1.423  -3.617  0.00  0.00    +0.163 A 
ATOM      4  C   UNL     1      -5.845  -0.182  -4.238  0.00  0.00    +0.176 A 
ATOM      5  C   UNL     1      -4.714   0.427  -4.759  0.00  0.00    +0.063 A 
ATOM      6  C   UNL     1      -3.483  -0.197  -4.655  0.00  0.00    +0.021 A 
ATOM      7 BR   UNL     1      -4.852   2.113  -5.603  0.00  0.00    -0.046 Br
ENDROOT
BRANCH   1   8
ATOM      8  C   UNL     1      -2.038  -2.109  -3.938  0.00  0.00    -0.047 C 
BRANCH   8   9
ATOM      9  N   UNL     1      -1.383  -1.707  -2.686  0.00  0.00    +0.381 N 
ATOM     10  H   UNL     1      -1.958  -1.978  -1.903  0.00  0.00    -0.086 HD
ATOM     11  H   UNL     1      -1.256  -0.706  -2.680  0.00  0.00    -0.086 HD
BRANCH   9  12
ATOM     12  C   UNL     1      -0.074  -2.367  -2.584  0.00  0.00    -0.098 C 
BRANCH  12  17
ATOM     13  N   UNL     1       0.690  -0.478  -1.207  0.00  0.00    +0.380 N 
ATOM     14  C   UNL     1       2.115  -0.088  -1.153  0.00  0.00    -0.079 C 
ATOM     15  C   UNL     1       2.844  -1.331  -0.584  0.00  0.00    -0.020 C 
ATOM     16  C   UNL     1       2.053  -2.489  -1.246  0.00  0.00    -0.019 C 
ATOM     17  C   UNL     1       0.608  -1.948  -1.280  0.00  0.00    -0.086 C 
ATOM     18  H   UNL     1       0.259  -0.072  -2.024  0.00  0.00    -0.082 HD
BRANCH  13  20
ATOM     19  C   UNL     1      -0.019   1.526   0.010  0.00  0.00    -0.017 C 
ATOM     20  C   UNL     1       0.002  -0.004   0.002  0.00  0.00    -0.082 C 
ENDBRANCH  13  20
ENDBRANCH  12  17
ENDBRANCH   9  12
ENDBRANCH   8   9
ENDBRANCH   1   8
BRANCH   4  21
ATOM     21  O   UNL     1      -7.055   0.431  -4.335  0.00  0.00    -0.483 OA
BRANCH  21  22
ATOM     22  C   UNL     1      -7.429   1.300  -3.264  0.00  0.00    +0.267 C 
BRANCH  22  23
ATOM     23  C   UNL     1      -8.790   1.884  -3.543  0.00  0.00    +0.025 A 
ATOM     24  C   UNL     1      -9.466   1.540  -4.698  0.00  0.00    +0.010 A 
ATOM     25  C   UNL     1     -10.714   2.076  -4.954  0.00  0.00    +0.001 A 
ATOM     26  C   UNL     1     -11.287   2.956  -4.056  0.00  0.00    +0.003 A 
ATOM     27  C   UNL     1     -10.613   3.301  -2.900  0.00  0.00    +0.039 A 
ATOM     28  C   UNL     1      -9.365   2.761  -2.639  0.00  0.00    +0.130 A 
ATOM     29  F   UNL     1      -8.707   3.094  -1.508  0.00  0.00    -0.205 F 
ENDBRANCH  22  23
ENDBRANCH  21  22
ENDBRANCH   4  21
BRANCH   3  30
ATOM     30  O   UNL     1      -6.846  -2.025  -3.106  0.00  0.00    -0.489 OA
BRANCH  30  31
ATOM     31  C   UNL     1      -6.662  -3.298  -2.483  0.00  0.00    +0.226 C 
ATOM     32  C   UNL     1      -8.009  -3.814  -1.972  0.00  0.00    +0.048 C 
ENDBRANCH  30  31
ENDBRANCH   3  30
TORSDOF 10
