REMARK  Name = ZINC10013842
REMARK  8 active torsions:
REMARK  status: ('A' for Active; 'I' for Inactive)
REMARK    1  A    between atoms: C_1  and  O_2
REMARK    2  A    between atoms: O_2  and  C_3
REMARK    3  A    between atoms: C_3  and  C_5
REMARK    4  A    between atoms: C_6  and  S_10
REMARK    5  A    between atoms: S_10  and  N_13
REMARK    6  A    between atoms: N_13  and  C_14
REMARK    7  A    between atoms: C_17  and  O_21
REMARK    8  A    between atoms: O_21  and  C_22
REMARK                            x       y       z     vdW  Elec       q    Type
REMARK                         _______ _______ _______ _____ _____    ______ ____
ROOT
ATOM      1  C   UNL     1       4.928   9.220   0.445  0.00  0.00    +0.050 A 
ATOM      2  C   UNL     1       5.063   7.842   0.332  0.00  0.00    +0.028 A 
ATOM      3  C   UNL     1       3.940   7.042   0.257  0.00  0.00    +0.049 A 
ATOM      4  C   UNL     1       2.676   7.614   0.293  0.00  0.00    +0.147 A 
ATOM      5  C   UNL     1       2.540   8.991   0.400  0.00  0.00    +0.085 A 
ATOM      6  C   UNL     1       3.663   9.792   0.482  0.00  0.00    +0.048 A 
ATOM      7 CL   UNL     1       0.959   9.707   0.438  0.00  0.00    -0.080 Cl
ENDROOT
BRANCH   1   8
ATOM      8  N   UNL     1       6.065  10.031   0.522  0.00  0.00    -0.216 N 
ATOM      9  H   UNL     1       6.798   9.784   1.109  0.00  0.00    +0.174 HD
BRANCH   8  10
ATOM     10  S   UNL     1       6.161  11.411  -0.387  0.00  0.00    +0.074 S 
ATOM     11  O   UNL     1       7.427  11.994  -0.109  0.00  0.00    -0.150 OA
ATOM     12  O   UNL     1       5.758  11.059  -1.704  0.00  0.00    -0.150 OA
BRANCH  10  14
ATOM     13  C   UNL     1       5.006  13.017   1.527  0.00  0.00    +0.123 A 
ATOM     14  C   UNL     1       4.947  12.528   0.230  0.00  0.00    +0.130 A 
ATOM     15  C   UNL     1       3.897  12.947  -0.548  0.00  0.00    +0.037 A 
ATOM     16  C   UNL     1       2.986  13.810  -0.025  0.00  0.00    +0.048 A 
ATOM     17  S   UNL     1       3.566  14.069   1.587  0.00  0.00    -0.088 S 
BRANCH  13  18
ATOM     18  C   UNL     1       5.993  12.744   2.572  0.00  0.00    +0.348 C 
ATOM     19  O   UNL     1       6.964  12.053   2.326  0.00  0.00    -0.244 OA
BRANCH  18  21
ATOM     20  C   UNL     1       6.900  13.040   4.763  0.00  0.00    +0.280 C 
ATOM     21  O   UNL     1       5.827  13.257   3.809  0.00  0.00    -0.464 OA
ENDBRANCH  18  21
ENDBRANCH  13  18
ENDBRANCH  10  14
ENDBRANCH   8  10
ENDBRANCH   1   8
BRANCH   4  22
ATOM     22  O   UNL     1       1.571   6.825   0.219  0.00  0.00    -0.453 OA
BRANCH  22  23
ATOM     23  C   UNL     1       1.747   5.478   0.223  0.00  0.00    +0.147 A 
ATOM     24  C   UNL     1       1.732   4.774  -0.986  0.00  0.00    +0.048 A 
ATOM     25  C   UNL     1       1.907   3.426  -1.012  0.00  0.00    +0.012 A 
ATOM     26  C   UNL     1       2.105   2.721   0.188  0.00  0.00    -0.016 A 
ATOM     27  C   UNL     1       2.288   1.328   0.191  0.00  0.00    +0.008 A 
ATOM     28  C   UNL     1       2.478   0.675   1.370  0.00  0.00    +0.001 A 
ATOM     29  C   UNL     1       2.488   1.368   2.580  0.00  0.00    +0.001 A 
ATOM     30  C   UNL     1       2.320   2.718   2.615  0.00  0.00    +0.010 A 
ATOM     31  C   UNL     1       2.122   3.426   1.417  0.00  0.00    +0.004 A 
ATOM     32  C   UNL     1       1.939   4.819   1.417  0.00  0.00    +0.091 A 
ATOM     33 CL   UNL     1       1.955   5.704   2.910  0.00  0.00    -0.079 Cl
ENDBRANCH  22  23
ENDBRANCH   4  22
TORSDOF 7
