REMARK  Name = ZINC13034220
REMARK  11 active torsions:
REMARK  status: ('A' for Active; 'I' for Inactive)
REMARK    1  A    between atoms: C_1  and  C_2
REMARK    2  A    between atoms: C_2  and  N_3
REMARK    3  A    between atoms: N_3  and  C_4
REMARK    4  A    between atoms: C_12  and  C_14
REMARK    5  A    between atoms: C_14  and  S_15
REMARK    6  A    between atoms: S_15  and  C_16
REMARK    7  A    between atoms: C_19  and  C_25
REMARK    8  A    between atoms: N_20  and  C_21
REMARK    9  A    between atoms: C_21  and  C_22
REMARK   10  A    between atoms: C_22  and  C_23
REMARK   11  A    between atoms: C_28  and  C_31
REMARK                            x       y       z     vdW  Elec       q    Type
REMARK                         _______ _______ _______ _____ _____    ______ ____
ROOT
ATOM      1  C   UNL     1      -2.984  -3.083   2.337  0.00  0.00    +0.192 A 
ATOM      2  N   UNL     1      -3.661  -2.743   1.263  0.00  0.00    -0.122 NA
ATOM      3  N   UNL     1      -4.539  -3.641   0.992  0.00  0.00    -0.128 NA
ATOM      4  C   UNL     1      -4.483  -4.605   1.882  0.00  0.00    +0.165 A 
ATOM      5  N   UNL     1      -3.485  -4.277   2.770  0.00  0.00    -0.302 N 
ENDROOT
BRANCH   4   6
ATOM      6  C   UNL     1      -5.331  -5.815   1.921  0.00  0.00    +0.019 A 
ATOM      7  C   UNL     1      -6.022  -6.224   0.780  0.00  0.00    +0.012 A 
ATOM      8  C   UNL     1      -6.809  -7.356   0.822  0.00  0.00    +0.004 A 
ATOM      9  C   UNL     1      -6.923  -8.080   1.996  0.00  0.00    -0.050 A 
ATOM     10  C   UNL     1      -6.244  -7.677   3.133  0.00  0.00    +0.004 A 
ATOM     11  C   UNL     1      -5.450  -6.550   3.102  0.00  0.00    +0.012 A 
ATOM     12  C   UNL     1      -7.788  -9.313   2.037  0.00  0.00    +0.044 C 
ENDBRANCH   4   6
BRANCH   1  13
ATOM     13  S   UNL     1      -1.678  -2.165   3.083  0.00  0.00    -0.077 S 
BRANCH  13  14
ATOM     14  C   UNL     1      -1.606  -0.749   1.958  0.00  0.00    +0.173 C 
BRANCH  14  16
ATOM     15  N   UNL     1      -0.291   1.333   1.721  0.00  0.00    -0.296 N 
ATOM     16  C   UNL     1      -0.527   0.200   2.412  0.00  0.00    +0.226 C 
ATOM     17  O   UNL     1       0.130  -0.056   3.399  0.00  0.00    -0.275 OA
BRANCH  15  18
ATOM     18  C   UNL     1       0.759   2.255   2.162  0.00  0.00    +0.098 C 
ATOM     19  C   UNL     1       0.436   2.754   3.580  0.00  0.00    +0.046 C 
ATOM     20  C   UNL     1       1.699   3.468   4.142  0.00  0.00    +0.168 C 
ATOM     21  S   UNL     1       3.022   2.335   3.541  0.00  0.00    -0.029 S 
ATOM     22  O   UNL     1       3.295   1.369   4.546  0.00  0.00    -0.174 OA
ATOM     23  O   UNL     1       4.087   3.109   3.007  0.00  0.00    -0.174 OA
ATOM     24  C   UNL     1       2.122   1.522   2.158  0.00  0.00    +0.188 C 
ENDBRANCH  15  18
BRANCH  15  26
ATOM     25  C   UNL     1      -0.400   1.050  -0.706  0.00  0.00    +0.024 C 
ATOM     26  C   UNL     1      -1.083   1.642   0.528  0.00  0.00    +0.105 C 
ENDBRANCH  15  26
ENDBRANCH  14  16
ENDBRANCH  13  14
ENDBRANCH   1  13
BRANCH   5  27
ATOM     27  C   UNL     1      -3.050  -5.048   3.938  0.00  0.00    +0.137 C 
BRANCH  27  28
ATOM     28  C   UNL     1      -3.793  -4.553   5.181  0.00  0.00    +0.147 C 
BRANCH  28  29
ATOM     29  C   UNL     1      -3.346  -5.345   6.382  0.00  0.00    +0.358 C 
ATOM     30  O   UNL     1      -2.519  -6.217   6.257  0.00  0.00    -0.246 OA
ATOM     31  O   UNL     1      -3.868  -5.083   7.590  0.00  0.00    -0.246 OA
ENDBRANCH  28  29
ENDBRANCH  27  28
ENDBRANCH   5  27
TORSDOF 9
