REMARK  Name = ZINC67041730
REMARK  7 active torsions:
REMARK  status: ('A' for Active; 'I' for Inactive)
REMARK    1  A    between atoms: C_1  and  N_2
REMARK    2  A    between atoms: N_2  and  C_3
REMARK    3  A    between atoms: N_2  and  C_4
REMARK    4  A    between atoms: C_4  and  C_5
REMARK    5  A    between atoms: C_8  and  C_11
REMARK    6  A    between atoms: C_11  and  N_12
REMARK    7  A    between atoms: C_19  and  C_22
REMARK                            x       y       z     vdW  Elec       q    Type
REMARK                         _______ _______ _______ _____ _____    ______ ____
ROOT
ATOM      1  N   UNL     1      -3.100   1.766  -5.734  0.00  0.00    -0.295 N 
ATOM      2  C   UNL     1      -3.504   2.227  -6.935  0.00  0.00    +0.303 C 
ATOM      3  O   UNL     1      -4.605   1.936  -7.359  0.00  0.00    -0.253 OA
ATOM      4  N   UNL     1      -2.686   3.010  -7.666  0.00  0.00    -0.281 N 
ATOM      5  C   UNL     1      -1.307   3.282  -7.228  0.00  0.00    +0.137 C 
ATOM      6  C   UNL     1      -1.077   4.797  -7.269  0.00  0.00    +0.179 C 
ATOM      7  O   UNL     1      -1.444   5.295  -8.557  0.00  0.00    -0.369 OA
ATOM      8  C   UNL     1      -2.825   5.117  -8.882  0.00  0.00    +0.168 C 
ATOM      9  C   UNL     1      -3.143   3.614  -8.927  0.00  0.00    +0.145 C 
ATOM     10  H   UNL     1      -2.196   1.937  -5.428  0.00  0.00    +0.151 HD
ENDROOT
BRANCH   8  11
ATOM     11  C   UNL     1      -3.108   5.732 -10.228  0.00  0.00    +0.018 A 
ATOM     12  C   UNL     1      -2.091   5.869 -11.154  0.00  0.00    +0.009 A 
ATOM     13  C   UNL     1      -2.351   6.432 -12.389  0.00  0.00    +0.001 A 
ATOM     14  C   UNL     1      -3.629   6.860 -12.700  0.00  0.00    +0.003 A 
ATOM     15  C   UNL     1      -4.647   6.725 -11.776  0.00  0.00    +0.039 A 
ATOM     16  C   UNL     1      -4.389   6.155 -10.540  0.00  0.00    +0.129 A 
ATOM     17  F   UNL     1      -5.385   6.018  -9.638  0.00  0.00    -0.205 F 
ENDBRANCH   8  11
BRANCH   1  18
ATOM     18  C   UNL     1      -4.028   1.009  -4.891  0.00  0.00    +0.141 C 
BRANCH  18  22
ATOM     19  C   UNL     1      -2.068  -0.116  -1.266  0.00  0.00    -0.064 A 
ATOM     20  C   UNL     1      -2.749   1.085  -1.340  0.00  0.00    +0.002 A 
ATOM     21  C   UNL     1      -3.383   1.449  -2.513  0.00  0.00    +0.005 A 
ATOM     22  C   UNL     1      -3.336   0.612  -3.613  0.00  0.00    -0.030 A 
ATOM     23  C   UNL     1      -2.654  -0.588  -3.539  0.00  0.00    +0.005 A 
ATOM     24  C   UNL     1      -2.016  -0.950  -2.368  0.00  0.00    +0.002 A 
BRANCH  19  25
ATOM     25  C   UNL     1      -1.376  -0.512   0.013  0.00  0.00    -0.044 C 
BRANCH  25  27
ATOM     26  C   UNL     1      -0.015   1.463   0.009  0.00  0.00    -0.096 C 
ATOM     27  N   UNL     1       0.003  -0.006   0.001  0.00  0.00    +0.379 N 
ATOM     28  C   UNL     1       0.713  -0.493   1.191  0.00  0.00    -0.096 C 
ATOM     29  H   UNL     1       0.474  -0.332  -0.829  0.00  0.00    -0.082 HD
ENDBRANCH  25  27
ENDBRANCH  19  25
ENDBRANCH  18  22
ENDBRANCH   1  18
TORSDOF 5
