REMARK  Name = ZINC42330941
REMARK  4 active torsions:
REMARK  status: ('A' for Active; 'I' for Inactive)
REMARK    1  A    between atoms: C_3  and  C_6
REMARK    2  A    between atoms: C_6  and  C_8
REMARK    3  A    between atoms: C_6  and  N_11
REMARK    4  A    between atoms: N_11  and  C_12
REMARK                            x       y       z     vdW  Elec       q    Type
REMARK                         _______ _______ _______ _____ _____    ______ ____
ROOT
ATOM      1  C   UNL     1       4.441   1.300   2.298  0.00  0.00    +0.044 A 
ATOM      2  C   UNL     1       3.534   2.239   2.766  0.00  0.00    +0.051 A 
ATOM      3  C   UNL     1       3.443   2.491   4.126  0.00  0.00    +0.069 A 
ATOM      4  C   UNL     1       4.264   1.799   5.019  0.00  0.00    +0.068 A 
ATOM      5  C   UNL     1       5.168   0.861   4.545  0.00  0.00    +0.045 A 
ATOM      6  C   UNL     1       5.253   0.608   3.190  0.00  0.00    +0.041 A 
ATOM      7 BR   UNL     1       6.482  -0.676   2.545  0.00  0.00    -0.048 Br
ATOM      8  N   UNL     1       3.947   2.261   6.297  0.00  0.00    -0.306 N 
ATOM      9  H   UNL     1       4.354   1.964   7.126  0.00  0.00    +0.170 HD
ATOM     10  C   UNL     1       2.979   3.190   6.184  0.00  0.00    +0.325 A 
ATOM     11  O   UNL     1       2.475   3.793   7.112  0.00  0.00    -0.247 OA
ATOM     12  N   UNL     1       2.655   3.351   4.887  0.00  0.00    -0.306 N 
ATOM     13  H   UNL     1       1.985   3.962   4.542  0.00  0.00    +0.170 HD
ENDROOT
BRANCH   1  14
ATOM     14  N   UNL     1       4.534   1.043   0.925  0.00  0.00    -0.335 N 
ATOM     15  H   UNL     1       5.103   0.326   0.603  0.00  0.00    +0.147 HD
BRANCH  14  16
ATOM     16  C   UNL     1       3.773   1.857  -0.026  0.00  0.00    +0.110 C 
BRANCH  16  19
ATOM     17  C   UNL     1       0.265   0.733  -0.996  0.00  0.00    +0.008 A 
ATOM     18  C   UNL     1       1.271   1.605  -0.623  0.00  0.00    +0.013 A 
ATOM     19  C   UNL     1       2.522   1.120  -0.429  0.00  0.00    +0.010 A 
ATOM     20  S   UNL     1       2.303  -0.617  -0.776  0.00  0.00    -0.100 S 
ATOM     21  C   UNL     1       0.559  -0.581  -1.157  0.00  0.00    +0.045 A 
ENDBRANCH  16  19
BRANCH  16  22
ATOM     22  C   UNL     1       4.628   2.127  -1.266  0.00  0.00    +0.014 C 
ATOM     23  C   UNL     1       6.006   1.464  -1.331  0.00  0.00    +0.006 C 
ATOM     24  C   UNL     1       5.892   2.970  -1.082  0.00  0.00    +0.006 C 
ENDBRANCH  16  22
ENDBRANCH  14  16
ENDBRANCH   1  14
TORSDOF 4
