REMARK  Name = ZINC09196555
REMARK  10 active torsions:
REMARK  status: ('A' for Active; 'I' for Inactive)
REMARK    1  A    between atoms: C_1  and  C_2
REMARK    2  A    between atoms: C_4  and  C_18
REMARK    3  A    between atoms: C_5  and  C_17
REMARK    4  A    between atoms: N_6  and  C_7
REMARK    5  A    between atoms: C_10  and  C_13
REMARK    6  A    between atoms: C_13  and  O_15
REMARK    7  A    between atoms: O_15  and  C_16
REMARK    8  A    between atoms: N_19  and  N_20
REMARK    9  A    between atoms: N_20  and  C_21
REMARK   10  A    between atoms: C_21  and  C_22
REMARK                            x       y       z     vdW  Elec       q    Type
REMARK                         _______ _______ _______ _____ _____    ______ ____
ROOT
ATOM      1  C   UNL     1      -5.699   3.155   2.349  0.00  0.00    +0.064 C 
ATOM      2  C   UNL     1      -5.849   3.930   1.066  0.00  0.00    +0.022 A 
ATOM      3  C   UNL     1      -6.902   4.702   0.736  0.00  0.00    +0.032 A 
ATOM      4  C   UNL     1      -6.617   5.255  -0.591  0.00  0.00    +0.016 A 
ATOM      5  C   UNL     1      -5.395   4.769  -0.955  0.00  0.00    +0.030 A 
ATOM      6  N   UNL     1      -4.939   3.966   0.048  0.00  0.00    -0.317 N 
ATOM      7  C   UNL     1      -4.674   5.068  -2.244  0.00  0.00    +0.064 C 
ENDROOT
BRANCH   6   8
ATOM      8  C   UNL     1      -3.720   3.284   0.038  0.00  0.00    +0.047 A 
ATOM      9  C   UNL     1      -3.703   1.893   0.030  0.00  0.00    +0.027 A 
ATOM     10  C   UNL     1      -2.504   1.217   0.021  0.00  0.00    +0.017 A 
ATOM     11  C   UNL     1      -1.302   1.931   0.019  0.00  0.00    +0.059 A 
ATOM     12  C   UNL     1      -1.323   3.329   0.032  0.00  0.00    +0.017 A 
ATOM     13  C   UNL     1      -2.526   3.997   0.036  0.00  0.00    +0.027 A 
BRANCH  11  14
ATOM     14  C   UNL     1      -0.014   1.211   0.009  0.00  0.00    +0.339 C 
ATOM     15  O   UNL     1       0.002  -0.004   0.002  0.00  0.00    -0.245 OA
BRANCH  14  16
ATOM     16  O   UNL     1       1.143   1.900   0.001  0.00  0.00    -0.464 OA
ATOM     17  C   UNL     1       2.372   1.126  -0.015  0.00  0.00    +0.280 C 
ENDBRANCH  14  16
ENDBRANCH  11  14
ENDBRANCH   6   8
BRANCH   4  18
ATOM     18  C   UNL     1      -7.477   6.162  -1.375  0.00  0.00    +0.139 C 
ATOM     19  N   UNL     1      -7.091   6.574  -2.543  0.00  0.00    -0.194 NA
BRANCH  19  20
ATOM     20  N   UNL     1      -7.908   7.435  -3.287  0.00  0.00    -0.265 N 
ATOM     21  H   UNL     1      -8.762   7.723  -2.929  0.00  0.00    +0.168 HD
BRANCH  20  22
ATOM     22  C   UNL     1      -7.473   7.900  -4.606  0.00  0.00    +0.160 C 
BRANCH  22  23
ATOM     23  C   UNL     1      -8.524   8.808  -5.191  0.00  0.00    +0.008 A 
ATOM     24  C   UNL     1      -9.536   8.280  -5.973  0.00  0.00    +0.047 A 
ATOM     25  C   UNL     1     -10.503   9.113  -6.507  0.00  0.00    +0.020 A 
ATOM     26  C   UNL     1     -10.453  10.474  -6.266  0.00  0.00    +0.003 A 
ATOM     27  C   UNL     1      -9.440  11.002  -5.489  0.00  0.00    +0.020 A 
ATOM     28  C   UNL     1      -8.474  10.169  -4.951  0.00  0.00    +0.047 A 
ATOM     29 CL   UNL     1      -7.201  10.833  -3.975  0.00  0.00    -0.083 Cl
ATOM     30 CL   UNL     1      -9.594   6.573  -6.282  0.00  0.00    -0.083 Cl
ENDBRANCH  22  23
ENDBRANCH  20  22
ENDBRANCH  19  20
ENDBRANCH   4  18
TORSDOF 7
