REMARK  Name = ZINC13500062
REMARK  15 active torsions:
REMARK  status: ('A' for Active; 'I' for Inactive)
REMARK    1  A    between atoms: C_1  and  C_2
REMARK    2  A    between atoms: C_2  and  C_3
REMARK    3  A    between atoms: C_3  and  C_4
REMARK    4  A    between atoms: C_4  and  C_6
REMARK    5  A    between atoms: C_4  and  N_74
REMARK    6  A    between atoms: N_10  and  C_11
REMARK    7  A    between atoms: C_11  and  C_12
REMARK    8  A    between atoms: C_11  and  C_13
REMARK    9  A    between atoms: C_11  and  C_14
REMARK   10  A    between atoms: C_14  and  C_15
REMARK   11  A    between atoms: C_16  and  C_17
REMARK   12  A    between atoms: C_16  and  N_74
REMARK   13  A    between atoms: C_21  and  C_30
REMARK   14  A    between atoms: C_23  and  C_29
REMARK   15  A    between atoms: C_31  and  N_74
REMARK                            x       y       z     vdW  Elec       q    Type
REMARK                         _______ _______ _______ _____ _____    ______ ____
ROOT
ATOM      1  N   UNL     1      -1.594   8.165  -0.541  0.00  0.00    +0.391 N 
ATOM      2  H   UNL     1      -2.333   7.490  -0.771  0.00  0.00    -0.080 HD
ENDROOT
BRANCH   1   3
ATOM      3  C   UNL     1      -0.298   7.639  -1.020  0.00  0.00    -0.067 C 
ATOM      4  C   UNL     1      -0.234   7.734  -2.558  0.00  0.00    -0.015 C 
ATOM      5  C   UNL     1       0.494   6.436  -2.988  0.00  0.00    -0.002 C 
ATOM      6  C   UNL     1      -0.071   5.383  -2.002  0.00  0.00    -0.002 C 
ATOM      7  C   UNL     1      -0.195   6.145  -0.666  0.00  0.00    -0.015 C 
ENDBRANCH   1   3
BRANCH   1   8
ATOM      8  C   UNL     1      -1.894   9.450  -1.206  0.00  0.00    +0.003 C 
BRANCH   8   9
ATOM      9  C   UNL     1      -0.950  10.524  -0.731  0.00  0.00    +0.139 A 
ATOM     10  N   UNL     1      -0.394  10.609   0.453  0.00  0.00    -0.115 NA
ATOM     11  N   UNL     1       0.346  11.664   0.471  0.00  0.00    -0.023 NA
ATOM     12  N   UNL     1       0.276  12.254  -0.671  0.00  0.00    -0.043 NA
ATOM     13  N   UNL     1      -0.509  11.579  -1.441  0.00  0.00    -0.225 N 
BRANCH  13  14
ATOM     14  C   UNL     1      -0.857  11.902  -2.827  0.00  0.00    +0.061 C 
ATOM     15  C   UNL     1      -0.260  10.847  -3.762  0.00  0.00    +0.036 C 
ATOM     16  C   UNL     1      -2.379  11.915  -2.980  0.00  0.00    +0.036 C 
BRANCH  14  17
ATOM     17  C   UNL     1      -0.296  13.279  -3.187  0.00  0.00    +0.026 C 
ATOM     18  C   UNL     1      -0.660  13.616  -4.634  0.00  0.00    +0.006 C 
ENDBRANCH  14  17
ENDBRANCH  13  14
ENDBRANCH   8   9
BRANCH   8  19
ATOM     19  C   UNL     1      -3.332   9.853  -0.875  0.00  0.00    -0.008 C 
BRANCH  19  21
ATOM     20  C   UNL     1      -5.739   9.305  -1.262  0.00  0.00    +0.004 C 
ATOM     21  C   UNL     1      -4.300   8.838  -1.487  0.00  0.00    -0.005 C 
ENDBRANCH  19  21
ENDBRANCH   8  19
ENDBRANCH   1   8
BRANCH   1  22
ATOM     22  C   UNL     1      -1.553   8.352   0.924  0.00  0.00    -0.036 C 
BRANCH  22  23
ATOM     23  C   UNL     1      -1.694   7.006   1.587  0.00  0.00    +0.001 A 
ATOM     24  C   UNL     1      -0.593   6.357   2.040  0.00  0.00    +0.017 A 
ATOM     25  C   UNL     1      -0.763   5.051   2.679  0.00  0.00    -0.001 A 
ATOM     26  C   UNL     1       0.335   4.334   3.165  0.00  0.00    +0.013 A 
ATOM     27  C   UNL     1       0.142   3.118   3.756  0.00  0.00    -0.050 A 
ATOM     28  C   UNL     1      -1.135   2.587   3.879  0.00  0.00    +0.008 A 
ATOM     29  C   UNL     1      -2.231   3.273   3.402  0.00  0.00    -0.026 A 
ATOM     30  C   UNL     1      -2.060   4.516   2.802  0.00  0.00    +0.052 A 
ATOM     31  N   UNL     1      -3.139   5.226   2.320  0.00  0.00    -0.322 N 
ATOM     32  H   UNL     1      -4.031   4.856   2.406  0.00  0.00    +0.169 HD
ATOM     33  C   UNL     1      -2.972   6.425   1.735  0.00  0.00    +0.251 A 
ATOM     34  O   UNL     1      -3.949   7.026   1.322  0.00  0.00    -0.268 OA
ATOM     35  C   UNL     1      -3.611   2.682   3.537  0.00  0.00    +0.046 C 
ATOM     36  C   UNL     1       1.325   2.345   4.279  0.00  0.00    +0.044 C 
ENDBRANCH  22  23
ENDBRANCH   1  22
TORSDOF 9
