REMARK  Name = ZINC44973706
REMARK  9 active torsions:
REMARK  status: ('A' for Active; 'I' for Inactive)
REMARK    1  A    between atoms: C_1  and  C_2
REMARK    2  A    between atoms: C_2  and  C_3
REMARK    3  A    between atoms: C_3  and  C_4
REMARK    4  A    between atoms: C_4  and  C_5
REMARK    5  A    between atoms: C_5  and  C_6
REMARK    6  A    between atoms: C_6  and  N_7
REMARK    7  A    between atoms: C_8  and  C_10
REMARK    8  A    between atoms: C_13  and  C_16
REMARK    9  A    between atoms: N_28  and  C_31
REMARK                            x       y       z     vdW  Elec       q    Type
REMARK                         _______ _______ _______ _____ _____    ______ ____
ROOT
ATOM      1  C   UNL     1      -9.807  -7.942   0.052  0.00  0.00    -0.017 A 
ATOM      2  C   UNL     1     -10.882  -7.053   0.056  0.00  0.00    +0.012 A 
ATOM      3  C   UNL     1     -12.171  -7.536   0.068  0.00  0.00    +0.046 A 
ATOM      4  C   UNL     1     -12.408  -8.909   0.075  0.00  0.00    +0.124 A 
ATOM      5  C   UNL     1     -11.342  -9.795   0.067  0.00  0.00    -0.005 A 
ATOM      6  C   UNL     1     -10.046  -9.314   0.052  0.00  0.00    +0.015 A 
ATOM      7  C   UNL     1     -11.561 -11.287   0.061  0.00  0.00    +0.043 C 
ATOM      8  C   UNL     1     -12.988 -11.600   0.517  0.00  0.00    +0.052 C 
ATOM      9  C   UNL     1     -13.953 -10.698  -0.260  0.00  0.00    +0.108 C 
ATOM     10  O   UNL     1     -13.696  -9.341   0.094  0.00  0.00    -0.486 OA
ATOM     11  C   UNL     1     -15.395 -11.064   0.098  0.00  0.00    +0.029 C 
ATOM     12  C   UNL     1     -16.354 -10.216  -0.741  0.00  0.00    -0.075 C 
ATOM     13  N   UNL     1     -16.118 -10.474  -2.167  0.00  0.00    +0.378 N 
ATOM     14  C   UNL     1     -14.760 -10.053  -2.531  0.00  0.00    -0.075 C 
ATOM     15  C   UNL     1     -13.738 -10.893  -1.762  0.00  0.00    +0.029 C 
ATOM     16  C   UNL     1     -17.094  -9.721  -2.967  0.00  0.00    -0.096 C 
ATOM     17  H   UNL     1     -16.224 -11.460  -2.352  0.00  0.00    -0.082 HD
ENDROOT
BRANCH   1  21
ATOM     18  C   UNL     1      -5.815  -6.469   0.023  0.00  0.00    +0.037 A 
ATOM     19  C   UNL     1      -6.890  -5.576   0.032  0.00  0.00    +0.013 A 
ATOM     20  C   UNL     1      -8.181  -6.054   0.041  0.00  0.00    +0.009 A 
ATOM     21  C   UNL     1      -8.417  -7.429   0.042  0.00  0.00    -0.018 A 
ATOM     22  C   UNL     1      -7.344  -8.322   0.032  0.00  0.00    +0.009 A 
ATOM     23  C   UNL     1      -6.053  -7.846   0.018  0.00  0.00    +0.013 A 
BRANCH  18  25
ATOM     24  N   UNL     1      -4.202  -4.630   0.017  0.00  0.00    -0.311 N 
ATOM     25  C   UNL     1      -4.430  -5.958   0.012  0.00  0.00    +0.244 C 
ATOM     26  O   UNL     1      -3.495  -6.736  -0.001  0.00  0.00    -0.270 OA
ATOM     27  H   UNL     1      -4.947  -4.010   0.028  0.00  0.00    +0.149 HD
BRANCH  24  28
ATOM     28  C   UNL     1      -2.827  -4.123   0.007  0.00  0.00    +0.104 C 
BRANCH  28  29
ATOM     29  C   UNL     1      -2.848  -2.593   0.015  0.00  0.00    +0.019 C 
BRANCH  29  30
ATOM     30  C   UNL     1      -1.413  -2.063   0.004  0.00  0.00    +0.002 C 
BRANCH  30  31
ATOM     31  C   UNL     1      -1.433  -0.534   0.013  0.00  0.00    -0.000 C 
BRANCH  31  33
ATOM     32  C   UNL     1      -0.019   1.526   0.010  0.00  0.00    +0.004 C 
ATOM     33  C   UNL     1       0.002  -0.004   0.002  0.00  0.00    -0.003 C 
ENDBRANCH  31  33
ENDBRANCH  30  31
ENDBRANCH  29  30
ENDBRANCH  28  29
ENDBRANCH  24  28
ENDBRANCH  18  25
ENDBRANCH   1  21
TORSDOF 7
