REMARK  Name = ZINC13749582
REMARK  8 active torsions:
REMARK  status: ('A' for Active; 'I' for Inactive)
REMARK    1  A    between atoms: C_1  and  C_2
REMARK    2  A    between atoms: C_2  and  C_8
REMARK    3  A    between atoms: N_3  and  N_4
REMARK    4  A    between atoms: C_11  and  C_12
REMARK    5  A    between atoms: C_11  and  C_13
REMARK    6  A    between atoms: C_13  and  C_14
REMARK    7  A    between atoms: C_13  and  C_15
REMARK    8  A    between atoms: C_13  and  C_16
REMARK                            x       y       z     vdW  Elec       q    Type
REMARK                         _______ _______ _______ _____ _____    ______ ____
ROOT
ATOM      1  C   UNL     1       0.466   0.871  -1.657  0.00  0.00    +0.062 C 
ATOM      2  C   UNL     1      -0.414   1.821  -0.885  0.00  0.00    +0.037 C 
ATOM      3  N   UNL     1      -1.559   2.153  -1.352  0.00  0.00    -0.188 NA
ENDROOT
BRANCH   3   4
ATOM      4  N   UNL     1      -2.378   3.036  -0.635  0.00  0.00    -0.191 N 
ATOM      5  C   UNL     1      -3.602   3.351  -1.103  0.00  0.00    +0.317 C 
ATOM      6  O   UNL     1      -4.347   4.044  -0.438  0.00  0.00    -0.251 OA
ATOM      7  N   UNL     1      -3.998   2.898  -2.309  0.00  0.00    -0.312 N 
ATOM      8  H   UNL     1      -2.064   3.420   0.199  0.00  0.00    +0.179 HD
ATOM      9  H   UNL     1      -3.404   2.346  -2.840  0.00  0.00    +0.147 HD
ATOM     10  H   UNL     1      -4.879   3.125  -2.647  0.00  0.00    +0.147 HD
ENDBRANCH   3   4
BRANCH   2  11
ATOM     11  C   UNL     1       0.053   2.378   0.434  0.00  0.00    +0.042 C 
ATOM     12  C   UNL     1       0.789   1.429   1.382  0.00  0.00    +0.017 C 
ATOM     13  C   UNL     1      -0.640   1.872   1.701  0.00  0.00    -0.019 C 
ATOM     14  C   UNL     1      -0.832   2.867   2.848  0.00  0.00    +0.012 C 
BRANCH  13  15
ATOM     15  C   UNL     1      -1.755   0.838   1.532  0.00  0.00    -0.032 C 
ATOM     16  C   UNL     1      -2.029   0.158   2.875  0.00  0.00    +0.011 C 
ATOM     17  C   UNL     1      -3.027   1.534   1.043  0.00  0.00    +0.011 C 
ATOM     18  C   UNL     1      -1.323  -0.214   0.507  0.00  0.00    +0.011 C 
ENDBRANCH  13  15
ENDBRANCH   2  11
TORSDOF 3
