REMARK  Name = ZINC44853939
REMARK  8 active torsions:
REMARK  status: ('A' for Active; 'I' for Inactive)
REMARK    1  A    between atoms: C_1  and  C_2
REMARK    2  A    between atoms: N_5  and  C_8
REMARK    3  A    between atoms: C_11  and  C_14
REMARK    4  A    between atoms: C_14  and  C_16
REMARK    5  A    between atoms: C_14  and  N_17
REMARK    6  A    between atoms: C_18  and  C_20
REMARK    7  A    between atoms: N_25  and  C_27
REMARK    8  A    between atoms: C_27  and  C_28
REMARK                            x       y       z     vdW  Elec       q    Type
REMARK                         _______ _______ _______ _____ _____    ______ ____
ROOT
ATOM      1  N   UNL     1      -2.079  -6.090   6.085  0.00  0.00    -0.309 N 
ATOM      2  C   UNL     1      -2.755  -6.492   7.179  0.00  0.00    +0.215 C 
ATOM      3  O   UNL     1      -3.809  -7.079   7.059  0.00  0.00    -0.276 OA
ATOM      4  H   UNL     1      -1.236  -5.621   6.181  0.00  0.00    +0.149 HD
ENDROOT
BRANCH   2   5
ATOM      5  C   UNL     1      -2.202  -6.211   8.552  0.00  0.00    +0.058 C 
ATOM      6  C   UNL     1      -2.055  -4.698   8.744  0.00  0.00    +0.009 C 
ATOM      7  C   UNL     1      -1.567  -4.420  10.169  0.00  0.00    -0.018 C 
ATOM      8  C   UNL     1      -2.546  -5.039  11.168  0.00  0.00    -0.078 C 
ATOM      9  N   UNL     1      -2.622  -6.489  10.950  0.00  0.00    +0.383 N 
ATOM     10  C   UNL     1      -3.157  -6.765   9.611  0.00  0.00    -0.066 C 
ATOM     11  H   UNL     1      -1.700  -6.889  11.031  0.00  0.00    -0.081 HD
BRANCH   9  12
ATOM     12  C   UNL     1      -3.503  -7.089  11.961  0.00  0.00    -0.043 C 
BRANCH  12  13
ATOM     13  C   UNL     1      -2.888  -6.923  13.326  0.00  0.00    -0.063 A 
ATOM     14  C   UNL     1      -2.034  -7.891  13.822  0.00  0.00    +0.002 A 
ATOM     15  C   UNL     1      -1.469  -7.738  15.075  0.00  0.00    +0.001 A 
ATOM     16  C   UNL     1      -1.757  -6.618  15.832  0.00  0.00    +0.015 A 
ATOM     17  C   UNL     1      -2.611  -5.649  15.336  0.00  0.00    +0.018 A 
ATOM     18  C   UNL     1      -3.172  -5.800  14.080  0.00  0.00    +0.017 A 
ATOM     19 BR   UNL     1      -3.006  -4.117  16.371  0.00  0.00    -0.050 Br
ENDBRANCH  12  13
ENDBRANCH   9  12
ENDBRANCH   2   5
BRANCH   1  20
ATOM     20  C   UNL     1      -2.617  -6.364   4.750  0.00  0.00    +0.100 C 
ATOM     21  C   UNL     1      -2.202  -7.770   4.311  0.00  0.00    +0.033 C 
BRANCH  20  25
ATOM     22  C   UNL     1      -1.080  -3.494   1.980  0.00  0.00    +0.030 A 
ATOM     23  C   UNL     1      -2.407  -3.899   1.899  0.00  0.00    +0.023 A 
ATOM     24  C   UNL     1      -2.900  -4.827   2.795  0.00  0.00    +0.007 A 
ATOM     25  C   UNL     1      -2.075  -5.352   3.773  0.00  0.00    -0.027 A 
ATOM     26  C   UNL     1      -0.754  -4.952   3.856  0.00  0.00    +0.007 A 
ATOM     27  C   UNL     1      -0.253  -4.028   2.960  0.00  0.00    +0.023 A 
BRANCH  22  32
ATOM     28  C   UNL     1      -0.045   1.525  -0.005  0.00  0.00    +0.007 C 
ATOM     29  C   UNL     1      -0.011  -0.004  -0.005  0.00  0.00    -0.011 C 
ATOM     30  C   UNL     1      -1.442  -0.546  -0.007  0.00  0.00    +0.022 C 
ATOM     31  C   UNL     1      -1.404  -2.077  -0.042  0.00  0.00    +0.105 C 
ATOM     32  N   UNL     1      -0.578  -2.556   1.075  0.00  0.00    -0.330 N 
ATOM     33  C   UNL     1       0.785  -2.029   1.222  0.00  0.00    +0.105 C 
ATOM     34  C   UNL     1       0.723  -0.498   1.244  0.00  0.00    +0.022 C 
ENDBRANCH  22  32
ENDBRANCH  20  25
ENDBRANCH   1  20
TORSDOF 6
