REMARK  Name = ZINC09198981
REMARK  16 active torsions:
REMARK  status: ('A' for Active; 'I' for Inactive)
REMARK    1  A    between atoms: C_1  and  C_2
REMARK    2  A    between atoms: C_6  and  C_34
REMARK    3  A    between atoms: C_10  and  C_33
REMARK    4  A    between atoms: C_15  and  C_16
REMARK    5  A    between atoms: C_16  and  C_17
REMARK    6  A    between atoms: C_17  and  C_18
REMARK    7  A    between atoms: N_20  and  C_21
REMARK    8  A    between atoms: C_21  and  C_22
REMARK    9  A    between atoms: C_22  and  C_23
REMARK   10  A    between atoms: C_26  and  O_31
REMARK   11  A    between atoms: C_27  and  O_29
REMARK   12  A    between atoms: O_29  and  C_30
REMARK   13  A    between atoms: O_31  and  C_32
REMARK   14  A    between atoms: C_34  and  C_35
REMARK   15  A    between atoms: C_34  and  C_36
REMARK   16  A    between atoms: C_34  and  C_37
REMARK                            x       y       z     vdW  Elec       q    Type
REMARK                         _______ _______ _______ _____ _____    ______ ____
ROOT
ATOM      1  C   UNL     1      -2.389  -0.313  -6.073  0.00  0.00    +0.045 C 
ATOM      2  C   UNL     1      -2.000   1.018  -6.663  0.00  0.00    -0.030 A 
ATOM      3  C   UNL     1      -2.684   1.546  -7.848  0.00  0.00    +0.022 A 
ATOM      4  C   UNL     1      -3.712   0.826  -8.457  0.00  0.00    +0.023 A 
ATOM      5  C   UNL     1      -4.336   1.351  -9.581  0.00  0.00    +0.025 A 
ATOM      6  C   UNL     1      -5.421   0.888 -10.457  0.00  0.00    +0.003 A 
ATOM      7  C   UNL     1      -5.580   1.839 -11.386  0.00  0.00    +0.200 A 
ATOM      8  O   UNL     1      -4.710   2.843 -11.180  0.00  0.00    -0.462 OA
ATOM      9  C   UNL     1      -3.936   2.598 -10.103  0.00  0.00    +0.141 A 
ATOM     10  C   UNL     1      -2.913   3.307  -9.491  0.00  0.00    +0.035 A 
ATOM     11  C   UNL     1      -2.285   2.793  -8.370  0.00  0.00    +0.146 A 
ATOM     12  O   UNL     1      -1.286   3.480  -7.771  0.00  0.00    -0.422 OA
ATOM     13  C   UNL     1      -0.661   3.004  -6.684  0.00  0.00    +0.341 A 
ATOM     14  O   UNL     1       0.233   3.660  -6.180  0.00  0.00    -0.245 OA
ATOM     15  C   UNL     1      -1.010   1.763  -6.110  0.00  0.00    +0.041 A 
ATOM     16  C   UNL     1      -2.485   4.640 -10.048  0.00  0.00    +0.051 C 
ENDROOT
BRANCH   6  17
ATOM     17  C   UNL     1      -6.197  -0.398 -10.336  0.00  0.00    -0.009 C 
ATOM     18  C   UNL     1      -7.234  -0.476 -11.458  0.00  0.00    +0.015 C 
ATOM     19  C   UNL     1      -5.238  -1.585 -10.444  0.00  0.00    +0.015 C 
ATOM     20  C   UNL     1      -6.908  -0.438  -8.981  0.00  0.00    +0.015 C 
ENDBRANCH   6  17
BRANCH  15  21
ATOM     21  C   UNL     1      -0.281   1.264  -4.889  0.00  0.00    +0.052 C 
BRANCH  21  22
ATOM     22  C   UNL     1      -0.997   1.758  -3.630  0.00  0.00    +0.100 C 
BRANCH  22  23
ATOM     23  C   UNL     1      -0.268   1.258  -2.409  0.00  0.00    +0.213 C 
ATOM     24  O   UNL     1       0.726   0.575  -2.534  0.00  0.00    -0.276 OA
ATOM     25  N   UNL     1      -0.721   1.571  -1.179  0.00  0.00    -0.315 N 
ATOM     26  H   UNL     1      -1.516   2.118  -1.079  0.00  0.00    +0.149 HD
BRANCH  25  27
ATOM     27  C   UNL     1      -0.013   1.086   0.008  0.00  0.00    +0.109 C 
BRANCH  27  28
ATOM     28  C   UNL     1      -0.729   1.579   1.267  0.00  0.00    +0.054 C 
BRANCH  28  29
ATOM     29  C   UNL     1       0.000   1.080   2.488  0.00  0.00    -0.042 A 
ATOM     30  C   UNL     1      -0.349  -0.134   3.051  0.00  0.00    +0.007 A 
ATOM     31  C   UNL     1       0.321  -0.598   4.168  0.00  0.00    +0.049 A 
ATOM     32  C   UNL     1       1.336   0.158   4.731  0.00  0.00    +0.161 A 
ATOM     33  C   UNL     1       1.683   1.381   4.168  0.00  0.00    +0.162 A 
ATOM     34  C   UNL     1       1.012   1.839   3.045  0.00  0.00    +0.053 A 
BRANCH  33  35
ATOM     35  O   UNL     1       2.679   2.127   4.717  0.00  0.00    -0.491 OA
ATOM     36  C   UNL     1       2.982   3.372   4.085  0.00  0.00    +0.277 C 
ENDBRANCH  33  35
BRANCH  32  37
ATOM     37  O   UNL     1       1.992  -0.296   5.833  0.00  0.00    -0.491 OA
ATOM     38  C   UNL     1       1.583  -1.561   6.357  0.00  0.00    +0.277 C 
ENDBRANCH  32  37
ENDBRANCH  28  29
ENDBRANCH  27  28
ENDBRANCH  25  27
ENDBRANCH  22  23
ENDBRANCH  21  22
ENDBRANCH  15  21
TORSDOF 9
