REMARK  Name = ZINC06176877
REMARK  8 active torsions:
REMARK  status: ('A' for Active; 'I' for Inactive)
REMARK    1  A    between atoms: C_1  and  O_2
REMARK    2  A    between atoms: O_2  and  C_3
REMARK    3  A    between atoms: C_8  and  C_15
REMARK    4  A    between atoms: C_15  and  C_17
REMARK    5  A    between atoms: C_15  and  N_68
REMARK    6  A    between atoms: N_21  and  C_22
REMARK    7  A    between atoms: C_22  and  C_23
REMARK    8  A    between atoms: N_31  and  C_34
REMARK                            x       y       z     vdW  Elec       q    Type
REMARK                         _______ _______ _______ _____ _____    ______ ____
ROOT
ATOM      1  C   UNL     1       3.512   0.638  -0.028  0.00  0.00    +0.039 C 
ENDROOT
BRANCH   1   7
ATOM      2  C   UNL     1       6.117  -0.018   5.883  0.00  0.00    +0.122 A 
ATOM      3  C   UNL     1       6.386   1.268   5.415  0.00  0.00    +0.046 A 
ATOM      4  C   UNL     1       5.943   1.664   4.187  0.00  0.00    +0.013 A 
ATOM      5  C   UNL     1       5.215   0.773   3.389  0.00  0.00    -0.001 A 
ATOM      6  C   UNL     1       4.732   1.166   2.066  0.00  0.00    +0.017 A 
ATOM      7  C   UNL     1       4.027   0.263   1.338  0.00  0.00    +0.011 A 
ATOM      8  C   UNL     1       3.780  -1.026   1.852  0.00  0.00    +0.251 A 
ATOM      9  O   UNL     1       3.149  -1.823   1.179  0.00  0.00    -0.268 OA
ATOM     10  N   UNL     1       4.223  -1.399   3.065  0.00  0.00    -0.322 N 
ATOM     11  H   UNL     1       4.035  -2.294   3.389  0.00  0.00    +0.169 HD
ATOM     12  C   UNL     1       4.941  -0.527   3.857  0.00  0.00    +0.053 A 
ATOM     13  C   UNL     1       5.399  -0.913   5.110  0.00  0.00    +0.072 A 
BRANCH   2  15
ATOM     14  C   UNL     1       7.301   0.575   7.857  0.00  0.00    +0.277 C 
ATOM     15  O   UNL     1       6.565  -0.395   7.108  0.00  0.00    -0.495 OA
ENDBRANCH   2  15
ENDBRANCH   1   7
BRANCH   1  21
ATOM     16  C   UNL     1       5.460  -0.427  -0.995  0.00  0.00    -0.058 C 
ATOM     17  C   UNL     1       5.915  -1.506  -1.981  0.00  0.00    +0.086 C 
ATOM     18  N   UNL     1       5.431  -1.171  -3.327  0.00  0.00    -0.333 N 
ATOM     19  C   UNL     1       3.965  -1.079  -3.349  0.00  0.00    +0.086 C 
ATOM     20  C   UNL     1       3.509  -0.001  -2.364  0.00  0.00    -0.058 C 
ATOM     21  N   UNL     1       3.983  -0.361  -1.010  0.00  0.00    +0.391 N 
ATOM     22  H   UNL     1       3.605  -1.281  -0.758  0.00  0.00    -0.080 HD
BRANCH  18  23
ATOM     23  C   UNL     1       5.890  -2.098  -4.269  0.00  0.00    +0.030 A 
ATOM     24  C   UNL     1       4.983  -2.788  -5.063  0.00  0.00    +0.026 A 
ATOM     25  C   UNL     1       5.439  -3.699  -5.996  0.00  0.00    +0.040 A 
ATOM     26  C   UNL     1       6.797  -3.932  -6.132  0.00  0.00    +0.124 A 
ATOM     27  C   UNL     1       7.702  -3.249  -5.338  0.00  0.00    +0.040 A 
ATOM     28  C   UNL     1       7.251  -2.333  -4.407  0.00  0.00    +0.026 A 
ATOM     29  F   UNL     1       7.239  -4.827  -7.042  0.00  0.00    -0.205 F 
ENDBRANCH  18  23
ENDBRANCH   1  21
BRANCH   1  30
ATOM     30  C   UNL     1       2.005   0.637  -0.014  0.00  0.00    +0.143 A 
ATOM     31  N   UNL     1       1.223  -0.415  -0.012  0.00  0.00    -0.115 NA
ATOM     32  N   UNL     1       0.002  -0.004   0.002  0.00  0.00    -0.023 NA
ATOM     33  N   UNL     1      -0.015   1.283   0.009  0.00  0.00    -0.044 NA
ATOM     34  N   UNL     1       1.200   1.716  -0.000  0.00  0.00    -0.228 N 
BRANCH  34  35
ATOM     35  C   UNL     1       1.625   3.118   0.003  0.00  0.00    +0.178 C 
BRANCH  35  36
ATOM     36  C   UNL     1       1.787   3.599   1.446  0.00  0.00    +0.140 C 
ATOM     37  C   UNL     1       2.288   5.064   1.472  0.00  0.00    +0.035 C 
ATOM     38  C   UNL     1       1.773   5.528   2.862  0.00  0.00    +0.031 C 
ATOM     39  C   UNL     1       0.447   4.749   2.996  0.00  0.00    +0.160 C 
ATOM     40  O   UNL     1       0.512   3.627   2.108  0.00  0.00    -0.375 OA
ENDBRANCH  35  36
ENDBRANCH  34  35
ENDBRANCH   1  30
TORSDOF 7
