REMARK  Name = ZINC39941769
REMARK  6 active torsions:
REMARK  status: ('A' for Active; 'I' for Inactive)
REMARK    1  A    between atoms: C_4  and  S_7
REMARK    2  A    between atoms: S_7  and  N_10
REMARK    3  A    between atoms: N_10  and  C_11
REMARK    4  A    between atoms: C_14  and  C_17
REMARK    5  A    between atoms: N_19  and  N_20
REMARK    6  A    between atoms: C_21  and  C_22
REMARK                            x       y       z     vdW  Elec       q    Type
REMARK                         _______ _______ _______ _____ _____    ______ ____
ROOT
ATOM      1  C   UNL     1       0.991  -4.646   4.502  0.00  0.00    +0.263 C 
ATOM      2  O   UNL     1      -0.212  -4.658   4.323  0.00  0.00    -0.268 OA
ATOM      3  N   UNL     1       1.546  -5.481   5.403  0.00  0.00    -0.203 N 
ATOM      4  H   UNL     1       2.506  -5.472   5.546  0.00  0.00    +0.178 HD
ENDROOT
BRANCH   1   8
ATOM      5  C   UNL     1       3.442  -1.978   2.288  0.00  0.00    +0.048 A 
ATOM      6  C   UNL     1       2.065  -1.990   2.082  0.00  0.00    +0.025 A 
ATOM      7  C   UNL     1       1.268  -2.853   2.798  0.00  0.00    +0.015 A 
ATOM      8  C   UNL     1       1.843  -3.720   3.733  0.00  0.00    +0.038 A 
ATOM      9  C   UNL     1       3.225  -3.705   3.938  0.00  0.00    +0.015 A 
ATOM     10  C   UNL     1       4.018  -2.843   3.215  0.00  0.00    +0.025 A 
BRANCH   5  11
ATOM     11  N   UNL     1       4.245  -1.104   1.563  0.00  0.00    -0.216 N 
ATOM     12  H   UNL     1       4.613  -0.316   1.991  0.00  0.00    +0.174 HD
BRANCH  11  13
ATOM     13  S   UNL     1       4.572  -1.410  -0.031  0.00  0.00    +0.072 S 
ATOM     14  O   UNL     1       5.420  -0.362  -0.480  0.00  0.00    -0.150 OA
ATOM     15  O   UNL     1       3.327  -1.702  -0.652  0.00  0.00    -0.150 OA
BRANCH  13  19
ATOM     16  C   UNL     1       7.021  -5.213  -0.192  0.00  0.00    +0.000 A 
ATOM     17  C   UNL     1       5.651  -5.266  -0.361  0.00  0.00    +0.002 A 
ATOM     18  C   UNL     1       4.902  -4.105  -0.312  0.00  0.00    +0.029 A 
ATOM     19  C   UNL     1       5.525  -2.890  -0.093  0.00  0.00    +0.108 A 
ATOM     20  C   UNL     1       6.896  -2.837   0.077  0.00  0.00    +0.029 A 
ATOM     21  C   UNL     1       7.644  -3.998   0.026  0.00  0.00    +0.002 A 
ENDBRANCH  13  19
ENDBRANCH  11  13
ENDBRANCH   5  11
ENDBRANCH   1   8
BRANCH   3  22
ATOM     22  N   UNL     1       0.738  -6.361   6.134  0.00  0.00    -0.191 NA
ATOM     23  C   UNL     1       1.265  -7.154   6.989  0.00  0.00    +0.120 C 
BRANCH  23  24
ATOM     24  C   UNL     1       0.395  -8.101   7.776  0.00  0.00    +0.141 C 
ATOM     25  C   UNL     1       0.496  -7.719   9.239  0.00  0.00    +0.001 C 
ATOM     26  C   UNL     1       0.931  -8.677  10.106  0.00  0.00    -0.007 A 
ATOM     27  C   UNL     1       1.059  -8.393  11.536  0.00  0.00    +0.009 A 
ATOM     28  C   UNL     1       1.497  -9.377  12.363  0.00  0.00    +0.001 A 
ATOM     29  C   UNL     1       1.825 -10.643  11.875  0.00  0.00    +0.002 A 
ATOM     30  C   UNL     1       1.728 -10.969  10.560  0.00  0.00    +0.024 A 
ATOM     31  C   UNL     1       1.284 -10.022   9.620  0.00  0.00    +0.040 A 
ATOM     32  N   UNL     1       1.193 -10.353   8.332  0.00  0.00    -0.284 N 
ATOM     33  C   UNL     1       0.785  -9.512   7.397  0.00  0.00    +0.229 C 
ATOM     34  O   UNL     1       0.724  -9.872   6.237  0.00  0.00    -0.274 OA
ATOM     35  H   UNL     1       1.438 -11.254   8.068  0.00  0.00    +0.155 HD
ENDBRANCH  23  24
ENDBRANCH   3  22
TORSDOF 6
