REMARK  Name = ZINC35361848
REMARK  13 active torsions:
REMARK  status: ('A' for Active; 'I' for Inactive)
REMARK    1  A    between atoms: CD1_1  and  CG1_2
REMARK    2  A    between atoms: CG1_2  and  CB_3
REMARK    3  A    between atoms: CB_3  and  CG2_5
REMARK    4  A    between atoms: CB_3  and  CA_6
REMARK    5  A    between atoms: CA_6  and  C_8
REMARK    6  A    between atoms: CA_6  and  N_11
REMARK    7  A    between atoms: C_12  and  C_14
REMARK    8  A    between atoms: C_14  and  C_15
REMARK    9  A    between atoms: C_15  and  C_16
REMARK   10  A    between atoms: C_16  and  O_18
REMARK   11  A    between atoms: O_18  and  C_19
REMARK   12  A    between atoms: C_25  and  C_42
REMARK   13  A    between atoms: C_40  and  C_41
REMARK                            x       y       z     vdW  Elec       q    Type
REMARK                         _______ _______ _______ _____ _____    ______ ____
ROOT
ATOM      1  C   UNK A   0       4.872  -7.761  -6.071  0.00  0.00    +0.183 C 
ATOM      2  C   UNK A   0       3.857  -8.427  -7.034  0.00  0.00    +0.045 C 
ATOM      3  C   UNK A   0       4.206  -9.943  -7.057  0.00  0.00    +0.008 C 
ATOM      4  C   UNK A   0       5.007 -10.110  -5.753  0.00  0.00    +0.002 C 
ATOM      5  C   UNK A   0       5.917  -8.864  -5.798  0.00  0.00    +0.008 C 
ATOM      6  C   UNK A   0       6.659  -8.723  -4.495  0.00  0.00    +0.011 C 
ATOM      7  C   UNK A   0       7.255 -10.056  -4.037  0.00  0.00    +0.005 C 
ATOM      8  C   UNK A   0       7.194 -11.150  -5.089  0.00  0.00    +0.002 C 
ATOM      9  C   UNK A   0       5.778 -11.387  -5.600  0.00  0.00    -0.003 C 
ATOM     10  C   UNK A   0       5.776 -12.230  -6.870  0.00  0.00    +0.008 C 
ATOM     11  C   UNK A   0       6.862 -13.305  -6.798  0.00  0.00    +0.032 C 
ATOM     12  C   UNK A   0       7.167 -13.591  -5.346  0.00  0.00    -0.060 C 
ATOM     13  C   UNK A   0       6.941 -14.794  -4.831  0.00  0.00    +0.046 C 
ATOM     14  C   UNK A   0       7.223 -15.081  -3.426  0.00  0.00    +0.156 C 
ATOM     15  O   UNK A   0       7.057 -16.203  -2.994  0.00  0.00    -0.293 OA
ATOM     16  C   UNK A   0       7.714 -13.989  -2.511  0.00  0.00    +0.080 C 
ATOM     17  C   UNK A   0       7.282 -12.626  -3.057  0.00  0.00    +0.019 C 
ATOM     18  C   UNK A   0       7.730 -12.470  -4.505  0.00  0.00    -0.007 C 
ATOM     19  C   UNK A   0       9.257 -12.474  -4.597  0.00  0.00    +0.016 C 
ATOM     20  C   UNK A   0       6.878  -8.873  -6.987  0.00  0.00    +0.015 C 
ENDROOT
BRANCH   1  21
ATOM     21  O   UNK A   0       4.229  -7.378  -4.857  0.00  0.00    -0.461 OA
BRANCH  21  22
ATOM     22  C   UNK A   0       3.774  -6.118  -4.780  0.00  0.00    +0.308 C 
ATOM     23  O   UNK A   0       3.918  -5.365  -5.714  0.00  0.00    -0.251 OA
BRANCH  22  24
ATOM     24  C   UNK A   0       3.084  -5.642  -3.528  0.00  0.00    +0.130 C 
BRANCH  24  25
ATOM     25  C   UNK A   0       2.667  -4.180  -3.700  0.00  0.00    +0.107 C 
BRANCH  25  27
ATOM     26  N   ILE A   1       1.520  -2.438  -2.370  0.00  0.00    -0.302 N 
ATOM     27  C   UNK A   0       1.977  -3.704  -2.448  0.00  0.00    +0.214 C 
ATOM     28  O   UNK A   0       1.832  -4.459  -1.510  0.00  0.00    -0.276 OA
ATOM     29  H   ILE A   1       1.635  -1.834  -3.120  0.00  0.00    +0.150 HD
BRANCH  26  30
ATOM     30  CA  ILE A   1       0.849  -1.976  -1.153  0.00  0.00    +0.189 C 
BRANCH  30  31
ATOM     31  C   ILE A   1      -0.611  -2.346  -1.212  0.00  0.00    +0.376 C 
ATOM     32  O   ILE A   1      -1.090  -2.774  -2.248  0.00  0.00    -0.244 OA
ATOM     33  OXT ILE A   1      -1.313  -2.217  -0.224  0.00  0.00    -0.244 OA
ENDBRANCH  30  31
BRANCH  30  34
ATOM     34  CB  ILE A   1       0.985  -0.456  -1.042  0.00  0.00    +0.017 C 
ATOM     35  CG2 ILE A   1       2.467  -0.080  -0.981  0.00  0.00    +0.010 C 
BRANCH  34  37
ATOM     36  CD1 ILE A   1       0.312   1.557   0.278  0.00  0.00    +0.004 C 
ATOM     37  CG1 ILE A   1       0.284   0.028   0.230  0.00  0.00    +0.002 C 
ENDBRANCH  34  37
ENDBRANCH  30  34
ENDBRANCH  26  30
ENDBRANCH  25  27
ENDBRANCH  24  25
ENDBRANCH  22  24
ENDBRANCH  21  22
ENDBRANCH   1  21
TORSDOF 9
