REMARK  Name = ZINC01430646
REMARK  5 active torsions:
REMARK  status: ('A' for Active; 'I' for Inactive)
REMARK    1  A    between atoms: C_1  and  C_2
REMARK    2  A    between atoms: C_7  and  N_8
REMARK    3  A    between atoms: C_9  and  C_11
REMARK    4  A    between atoms: C_11  and  N_12
REMARK    5  A    between atoms: C_13  and  C_21
REMARK                            x       y       z     vdW  Elec       q    Type
REMARK                         _______ _______ _______ _____ _____    ______ ____
ROOT
ATOM      1  N   UNL     1       2.403   1.106  -0.015  0.00  0.00    -0.284 N 
ATOM      2  C   UNL     1       2.426  -0.238   0.078  0.00  0.00    +0.239 C 
ATOM      3  O   UNL     1       1.387  -0.864   0.085  0.00  0.00    -0.273 OA
ATOM      4  H   UNL     1       3.233   1.602  -0.087  0.00  0.00    +0.155 HD
ENDROOT
BRANCH   1  11
ATOM      5  C   UNL     1       2.289   3.656   1.243  0.00  0.00    +0.046 C 
ATOM      6  C   UNL     1       1.080   3.033   0.592  0.00  0.00    -0.028 A 
ATOM      7  C   UNL     1      -0.128   3.703   0.596  0.00  0.00    +0.019 A 
ATOM      8  C   UNL     1      -1.238   3.132  -0.001  0.00  0.00    +0.014 A 
ATOM      9  C   UNL     1      -1.140   1.892  -0.607  0.00  0.00    +0.016 A 
ATOM     10  C   UNL     1       0.064   1.216  -0.608  0.00  0.00    +0.024 A 
ATOM     11  C   UNL     1       1.180   1.786  -0.010  0.00  0.00    +0.036 A 
ATOM     12  I   UNL     1      -3.069   4.151   0.006  0.00  0.00    -0.044 I 
ENDBRANCH   1  11
BRANCH   2  13
ATOM     13  C   UNL     1       3.744  -0.964   0.175  0.00  0.00    +0.239 C 
BRANCH  13  14
ATOM     14  N   UNL     1       3.502  -2.406   0.266  0.00  0.00    -0.256 N 
ATOM     15  C   UNL     1       3.409  -3.263  -0.773  0.00  0.00    +0.053 A 
ATOM     16  C   UNL     1       3.181  -4.498  -0.269  0.00  0.00    +0.089 A 
ATOM     17  C   UNL     1       3.134  -4.392   1.125  0.00  0.00    +0.249 A 
ATOM     18  N   UNL     1       3.332  -3.140   1.447  0.00  0.00    -0.145 NA
ATOM     19  N   UNL     1       2.906  -5.506   2.073  0.00  0.00    +0.078 N 
ATOM     20  O   UNL     1       2.739  -6.638   1.654  0.00  0.00    -0.125 OA
ATOM     21  O   UNL     1       2.886  -5.292   3.272  0.00  0.00    -0.125 OA
ATOM     22 BR   UNL     1       2.965  -6.087  -1.272  0.00  0.00    -0.044 Br
ATOM     23  C   UNL     1       3.535  -2.907  -2.232  0.00  0.00    +0.066 C 
ENDBRANCH  13  14
ENDBRANCH   2  13
TORSDOF 3
