REMARK  Name = ZINC14917519
REMARK  6 active torsions:
REMARK  status: ('A' for Active; 'I' for Inactive)
REMARK    1  A    between atoms: C_1  and  C_2
REMARK    2  A    between atoms: C_2  and  C_4
REMARK    3  A    between atoms: C_2  and  N_19
REMARK    4  A    between atoms: N_6  and  C_7
REMARK    5  A    between atoms: N_22  and  S_25
REMARK    6  A    between atoms: S_25  and  C_28
REMARK                            x       y       z     vdW  Elec       q    Type
REMARK                         _______ _______ _______ _____ _____    ______ ____
ROOT
ATOM      1  C   UNL     1      -1.440  -0.178   0.117  0.00  0.00    +0.034 C 
ATOM      2  C   UNL     1       0.060   0.118   0.046  0.00  0.00    +0.140 C 
ENDROOT
BRANCH   2   3
ATOM      3  N   UNL     1       0.747  -0.565   1.150  0.00  0.00    -0.289 NA
ATOM      4  C   UNL     1       0.864  -2.005   0.887  0.00  0.00    +0.102 C 
ATOM      5  C   UNL     1       1.740  -2.648   1.968  0.00  0.00    +0.125 C 
ATOM      6  N   UNL     1       1.187  -2.300   3.285  0.00  0.00    -0.174 NA
ATOM      7  C   UNL     1       0.913  -0.884   3.572  0.00  0.00    +0.125 C 
ATOM      8  C   UNL     1       0.070  -0.310   2.429  0.00  0.00    +0.102 C 
BRANCH   6   9
ATOM      9  S   UNL     1       0.883  -3.471   4.416  0.00  0.00    +0.062 S 
ATOM     10  O   UNL     1      -0.110  -2.947   5.286  0.00  0.00    -0.153 OA
ATOM     11  O   UNL     1       0.706  -4.688   3.703  0.00  0.00    -0.153 OA
BRANCH   9  12
ATOM     12  C   UNL     1       2.347  -3.659   5.378  0.00  0.00    +0.125 A 
ATOM     13  C   UNL     1       2.337  -3.338   6.722  0.00  0.00    +0.050 A 
ATOM     14  C   UNL     1       3.486  -3.486   7.478  0.00  0.00    +0.043 A 
ATOM     15  C   UNL     1       4.646  -3.956   6.887  0.00  0.00    +0.021 A 
ATOM     16  C   UNL     1       4.657  -4.277   5.543  0.00  0.00    +0.023 A 
ATOM     17  C   UNL     1       3.505  -4.134   4.789  0.00  0.00    +0.067 A 
ATOM     18 CL   UNL     1       3.516  -4.545   3.102  0.00  0.00    -0.082 Cl
ATOM     19 CL   UNL     1       3.473  -3.082   9.166  0.00  0.00    -0.083 Cl
ENDBRANCH   9  12
ENDBRANCH   6   9
ENDBRANCH   2   3
BRANCH   2  20
ATOM     20  C   UNL     1       0.284   1.604   0.156  0.00  0.00    +0.234 C 
ATOM     21  O   UNL     1       0.846   2.062   1.129  0.00  0.00    -0.274 OA
ATOM     22  N   UNL     1      -0.140   2.425  -0.825  0.00  0.00    -0.284 N 
ATOM     23  H   UNL     1      -0.650   2.068  -1.569  0.00  0.00    +0.155 HD
BRANCH  22  24
ATOM     24  C   UNL     1       0.155   3.793  -0.771  0.00  0.00    +0.036 A 
ATOM     25  C   UNL     1       0.411   4.495  -1.943  0.00  0.00    +0.025 A 
ATOM     26  C   UNL     1       0.702   5.843  -1.896  0.00  0.00    +0.029 A 
ATOM     27  C   UNL     1       0.741   6.501  -0.676  0.00  0.00    +0.067 A 
ATOM     28  C   UNL     1       0.485   5.799   0.504  0.00  0.00    +0.069 A 
ATOM     29  C   UNL     1       0.187   4.446   0.453  0.00  0.00    +0.051 A 
ATOM     30  N   UNL     1       0.594   6.713   1.549  0.00  0.00    -0.306 N 
ATOM     31  H   UNL     1       0.469   6.516   2.490  0.00  0.00    +0.170 HD
ATOM     32  C   UNL     1       0.903   7.916   1.030  0.00  0.00    +0.325 A 
ATOM     33  O   UNL     1       1.070   8.935   1.674  0.00  0.00    -0.247 OA
ATOM     34  N   UNL     1       0.998   7.822  -0.310  0.00  0.00    -0.306 N 
ATOM     35  H   UNL     1       1.210   8.548  -0.917  0.00  0.00    +0.170 HD
ENDBRANCH  22  24
ENDBRANCH   2  20
TORSDOF 5
