REMARK  Name = ZINC14156555
REMARK  9 active torsions:
REMARK  status: ('A' for Active; 'I' for Inactive)
REMARK    1  A    between atoms: C_1  and  C_2
REMARK    2  A    between atoms: C_4  and  C_29
REMARK    3  A    between atoms: N_10  and  C_11
REMARK    4  A    between atoms: C_11  and  N_13
REMARK    5  A    between atoms: N_13  and  C_14
REMARK    6  A    between atoms: C_14  and  C_15
REMARK    7  A    between atoms: N_20  and  C_21
REMARK    8  A    between atoms: C_21  and  C_22
REMARK    9  A    between atoms: C_22  and  C_23
REMARK                            x       y       z     vdW  Elec       q    Type
REMARK                         _______ _______ _______ _____ _____    ______ ____
ROOT
ATOM      1  C   UNL     1      -4.205   3.982   3.008  0.00  0.00    +0.066 C 
ATOM      2  C   UNL     1      -3.760   3.545   4.380  0.00  0.00    +0.044 A 
ATOM      3  C   UNL     1      -4.479   3.921   5.504  0.00  0.00    +0.046 A 
ATOM      4  C   UNL     1      -4.036   3.497   6.747  0.00  0.00    +0.044 A 
ATOM      5  N   UNL     1      -2.946   2.752   6.823  0.00  0.00    -0.217 NA
ATOM      6  C   UNL     1      -2.281   2.411   5.729  0.00  0.00    +0.231 A 
ATOM      7  N   UNL     1      -2.675   2.803   4.527  0.00  0.00    -0.217 NA
ATOM      8  N   UNL     1      -1.141   1.627   5.846  0.00  0.00    -0.297 N 
ATOM      9  C   UNL     1      -0.442   1.265   4.726  0.00  0.00    +0.195 C 
ATOM     10  N   UNL     1      -0.852   1.661   3.534  0.00  0.00    -0.160 NA
ATOM     11  N   UNL     1       0.679   0.495   4.841  0.00  0.00    -0.357 N 
ATOM     12  C   UNL     1      -4.786   3.881   7.996  0.00  0.00    +0.066 C 
ATOM     13  H   UNL     1      -0.799   1.298   6.838  0.00  0.00    +0.171 HD
ATOM     14  H   UNL     1       1.289   0.275   3.953  0.00  0.00    +0.162 HD
ENDROOT
BRANCH  10  15
ATOM     15  C   UNL     1      -0.234   1.216   2.430  0.00  0.00    +0.158 C 
ATOM     16  S   UNL     1      -0.092  -0.467   2.149  0.00  0.00    -0.017 S 
BRANCH  15  17
ATOM     17  N   UNL     1       0.274   2.093   1.542  0.00  0.00    -0.318 N 
ATOM     18  H   UNL     1       0.182   3.174   1.723  0.00  0.00    +0.148 HD
BRANCH  17  19
ATOM     19  C   UNL     1       0.949   1.606   0.336  0.00  0.00    +0.177 C 
BRANCH  19  20
ATOM     20  C   UNL     1       1.421   2.779  -0.483  0.00  0.00    +0.122 A 
ATOM     21  C   UNL     1       2.618   3.383  -0.375  0.00  0.00    +0.046 A 
ATOM     22  C   UNL     1       2.638   4.427  -1.328  0.00  0.00    +0.041 A 
ATOM     23  C   UNL     1       1.451   4.400  -1.960  0.00  0.00    +0.195 A 
ATOM     24  O   UNL     1       0.720   3.396  -1.449  0.00  0.00    -0.466 OA
ENDBRANCH  19  20
ENDBRANCH  17  19
ENDBRANCH  15  17
ENDBRANCH  10  15
BRANCH  11  25
ATOM     25  C   UNL     1       1.070  -0.040   6.148  0.00  0.00    +0.121 C 
BRANCH  25  26
ATOM     26  C   UNL     1       2.352  -0.862   6.000  0.00  0.00    +0.075 C 
BRANCH  26  27
ATOM     27  C   UNL     1       2.754  -1.411   7.345  0.00  0.00    +0.035 A 
ATOM     28  C   UNL     1       2.975  -2.707   7.636  0.00  0.00    +0.105 A 
ATOM     29  N   UNL     1       3.317  -2.763   8.960  0.00  0.00    -0.352 N 
ATOM     30  H   UNL     1       3.545  -3.732   9.429  0.00  0.00    +0.166 HD
ATOM     31  C   UNL     1       3.293  -1.498   9.432  0.00  0.00    +0.171 A 
ATOM     32  N   UNL     1       2.961  -0.694   8.460  0.00  0.00    -0.350 N 
ATOM     33  H   UNL     1       2.840   0.399   8.441  0.00  0.00    +0.166 HD
ENDBRANCH  26  27
ENDBRANCH  25  26
ENDBRANCH  11  25
TORSDOF 7
