REMARK  Name = ZINC21234105
REMARK  8 active torsions:
REMARK  status: ('A' for Active; 'I' for Inactive)
REMARK    1  A    between atoms: C_1  and  N_2
REMARK    2  A    between atoms: N_2  and  C_3
REMARK    3  A    between atoms: N_2  and  C_4
REMARK    4  A    between atoms: C_7  and  C_10
REMARK    5  A    between atoms: C_15  and  C_25
REMARK    6  A    between atoms: C_27  and  O_33
REMARK    7  A    between atoms: C_28  and  O_32
REMARK    8  A    between atoms: O_33  and  C_34
REMARK                            x       y       z     vdW  Elec       q    Type
REMARK                         _______ _______ _______ _____ _____    ______ ____
ROOT
ATOM      1  C   UNL     1      -2.710   2.926  -3.052  0.00  0.00    +0.032 C 
ATOM      2  C   UNL     1      -1.223   3.063  -3.373  0.00  0.00    +0.059 C 
ATOM      3  C   UNL     1      -0.392   2.652  -2.170  0.00  0.00    +0.017 C 
ATOM      4  C   UNL     1      -0.832   1.700  -1.328  0.00  0.00    +0.036 C 
ATOM      5  C   UNL     1      -0.104   1.191  -0.108  0.00  0.00    +0.136 C 
ATOM      6  N   UNL     1       1.277   1.615  -0.009  0.00  0.00    -0.331 N 
ATOM      7  C   UNL     1       1.603   2.960   0.154  0.00  0.00    +0.049 A 
ATOM      8  C   UNL     1       2.220   3.422   1.306  0.00  0.00    +0.025 A 
ATOM      9  C   UNL     1       2.482   4.774   1.442  0.00  0.00    +0.002 A 
ATOM     10  C   UNL     1       2.128   5.660   0.440  0.00  0.00    +0.002 A 
ATOM     11  C   UNL     1       1.528   5.199  -0.719  0.00  0.00    +0.025 A 
ATOM     12  C   UNL     1       1.286   3.845  -0.866  0.00  0.00    +0.052 A 
ATOM     13  N   UNL     1       0.794   3.302  -2.047  0.00  0.00    -0.316 N 
ATOM     14  C   UNL     1      -2.085   1.080  -1.548  0.00  0.00    +0.163 C 
ATOM     15  O   UNL     1      -2.450   0.209  -0.783  0.00  0.00    -0.292 OA
ATOM     16  C   UNL     1      -2.977   1.460  -2.691  0.00  0.00    +0.088 C 
ATOM     17  H   UNL     1       2.086   0.872  -0.063  0.00  0.00    +0.147 HD
ATOM     18  H   UNL     1       1.444   3.429  -2.925  0.00  0.00    +0.152 HD
ENDROOT
BRANCH   5  19
ATOM     19  C   UNL     1      -0.839   1.670   1.117  0.00  0.00    -0.018 A 
ATOM     20  C   UNL     1      -1.469   0.758   1.944  0.00  0.00    +0.055 A 
ATOM     21  C   UNL     1      -2.140   1.197   3.074  0.00  0.00    +0.163 A 
ATOM     22  C   UNL     1      -2.189   2.556   3.368  0.00  0.00    +0.177 A 
ATOM     23  C   UNL     1      -1.560   3.465   2.532  0.00  0.00    +0.086 A 
ATOM     24  C   UNL     1      -0.886   3.020   1.408  0.00  0.00    +0.029 A 
ATOM     25 CL   UNL     1      -1.619   5.162   2.894  0.00  0.00    -0.080 Cl
BRANCH  22  26
ATOM     26  O   UNL     1      -2.852   2.991   4.473  0.00  0.00    -0.502 OA
ATOM     27  H   UNL     1      -2.889   4.066   4.705  0.00  0.00    +0.292 HD
ENDBRANCH  22  26
BRANCH  21  28
ATOM     28  O   UNL     1      -2.756   0.300   3.892  0.00  0.00    -0.491 OA
ATOM     29  C   UNL     1      -2.664  -1.079   3.528  0.00  0.00    +0.277 C 
ENDBRANCH  21  28
ENDBRANCH   5  19
BRANCH   1  33
ATOM     30  C   UNL     1      -5.039   4.027  -6.462  0.00  0.00    +0.029 A 
ATOM     31  C   UNL     1      -5.208   4.698  -5.258  0.00  0.00    +0.023 A 
ATOM     32  C   UNL     1      -4.454   4.340  -4.158  0.00  0.00    +0.006 A 
ATOM     33  C   UNL     1      -3.531   3.314  -4.254  0.00  0.00    -0.043 A 
ATOM     34  C   UNL     1      -3.357   2.647  -5.453  0.00  0.00    +0.006 A 
ATOM     35  C   UNL     1      -4.111   2.997  -6.556  0.00  0.00    +0.023 A 
BRANCH  30  37
ATOM     36  C   UNL     1      -6.684   5.553  -7.515  0.00  0.00    +0.129 C 
ATOM     37  N   UNL     1      -5.801   4.386  -7.577  0.00  0.00    -0.336 N 
ATOM     38  C   UNL     1      -5.716   3.596  -8.807  0.00  0.00    +0.129 C 
ENDBRANCH  30  37
ENDBRANCH   1  33
TORSDOF 5
