REMARK  Name = ZINC09959724
REMARK  8 active torsions:
REMARK  status: ('A' for Active; 'I' for Inactive)
REMARK    1  A    between atoms: C_1  and  C_2
REMARK    2  A    between atoms: C_3  and  C_7
REMARK    3  A    between atoms: C_10  and  S_13
REMARK    4  A    between atoms: N_11  and  N_12
REMARK    5  A    between atoms: S_13  and  C_14
REMARK    6  A    between atoms: C_14  and  C_16
REMARK    7  A    between atoms: C_14  and  C_17
REMARK    8  A    between atoms: C_29  and  C_33
REMARK                            x       y       z     vdW  Elec       q    Type
REMARK                         _______ _______ _______ _____ _____    ______ ____
ROOT
ATOM      1  C   UNL     1      -2.553   3.944   0.046  0.00  0.00    +0.117 C 
ATOM      2  C   UNL     1      -2.958   4.301  -1.386  0.00  0.00    +0.027 C 
ENDROOT
BRANCH   1   3
ATOM      3  C   UNL     1      -1.220   3.240   0.030  0.00  0.00    +0.124 A 
ATOM      4  N   UNL     1      -1.183   1.883   0.018  0.00  0.00    -0.309 N 
ATOM      5  H   UNL     1      -2.015   1.385   0.019  0.00  0.00    +0.170 HD
ATOM      6  C   UNL     1      -0.015   1.215   0.009  0.00  0.00    +0.260 A 
ATOM      7  O   UNL     1       0.002  -0.004   0.002  0.00  0.00    -0.267 OA
ATOM      8  C   UNL     1       1.210   1.960   0.001  0.00  0.00    +0.075 A 
ATOM      9  C   UNL     1       2.582   1.454  -0.015  0.00  0.00    -0.023 A 
ATOM     10  C   UNL     1       3.572   2.371  -0.019  0.00  0.00    -0.004 A 
ATOM     11  S   UNL     1       2.747   3.939  -0.003  0.00  0.00    -0.073 S 
ATOM     12  C   UNL     1       1.070   3.357   0.010  0.00  0.00    +0.116 A 
ATOM     13  N   UNL     1      -0.122   3.947   0.024  0.00  0.00    -0.225 NA
ATOM     14  C   UNL     1       5.048   2.113  -0.036  0.00  0.00    +0.046 C 
ATOM     15  C   UNL     1       5.279   0.645  -0.423  0.00  0.00    -0.009 C 
ATOM     16  C   UNL     1       4.351  -0.236   0.419  0.00  0.00    +0.008 C 
ATOM     17  C   UNL     1       2.901  -0.038  -0.026  0.00  0.00    +0.037 C 
ATOM     18  C   UNL     1       6.735   0.264  -0.149  0.00  0.00    +0.008 C 
ENDBRANCH   1   3
BRANCH   1  19
ATOM     19  S   UNL     1      -3.802   2.854   0.773  0.00  0.00    -0.074 S 
BRANCH  19  23
ATOM     20  C   UNL     1      -7.168   4.812   1.095  0.00  0.00    +0.185 A 
ATOM     21  N   UNL     1      -6.365   5.703   0.564  0.00  0.00    -0.127 NA
ATOM     22  N   UNL     1      -5.197   5.196   0.394  0.00  0.00    -0.121 NA
ATOM     23  C   UNL     1      -5.181   3.950   0.807  0.00  0.00    +0.209 A 
ATOM     24  N   UNL     1      -6.437   3.659   1.262  0.00  0.00    -0.224 N 
BRANCH  20  27
ATOM     25  C   UNL     1      -8.829   7.443   0.712  0.00  0.00    +0.087 C 
ATOM     26  C   UNL     1      -9.328   6.141   1.284  0.00  0.00    +0.112 A 
ATOM     27  C   UNL     1      -8.592   5.008   1.443  0.00  0.00    +0.061 A 
ATOM     28  C   UNL     1      -9.504   4.022   2.038  0.00  0.00    +0.053 A 
ATOM     29  C   UNL     1     -10.686   4.644   2.174  0.00  0.00    +0.196 A 
ATOM     30  O   UNL     1     -10.573   5.902   1.721  0.00  0.00    -0.467 OA
ENDBRANCH  20  27
BRANCH  24  31
ATOM     31  N   UNL     1      -6.874   2.472   1.779  0.00  0.00    -0.295 N 
ATOM     32  H   UNL     1      -6.742   2.442   2.779  0.00  0.00    +0.163 HD
ATOM     33  H   UNL     1      -7.839   2.305   1.536  0.00  0.00    +0.163 HD
ENDBRANCH  24  31
ENDBRANCH  19  23
ENDBRANCH   1  19
TORSDOF 5
