REMARK  Name = ZINC44658370
REMARK  6 active torsions:
REMARK  status: ('A' for Active; 'I' for Inactive)
REMARK    1  A    between atoms: C_1  and  C_2
REMARK    2  A    between atoms: C_9  and  C_11
REMARK    3  A    between atoms: C_11  and  S_12
REMARK    4  A    between atoms: S_12  and  C_13
REMARK    5  A    between atoms: C_17  and  C_26
REMARK    6  A    between atoms: N_18  and  C_19
REMARK                            x       y       z     vdW  Elec       q    Type
REMARK                         _______ _______ _______ _____ _____    ______ ____
ROOT
ATOM      1  C   UNL     1       0.206  -6.394   2.963  0.00  0.00    +0.241 C 
ATOM      2  N   UNL     1       1.615  -6.736   2.708  0.00  0.00    -0.237 N 
ATOM      3  N   UNL     1       1.607  -7.841   1.848  0.00  0.00    -0.169 NA
ATOM      4  C   UNL     1       0.386  -8.205   1.556  0.00  0.00    +0.151 C 
ATOM      5  N   UNL     1      -0.557  -7.386   2.188  0.00  0.00    -0.254 N 
ATOM      6  H   UNL     1       2.396  -6.284   3.064  0.00  0.00    +0.171 HD
ENDROOT
BRANCH   4   7
ATOM      7  C   UNL     1       0.061  -9.282   0.716  0.00  0.00    +0.022 C 
ATOM      8  C   UNL     1       0.942 -10.198   0.140  0.00  0.00    +0.006 A 
ATOM      9  C   UNL     1       2.345 -10.340   0.202  0.00  0.00    +0.010 A 
ATOM     10  C   UNL     1       2.950 -11.349  -0.475  0.00  0.00    +0.001 A 
ATOM     11  C   UNL     1       2.217 -12.260  -1.240  0.00  0.00    +0.002 A 
ATOM     12  C   UNL     1       0.867 -12.183  -1.344  0.00  0.00    +0.026 A 
ATOM     13  C   UNL     1       0.165 -11.155  -0.663  0.00  0.00    +0.043 A 
ATOM     14  N   UNL     1      -1.121 -10.870  -0.605  0.00  0.00    -0.380 N 
ATOM     15  C   UNL     1      -1.318  -9.696   0.252  0.00  0.00    +0.152 C 
ATOM     16  H   UNL     1      -1.827 -11.361  -1.054  0.00  0.00    +0.160 HD
ENDBRANCH   4   7
BRANCH   5  17
ATOM     17  C   UNL     1      -1.948  -7.487   2.102  0.00  0.00    +0.038 A 
ATOM     18  C   UNL     1      -2.652  -8.232   3.040  0.00  0.00    +0.025 A 
ATOM     19  C   UNL     1      -4.026  -8.330   2.951  0.00  0.00    +0.022 A 
ATOM     20  C   UNL     1      -4.703  -7.688   1.929  0.00  0.00    +0.041 A 
ATOM     21  C   UNL     1      -4.005  -6.946   0.993  0.00  0.00    +0.022 A 
ATOM     22  C   UNL     1      -2.631  -6.838   1.080  0.00  0.00    +0.025 A 
ATOM     23 CL   UNL     1      -6.431  -7.814   1.821  0.00  0.00    -0.084 Cl
ENDBRANCH   5  17
BRANCH   1  24
ATOM     24  S   UNL     1      -0.155  -4.716   2.377  0.00  0.00    -0.108 S 
BRANCH  24  25
ATOM     25  C   UNL     1       0.300  -4.756   0.622  0.00  0.00    +0.168 C 
BRANCH  25  33
ATOM     26  C   UNL     1      -0.971  -0.742  -3.880  0.00  0.00    +0.009 C 
ATOM     27  C   UNL     1      -0.818  -2.078  -3.150  0.00  0.00    +0.003 C 
ATOM     28  C   UNL     1      -0.168  -3.100  -4.085  0.00  0.00    +0.006 C 
ATOM     29  C   UNL     1      -0.044  -4.445  -3.367  0.00  0.00    +0.019 C 
ATOM     30  C   UNL     1       0.850  -4.281  -2.134  0.00  0.00    +0.108 C 
ATOM     31  N   UNL     1       0.311  -3.199  -1.300  0.00  0.00    -0.301 N 
ATOM     32  C   UNL     1       0.068  -1.886  -1.914  0.00  0.00    +0.111 C 
ATOM     33  C   UNL     1       0.045  -3.405   0.005  0.00  0.00    +0.226 C 
ATOM     34  O   UNL     1      -0.400  -2.503   0.683  0.00  0.00    -0.275 OA
ENDBRANCH  25  33
ENDBRANCH  24  25
ENDBRANCH   1  24
TORSDOF 5
