REMARK  Name = ZINC13728159
REMARK  7 active torsions:
REMARK  status: ('A' for Active; 'I' for Inactive)
REMARK    1  A    between atoms: C_1  and  N_52
REMARK    2  A    between atoms: C_2  and  N_52
REMARK    3  A    between atoms: C_3  and  C_4
REMARK    4  A    between atoms: C_3  and  N_52
REMARK    5  A    between atoms: C_4  and  C_5
REMARK    6  A    between atoms: C_5  and  N_6
REMARK    7  A    between atoms: C_20  and  C_22
REMARK                            x       y       z     vdW  Elec       q    Type
REMARK                         _______ _______ _______ _____ _____    ______ ____
ROOT
ATOM      1  N   UNL     1       1.175  -6.098  -0.356  0.00  0.00    -0.313 N 
ATOM      2  C   UNL     1       1.245  -4.723  -0.380  0.00  0.00    +0.219 A 
ATOM      3  N   UNL     1       0.186  -4.020  -0.052  0.00  0.00    -0.207 NA
ATOM      4  C   UNL     1       0.195  -2.692  -0.058  0.00  0.00    +0.116 A 
ATOM      5  C   UNL     1       1.333  -1.956  -0.414  0.00  0.00    +0.055 A 
ATOM      6  C   UNL     1       1.197  -0.493  -0.374  0.00  0.00    -0.024 A 
ATOM      7  C   UNL     1       0.002  -0.004   0.002  0.00  0.00    -0.004 A 
ATOM      8  S   UNL     1      -1.002  -1.437   0.316  0.00  0.00    -0.073 S 
ATOM      9  C   UNL     1      -0.018   1.501   0.010  0.00  0.00    +0.043 C 
ATOM     10  C   UNL     1       1.471   1.909  -0.002  0.00  0.00    +0.010 C 
ATOM     11  C   UNL     1       2.126   0.686  -0.674  0.00  0.00    +0.037 C 
ATOM     12  C   UNL     1       2.515  -2.759  -0.781  0.00  0.00    +0.170 A 
ATOM     13  N   UNL     1       2.415  -4.121  -0.746  0.00  0.00    -0.181 N 
ATOM     14  N   UNL     1       3.670  -4.613  -1.134  0.00  0.00    -0.142 NA
ATOM     15  C   UNL     1       4.436  -3.568  -1.377  0.00  0.00    +0.182 A 
ATOM     16  N   UNL     1       3.737  -2.448  -1.163  0.00  0.00    -0.206 NA
ATOM     17  H   UNL     1       1.951  -6.628  -0.597  0.00  0.00    +0.149 HD
ENDROOT
BRANCH  15  18
ATOM     18  C   UNL     1       5.851  -3.626  -1.818  0.00  0.00    +0.021 A 
ATOM     19  C   UNL     1       6.560  -2.449  -2.050  0.00  0.00    +0.011 A 
ATOM     20  C   UNL     1       7.878  -2.509  -2.455  0.00  0.00    +0.001 A 
ATOM     21  C   UNL     1       8.492  -3.734  -2.642  0.00  0.00    +0.000 A 
ATOM     22  C   UNL     1       7.792  -4.905  -2.419  0.00  0.00    +0.001 A 
ATOM     23  C   UNL     1       6.475  -4.857  -2.008  0.00  0.00    +0.011 A 
ENDBRANCH  15  18
BRANCH   1  24
ATOM     24  C   UNL     1      -0.072  -6.761   0.034  0.00  0.00    +0.102 C 
BRANCH  24  25
ATOM     25  C   UNL     1       0.117  -8.278  -0.023  0.00  0.00    +0.000 C 
BRANCH  25  26
ATOM     26  C   UNL     1      -1.185  -8.970   0.384  0.00  0.00    -0.078 C 
BRANCH  26  29
ATOM     27  C   UNL     1      -2.146 -11.123   0.937  0.00  0.00    -0.097 C 
ATOM     28  C   UNL     1      -0.784 -10.879  -1.050  0.00  0.00    -0.097 C 
ATOM     29  N   UNL     1      -0.980 -10.433   0.345  0.00  0.00    +0.376 N 
ATOM     30  H   UNL     1      -0.142 -10.667   0.891  0.00  0.00    -0.083 HD
ENDBRANCH  26  29
ENDBRANCH  25  26
ENDBRANCH  24  25
ENDBRANCH   1  24
TORSDOF 5
