REMARK  Name = ZINC63137825
REMARK  3 active torsions:
REMARK  status: ('A' for Active; 'I' for Inactive)
REMARK    1  A    between atoms: C_10  and  C_11
REMARK    2  A    between atoms: N_30  and  C_33
REMARK    3  A    between atoms: C_33  and  C_34
REMARK                            x       y       z     vdW  Elec       q    Type
REMARK                         _______ _______ _______ _____ _____    ______ ____
ROOT
ATOM      1  C   UNL     1       4.960   0.161  -0.046  0.00  0.00    +0.134 C 
ATOM      2  C   UNL     1       5.292   0.557  -1.484  0.00  0.00    +0.131 C 
ATOM      3  C   UNL     1       6.752   1.004  -1.467  0.00  0.00    -0.034 C 
ATOM      4  C   UNL     1       6.768   2.272  -1.854  0.00  0.00    -0.001 A 
ATOM      5  C   UNL     1       7.875   3.221  -2.057  0.00  0.00    +0.010 A 
ATOM      6  C   UNL     1       7.527   4.471  -2.463  0.00  0.00    +0.001 A 
ATOM      7  C   UNL     1       6.204   4.867  -2.685  0.00  0.00    +0.002 A 
ATOM      8  C   UNL     1       5.125   4.061  -2.525  0.00  0.00    +0.026 A 
ATOM      9  C   UNL     1       5.364   2.720  -2.102  0.00  0.00    +0.043 A 
ATOM     10  N   UNL     1       4.514   1.736  -1.886  0.00  0.00    -0.375 N 
ATOM     11  C   UNL     1       7.849   0.070  -1.037  0.00  0.00    +0.065 C 
ATOM     12  C   UNL     1       7.399  -0.730   0.158  0.00  0.00    +0.167 C 
ATOM     13  N   UNL     1       6.008  -0.658   0.547  0.00  0.00    -0.279 N 
ATOM     14  C   UNL     1       5.662  -1.420   1.637  0.00  0.00    +0.234 C 
ATOM     15  O   UNL     1       4.514  -1.495   2.020  0.00  0.00    -0.274 OA
ATOM     16  C   UNL     1       6.781  -2.161   2.336  0.00  0.00    +0.204 C 
ATOM     17  N   UNL     1       7.932  -1.250   2.473  0.00  0.00    -0.287 N 
ATOM     18  C   UNL     1       8.276  -0.526   1.368  0.00  0.00    +0.237 C 
ATOM     19  O   UNL     1       9.225   0.229   1.359  0.00  0.00    -0.274 OA
ATOM     20  H   UNL     1       3.549   1.774  -1.970  0.00  0.00    +0.160 HD
ENDROOT
BRANCH   1  30
ATOM     21  C   UNL     1       0.042   1.270   0.836  0.00  0.00    +0.001 A 
ATOM     22  C   UNL     1       1.227   2.003   0.833  0.00  0.00    +0.001 A 
ATOM     23  C   UNL     1       2.418   1.408   0.551  0.00  0.00    +0.009 A 
ATOM     24  C   UNL     1       2.457   0.034   0.259  0.00  0.00    -0.013 A 
ATOM     25  C   UNL     1       1.252  -0.712   0.262  0.00  0.00    -0.018 A 
ATOM     26  C   UNL     1       0.041  -0.062   0.558  0.00  0.00    +0.008 A 
ATOM     27  C   UNL     1       1.291  -2.085  -0.030  0.00  0.00    +0.008 A 
ATOM     28  C   UNL     1       2.483  -2.680  -0.312  0.00  0.00    +0.001 A 
ATOM     29  C   UNL     1       3.668  -1.947  -0.315  0.00  0.00    +0.006 A 
ATOM     30  C   UNL     1       3.668  -0.615  -0.037  0.00  0.00    -0.017 A 
ENDBRANCH   1  30
BRANCH  17  31
ATOM     31  C   UNL     1       8.669  -1.125   3.732  0.00  0.00    +0.143 C 
BRANCH  31  32
ATOM     32  C   UNL     1       9.796  -2.124   3.756  0.00  0.00    -0.030 A 
ATOM     33  C   UNL     1       9.585  -3.392   4.267  0.00  0.00    +0.006 A 
ATOM     34  C   UNL     1      10.619  -4.309   4.289  0.00  0.00    +0.020 A 
ATOM     35  C   UNL     1      11.865  -3.959   3.800  0.00  0.00    +0.041 A 
ATOM     36  C   UNL     1      12.075  -2.691   3.289  0.00  0.00    +0.020 A 
ATOM     37  C   UNL     1      11.040  -1.776   3.262  0.00  0.00    +0.006 A 
ATOM     38 CL   UNL     1      13.163  -5.111   3.828  0.00  0.00    -0.084 Cl
ENDBRANCH  31  32
ENDBRANCH  17  31
TORSDOF 3
