REMARK  Name = ZINC22471816
REMARK  9 active torsions:
REMARK  status: ('A' for Active; 'I' for Inactive)
REMARK    1  A    between atoms: C_1  and  C_2
REMARK    2  A    between atoms: N_5  and  C_8
REMARK    3  A    between atoms: C_8  and  C_9
REMARK    4  A    between atoms: N_14  and  C_15
REMARK    5  A    between atoms: C_15  and  C_17
REMARK    6  A    between atoms: C_20  and  C_23
REMARK    7  A    between atoms: C_23  and  O_24
REMARK    8  A    between atoms: O_24  and  C_25
REMARK    9  A    between atoms: C_25  and  C_26
REMARK                            x       y       z     vdW  Elec       q    Type
REMARK                         _______ _______ _______ _____ _____    ______ ____
ROOT
ATOM      1  C   UNL     1      -0.034  -4.388   2.671  0.00  0.00    +0.008 A 
ATOM      2  C   UNL     1      -0.664  -5.079   3.628  0.00  0.00    +0.067 A 
ATOM      3  S   UNL     1       0.632  -5.312   4.830  0.00  0.00    -0.061 S 
ATOM      4  C   UNL     1       1.874  -4.513   4.024  0.00  0.00    +0.163 A 
ATOM      5  N   UNL     1       1.280  -4.099   2.872  0.00  0.00    -0.341 N 
ATOM      6  N   UNL     1       3.134  -4.334   4.416  0.00  0.00    -0.152 NA
ATOM      7  H   UNL     1       1.783  -3.604   2.207  0.00  0.00    +0.167 HD
ENDROOT
BRANCH   6   8
ATOM      8  C   UNL     1       3.544  -4.821   5.589  0.00  0.00    +0.269 C 
ATOM      9  O   UNL     1       2.765  -5.431   6.302  0.00  0.00    -0.268 OA
BRANCH   8  10
ATOM     10  C   UNL     1       4.945  -4.622   6.025  0.00  0.00    +0.039 A 
ATOM     11  C   UNL     1       5.838  -3.920   5.215  0.00  0.00    +0.013 A 
ATOM     12  C   UNL     1       7.142  -3.737   5.627  0.00  0.00    +0.006 A 
ATOM     13  C   UNL     1       7.565  -4.249   6.840  0.00  0.00    -0.022 A 
ATOM     14  C   UNL     1       6.685  -4.946   7.648  0.00  0.00    +0.006 A 
ATOM     15  C   UNL     1       5.377  -5.130   7.250  0.00  0.00    +0.013 A 
BRANCH  13  16
ATOM     16  C   UNL     1       8.991  -4.047   7.284  0.00  0.00    +0.195 C 
BRANCH  16  17
ATOM     17  O   UNL     1       9.090  -2.833   8.031  0.00  0.00    -0.366 OA
BRANCH  17  18
ATOM     18  C   UNL     1      10.409  -2.546   8.501  0.00  0.00    +0.273 C 
BRANCH  18  19
ATOM     19  C   UNL     1      10.396  -1.231   9.284  0.00  0.00    +0.413 C 
ATOM     20  F   UNL     1       9.527  -1.346  10.374  0.00  0.00    -0.168 F 
ATOM     21  F   UNL     1      11.687  -0.950   9.744  0.00  0.00    -0.168 F 
ATOM     22  F   UNL     1       9.963  -0.196   8.449  0.00  0.00    -0.168 F 
ENDBRANCH  18  19
ENDBRANCH  17  18
ENDBRANCH  16  17
ENDBRANCH  13  16
ENDBRANCH   8  10
ENDBRANCH   6   8
BRANCH   1  23
ATOM     23  C   UNL     1      -0.750  -3.952   1.419  0.00  0.00    -0.024 C 
BRANCH  23  28
ATOM     24  C   UNL     1      -2.194   1.558   1.146  0.00  0.00    +0.007 C 
ATOM     25  C   UNL     1      -2.248   0.029   1.167  0.00  0.00    -0.018 C 
ATOM     26  C   UNL     1      -1.695  -0.484   2.499  0.00  0.00    -0.016 C 
ATOM     27  C   UNL     1      -1.678  -2.014   2.482  0.00  0.00    -0.078 C 
ATOM     28  N   UNL     1      -0.826  -2.485   1.383  0.00  0.00    +0.383 N 
ATOM     29  C   UNL     1      -1.389  -2.057   0.097  0.00  0.00    -0.078 C 
ATOM     30  C   UNL     1      -1.396  -0.528   0.023  0.00  0.00    -0.016 C 
ATOM     31  H   UNL     1       0.100  -2.100   1.489  0.00  0.00    -0.081 HD
ENDBRANCH  23  28
ENDBRANCH   1  23
TORSDOF 8
