REMARK  Name = ZINC06218279
REMARK  7 active torsions:
REMARK  status: ('A' for Active; 'I' for Inactive)
REMARK    1  A    between atoms: C_1  and  C_2
REMARK    2  A    between atoms: C_7  and  N_8
REMARK    3  A    between atoms: C_9  and  C_11
REMARK    4  A    between atoms: C_11  and  C_12
REMARK    5  A    between atoms: N_17  and  N_18
REMARK    6  A    between atoms: C_19  and  C_20
REMARK    7  A    between atoms: C_19  and  C_21
REMARK                            x       y       z     vdW  Elec       q    Type
REMARK                         _______ _______ _______ _____ _____    ______ ____
ROOT
ATOM      1  C   UNL     1      -0.245  -0.948   6.037  0.00  0.00    +0.149 C 
ATOM      2  C   UNL     1      -0.329  -0.235   7.378  0.00  0.00    +0.233 C 
ATOM      3  N   UNL     1      -1.430  -0.453   8.077  0.00  0.00    -0.263 N 
ATOM      4  C   UNL     1      -2.443  -1.273   7.626  0.00  0.00    +0.183 C 
ATOM      5  N   UNL     1      -3.579  -1.566   8.225  0.00  0.00    -0.126 NA
ATOM      6  S   UNL     1      -1.852  -1.844   6.038  0.00  0.00    -0.075 S 
ATOM      7  O   UNL     1       0.557   0.487   7.781  0.00  0.00    -0.274 OA
ATOM      8  H   UNL     1      -1.529  -0.020   8.939  0.00  0.00    +0.157 HD
ENDROOT
BRANCH   5   9
ATOM      9  N   UNL     1      -4.422  -2.359   7.655  0.00  0.00    -0.152 NA
ATOM     10  C   UNL     1      -5.548  -2.650   8.249  0.00  0.00    +0.068 C 
ATOM     11  C   UNL     1      -5.862  -2.060   9.600  0.00  0.00    +0.068 C 
BRANCH  10  12
ATOM     12  C   UNL     1      -6.510  -3.554   7.599  0.00  0.00    -0.002 A 
ATOM     13  C   UNL     1      -7.720  -3.863   8.229  0.00  0.00    +0.010 A 
ATOM     14  C   UNL     1      -8.616  -4.711   7.613  0.00  0.00    +0.001 A 
ATOM     15  C   UNL     1      -8.322  -5.255   6.375  0.00  0.00    +0.000 A 
ATOM     16  C   UNL     1      -7.127  -4.953   5.745  0.00  0.00    +0.001 A 
ATOM     17  C   UNL     1      -6.223  -4.102   6.345  0.00  0.00    +0.010 A 
ENDBRANCH  10  12
ENDBRANCH   5   9
BRANCH   1  18
ATOM     18  C   UNL     1      -0.168   0.052   4.882  0.00  0.00    +0.120 C 
BRANCH  18  20
ATOM     19  N   UNL     1       0.025  -0.015   2.417  0.00  0.00    -0.285 N 
ATOM     20  C   UNL     1      -0.056  -0.694   3.578  0.00  0.00    +0.219 C 
ATOM     21  O   UNL     1      -0.040  -1.907   3.573  0.00  0.00    -0.275 OA
ATOM     22  H   UNL     1       0.078   0.954   2.425  0.00  0.00    +0.155 HD
BRANCH  19  29
ATOM     23  C   UNL     1      -1.264   1.184   0.181  0.00  0.00    +0.045 C 
ATOM     24  C   UNL     1      -0.584  -0.158   0.084  0.00  0.00    -0.029 A 
ATOM     25  C   UNL     1      -0.568  -0.840  -1.117  0.00  0.00    +0.005 A 
ATOM     26  C   UNL     1       0.055  -2.071  -1.206  0.00  0.00    +0.000 A 
ATOM     27  C   UNL     1       0.666  -2.622  -0.095  0.00  0.00    +0.002 A 
ATOM     28  C   UNL     1       0.655  -1.945   1.108  0.00  0.00    +0.023 A 
ATOM     29  C   UNL     1       0.034  -0.706   1.201  0.00  0.00    +0.036 A 
ENDBRANCH  19  29
ENDBRANCH  18  20
ENDBRANCH   1  18
TORSDOF 5
