REMARK  Name = ZINC08901044
REMARK  17 active torsions:
REMARK  status: ('A' for Active; 'I' for Inactive)
REMARK    1  A    between atoms: C_1  and  C_2
REMARK    2  A    between atoms: C_2  and  N_71
REMARK    3  A    between atoms: C_3  and  C_4
REMARK    4  A    between atoms: C_3  and  N_71
REMARK    5  A    between atoms: C_5  and  C_6
REMARK    6  A    between atoms: C_5  and  N_71
REMARK    7  A    between atoms: C_6  and  C_7
REMARK    8  A    between atoms: C_7  and  N_8
REMARK    9  A    between atoms: C_9  and  C_25
REMARK   10  A    between atoms: C_12  and  C_13
REMARK   11  A    between atoms: C_12  and  O_20
REMARK   12  A    between atoms: C_28  and  O_34
REMARK   13  A    between atoms: C_29  and  O_31
REMARK   14  A    between atoms: O_31  and  C_32
REMARK   15  A    between atoms: C_32  and  C_33
REMARK   16  A    between atoms: O_34  and  C_35
REMARK   17  A    between atoms: C_35  and  C_36
REMARK                            x       y       z     vdW  Elec       q    Type
REMARK                         _______ _______ _______ _____ _____    ______ ____
ROOT
ATOM      1  N   UNL     1       0.172   2.659   2.719  0.00  0.00    -0.284 N 
ATOM      2  C   UNL     1       0.208   1.339   3.355  0.00  0.00    +0.145 C 
ATOM      3  C   UNL     1       1.227   1.423   4.468  0.00  0.00    +0.071 C 
ATOM      4  C   UNL     1       1.595   0.412   5.333  0.00  0.00    +0.133 C 
ATOM      5  C   UNL     1       1.720   2.737   4.448  0.00  0.00    +0.249 C 
ATOM      6  O   UNL     1       2.559   3.197   5.201  0.00  0.00    -0.282 OA
ATOM      7  C   UNL     1       1.039   3.471   3.347  0.00  0.00    +0.288 C 
ATOM      8  O   UNL     1       1.238   4.634   3.059  0.00  0.00    -0.266 OA
ENDROOT
BRANCH   4   9
ATOM      9  C   UNL     1       2.706   0.620   6.278  0.00  0.00    +0.017 A 
ATOM     10  C   UNL     1       3.941   1.090   5.818  0.00  0.00    +0.014 A 
ATOM     11  C   UNL     1       4.974   1.287   6.707  0.00  0.00    +0.039 A 
ATOM     12  C   UNL     1       4.796   1.010   8.055  0.00  0.00    +0.123 A 
ATOM     13  C   UNL     1       3.575   0.539   8.517  0.00  0.00    +0.039 A 
ATOM     14  C   UNL     1       2.533   0.343   7.638  0.00  0.00    +0.014 A 
ATOM     15  F   UNL     1       5.814   1.201   8.921  0.00  0.00    -0.205 F 
ENDBRANCH   4   9
BRANCH   2  16
ATOM     16  C   UNL     1       0.628   0.295   2.353  0.00  0.00    -0.019 A 
ATOM     17  C   UNL     1       1.627   0.578   1.439  0.00  0.00    +0.009 A 
ATOM     18  C   UNL     1       2.016  -0.377   0.519  0.00  0.00    +0.050 A 
ATOM     19  C   UNL     1       1.405  -1.620   0.509  0.00  0.00    +0.162 A 
ATOM     20  C   UNL     1       0.400  -1.905   1.429  0.00  0.00    +0.162 A 
ATOM     21  C   UNL     1       0.018  -0.945   2.353  0.00  0.00    +0.055 A 
BRANCH  20  22
ATOM     22  O   UNL     1      -0.202  -3.124   1.424  0.00  0.00    -0.489 OA
BRANCH  22  23
ATOM     23  C   UNL     1      -1.226  -3.346   2.396  0.00  0.00    +0.226 C 
ATOM     24  C   UNL     1      -1.782  -4.762   2.237  0.00  0.00    +0.048 C 
ENDBRANCH  22  23
ENDBRANCH  20  22
BRANCH  19  25
ATOM     25  O   UNL     1       1.788  -2.561  -0.395  0.00  0.00    -0.489 OA
BRANCH  25  26
ATOM     26  C   UNL     1       2.826  -2.199  -1.308  0.00  0.00    +0.226 C 
ATOM     27  C   UNL     1       3.118  -3.375  -2.242  0.00  0.00    +0.048 C 
ENDBRANCH  25  26
ENDBRANCH  19  25
ENDBRANCH   2  16
BRANCH   4  28
ATOM     28  O   UNL     1       0.937  -0.766   5.314  0.00  0.00    -0.506 OA
ATOM     29  H   UNL     1       1.331  -1.379   5.999  0.00  0.00    +0.292 HD
ENDBRANCH   4  28
BRANCH   1  30
ATOM     30  C   UNL     1      -0.678   3.035   1.586  0.00  0.00    +0.107 C 
BRANCH  30  31
ATOM     31  C   UNL     1       0.067   2.760   0.278  0.00  0.00    +0.000 C 
BRANCH  31  32
ATOM     32  C   UNL     1      -0.820   3.152  -0.905  0.00  0.00    -0.077 C 
BRANCH  32  33
ATOM     33  N   UNL     1      -0.079   2.902  -2.160  0.00  0.00    +0.379 N 
ATOM     34  H   UNL     1       0.840   3.356  -2.101  0.00  0.00    -0.082 HD
BRANCH  33  36
ATOM     35  C   UNL     1      -1.237   0.737  -2.454  0.00  0.00    -0.017 C 
ATOM     36  C   UNL     1       0.114   1.449  -2.351  0.00  0.00    -0.082 C 
ENDBRANCH  33  36
BRANCH  33  37
ATOM     37  C   UNL     1      -0.822   3.468  -3.306  0.00  0.00    -0.082 C 
ATOM     38  C   UNL     1       0.099   3.483  -4.529  0.00  0.00    -0.017 C 
ENDBRANCH  33  37
ENDBRANCH  32  33
ENDBRANCH  31  32
ENDBRANCH  30  31
ENDBRANCH   1  30
TORSDOF 13
