REMARK  Name = ZINC10065727
REMARK  15 active torsions:
REMARK  status: ('A' for Active; 'I' for Inactive)
REMARK    1  A    between atoms: C_1  and  C_2
REMARK    2  A    between atoms: C_2  and  C_3
REMARK    3  A    between atoms: C_3  and  C_4
REMARK    4  A    between atoms: C_4  and  N_5
REMARK    5  A    between atoms: N_5  and  C_6
REMARK    6  A    between atoms: N_5  and  S_7
REMARK    7  A    between atoms: S_7  and  C_10
REMARK    8  A    between atoms: C_13  and  C_16
REMARK    9  A    between atoms: N_18  and  C_19
REMARK   10  A    between atoms: C_19  and  C_20
REMARK   11  A    between atoms: C_20  and  N_68
REMARK   12  A    between atoms: C_21  and  N_68
REMARK   13  A    between atoms: C_22  and  N_68
REMARK   14  A    between atoms: C_28  and  C_32
REMARK   15  A    between atoms: C_32  and  C_33
REMARK                            x       y       z     vdW  Elec       q    Type
REMARK                         _______ _______ _______ _____ _____    ______ ____
ROOT
ATOM      1  C   UNL     1      -3.015   3.002   4.958  0.00  0.00    +0.252 C 
ATOM      2  O   UNL     1      -3.907   2.277   5.353  0.00  0.00    -0.270 OA
ATOM      3  N   UNL     1      -2.871   4.237   5.477  0.00  0.00    -0.248 N 
ATOM      4  C   UNL     1      -3.648   4.631   6.553  0.00  0.00    +0.168 A 
ATOM      5  N   UNL     1      -3.654   5.780   7.188  0.00  0.00    -0.224 NA
ATOM      6  C   UNL     1      -4.475   6.029   8.231  0.00  0.00    +0.080 A 
ATOM      7  C   UNL     1      -4.580   7.213   8.996  0.00  0.00    +0.029 A 
ATOM      8  C   UNL     1      -5.473   7.301  10.032  0.00  0.00    +0.006 A 
ATOM      9  C   UNL     1      -6.303   6.240  10.366  0.00  0.00    -0.046 A 
ATOM     10  C   UNL     1      -6.227   5.066   9.638  0.00  0.00    +0.021 A 
ATOM     11  C   UNL     1      -5.335   4.969   8.599  0.00  0.00    +0.041 A 
ATOM     12  S   UNL     1      -4.907   3.708   7.424  0.00  0.00    -0.052 S 
ENDROOT
BRANCH   1  16
ATOM     13  C   UNL     1      -0.349   1.641   1.944  0.00  0.00    +0.106 A 
ATOM     14  C   UNL     1      -0.678   2.983   2.019  0.00  0.00    +0.029 A 
ATOM     15  C   UNL     1      -1.547   3.430   2.992  0.00  0.00    +0.015 A 
ATOM     16  C   UNL     1      -2.087   2.528   3.909  0.00  0.00    +0.037 A 
ATOM     17  C   UNL     1      -1.748   1.176   3.832  0.00  0.00    +0.015 A 
ATOM     18  C   UNL     1      -0.881   0.741   2.851  0.00  0.00    +0.029 A 
BRANCH  13  19
ATOM     19  S   UNL     1       0.757   1.076   0.694  0.00  0.00    +0.061 S 
ATOM     20  O   UNL     1       1.334  -0.129   1.177  0.00  0.00    -0.153 OA
ATOM     21  O   UNL     1       1.541   2.197   0.310  0.00  0.00    -0.153 OA
BRANCH  19  22
ATOM     22  N   UNL     1      -0.161   0.667  -0.622  0.00  0.00    -0.180 NA
ATOM     23  C   UNL     1      -0.461   1.670  -1.647  0.00  0.00    +0.131 C 
BRANCH  22  24
ATOM     24  C   UNL     1      -0.672  -0.699  -0.763  0.00  0.00    +0.109 C 
BRANCH  24  25
ATOM     25  C   UNL     1      -2.095  -0.771  -0.207  0.00  0.00    +0.017 C 
BRANCH  25  27
ATOM     26  C   UNL     1      -4.053  -2.269   0.202  0.00  0.00    +0.004 C 
ATOM     27  C   UNL     1      -2.629  -2.197  -0.354  0.00  0.00    -0.002 C 
ENDBRANCH  25  27
ENDBRANCH  24  25
ENDBRANCH  22  24
ENDBRANCH  19  22
ENDBRANCH  13  19
ENDBRANCH   1  16
BRANCH   9  28
ATOM     28  C   UNL     1      -7.276   6.365  11.509  0.00  0.00    +0.032 C 
ATOM     29  C   UNL     1      -6.603   5.909  12.805  0.00  0.00    +0.009 C 
ENDBRANCH   9  28
BRANCH   3  30
ATOM     30  C   UNL     1      -1.891   5.163   4.904  0.00  0.00    +0.097 C 
BRANCH  30  31
ATOM     31  C   UNL     1      -2.613   6.195   4.035  0.00  0.00    -0.060 C 
BRANCH  31  34
ATOM     32  C   UNL     1      -0.761   6.605   2.530  0.00  0.00    -0.097 C 
ATOM     33  C   UNL     1      -2.330   8.380   3.031  0.00  0.00    -0.097 C 
ATOM     34  N   UNL     1      -1.629   7.196   3.570  0.00  0.00    +0.377 N 
ATOM     35  H   UNL     1      -1.047   7.486   4.365  0.00  0.00    -0.083 HD
ENDBRANCH  31  34
ENDBRANCH  30  31
ENDBRANCH   3  30
TORSDOF 10
