REMARK  Name = ZINC04045878
REMARK  2 active torsions:
REMARK  status: ('A' for Active; 'I' for Inactive)
REMARK    1  A    between atoms: C_5  and  C_7
REMARK    2  A    between atoms: N_8  and  N_9
REMARK                            x       y       z     vdW  Elec       q    Type
REMARK                         _______ _______ _______ _____ _____    ______ ____
ROOT
ATOM      1  N   UNL     1       3.596   5.955   0.001  0.00  0.00    -0.183 N 
ATOM      2  C   UNL     1       4.843   5.208  -0.009  0.00  0.00    +0.230 C 
ATOM      3  C   UNL     1       6.034   6.107  -0.089  0.00  0.00    +0.236 C 
ATOM      4  O   UNL     1       7.131   5.590  -0.128  0.00  0.00    -0.274 OA
ATOM      5  N   UNL     1       5.973   7.440  -0.117  0.00  0.00    -0.282 N 
ATOM      6  C   UNL     1       7.223   8.212  -0.285  0.00  0.00    +0.162 C 
ATOM      7  C   UNL     1       7.188   9.352   0.708  0.00  0.00    +0.038 A 
ATOM      8  C   UNL     1       6.085   9.701   1.404  0.00  0.00    -0.015 A 
ATOM      9  C   UNL     1       6.450  10.829   2.238  0.00  0.00    +0.003 A 
ATOM     10  C   UNL     1       5.731  11.600   3.156  0.00  0.00    +0.010 A 
ATOM     11  C   UNL     1       6.412  12.616   3.781  0.00  0.00    +0.001 A 
ATOM     12  C   UNL     1       7.747  12.875   3.521  0.00  0.00    +0.002 A 
ATOM     13  C   UNL     1       8.483  12.127   2.618  0.00  0.00    +0.026 A 
ATOM     14  C   UNL     1       7.818  11.089   1.969  0.00  0.00    +0.047 A 
ATOM     15  N   UNL     1       8.230  10.176   1.041  0.00  0.00    -0.356 N 
ATOM     16  H   UNL     1       9.126  10.120   0.673  0.00  0.00    +0.166 HD
ATOM     17  C   UNL     1       4.750   9.011   1.299  0.00  0.00    +0.069 C 
ATOM     18  C   UNL     1       4.721   8.185   0.005  0.00  0.00    +0.169 C 
ATOM     19  C   UNL     1       3.529   7.285   0.008  0.00  0.00    +0.256 C 
ATOM     20  O   UNL     1       2.429   7.798   0.019  0.00  0.00    -0.272 OA
ENDROOT
BRANCH   1  22
ATOM     21  C   UNL     1       2.417   3.936   0.001  0.00  0.00    +0.140 C 
ATOM     22  N   UNL     1       2.395   5.233   0.008  0.00  0.00    -0.184 NA
BRANCH  21  27
ATOM     23  C   UNL     1      -0.013   1.076   0.008  0.00  0.00    +0.001 A 
ATOM     24  C   UNL     1      -1.222   1.750   0.017  0.00  0.00    +0.001 A 
ATOM     25  C   UNL     1      -1.250   3.132   0.031  0.00  0.00    +0.020 A 
ATOM     26  C   UNL     1      -0.071   3.851   0.023  0.00  0.00    +0.050 A 
ATOM     27  C   UNL     1       1.153   3.176   0.008  0.00  0.00    +0.013 A 
ATOM     28  C   UNL     1       1.173   1.780   0.000  0.00  0.00    +0.011 A 
ATOM     29 CL   UNL     1      -0.109   5.586   0.033  0.00  0.00    -0.083 Cl
ENDBRANCH  21  27
ENDBRANCH   1  22
TORSDOF 2
