REMARK  Name = ZINC15946883
REMARK  7 active torsions:
REMARK  status: ('A' for Active; 'I' for Inactive)
REMARK    1  A    between atoms: C_1  and  C_2
REMARK    2  A    between atoms: C_9  and  N_21
REMARK    3  A    between atoms: C_10  and  C_11
REMARK    4  A    between atoms: N_13  and  C_14
REMARK    5  A    between atoms: C_22  and  C_24
REMARK    6  A    between atoms: C_24  and  N_25
REMARK    7  A    between atoms: C_28  and  C_31
REMARK                            x       y       z     vdW  Elec       q    Type
REMARK                         _______ _______ _______ _____ _____    ______ ____
ROOT
ATOM      1  C   UNL     1       0.003   1.515   0.065  0.00  0.00    +0.008 C 
ATOM      2  C   UNL     1       0.019  -0.015   0.045  0.00  0.00    -0.009 C 
ATOM      3  C   UNL     1       0.738  -0.503  -1.216  0.00  0.00    +0.008 C 
ATOM      4  C   UNL     1       0.547  -2.014  -1.372  0.00  0.00    +0.037 C 
ATOM      5  C   UNL     1       0.945  -2.693  -0.070  0.00  0.00    -0.023 A 
ATOM      6  C   UNL     1       1.032  -1.999   1.086  0.00  0.00    -0.004 A 
ATOM      7  S   UNL     1       1.518  -3.197   2.293  0.00  0.00    -0.077 S 
ATOM      8  C   UNL     1       1.605  -4.564   1.322  0.00  0.00    +0.084 A 
ATOM      9  C   UNL     1       1.260  -4.105   0.060  0.00  0.00    +0.069 A 
ATOM     10  C   UNL     1       0.767  -0.537   1.281  0.00  0.00    +0.046 C 
ENDROOT
BRANCH   9  11
ATOM     11  C   UNL     1       1.214  -5.007  -1.095  0.00  0.00    +0.251 C 
ATOM     12  O   UNL     1       2.209  -5.174  -1.776  0.00  0.00    -0.270 OA
ATOM     13  N   UNL     1       0.071  -5.651  -1.402  0.00  0.00    -0.279 N 
ATOM     14  H   UNL     1      -0.703  -5.569  -0.823  0.00  0.00    +0.155 HD
BRANCH  13  15
ATOM     15  C   UNL     1       0.000  -6.439  -2.557  0.00  0.00    +0.069 A 
ATOM     16  C   UNL     1       1.114  -7.149  -2.985  0.00  0.00    +0.026 A 
ATOM     17  C   UNL     1       1.041  -7.926  -4.125  0.00  0.00    +0.002 A 
ATOM     18  C   UNL     1      -0.139  -7.997  -4.841  0.00  0.00    +0.003 A 
ATOM     19  C   UNL     1      -1.251  -7.291  -4.420  0.00  0.00    +0.040 A 
ATOM     20  C   UNL     1      -1.187  -6.516  -3.276  0.00  0.00    +0.144 A 
ATOM     21  F   UNL     1      -2.276  -5.831  -2.862  0.00  0.00    -0.204 F 
ENDBRANCH  13  15
ENDBRANCH   9  11
BRANCH   8  22
ATOM     22  N   UNL     1       1.944  -5.855   1.696  0.00  0.00    -0.281 N 
ATOM     23  C   UNL     1       2.255  -6.125   2.979  0.00  0.00    +0.201 C 
ATOM     24  O   UNL     1       2.238  -5.239   3.807  0.00  0.00    -0.278 OA
ATOM     25  H   UNL     1       1.957  -6.564   1.034  0.00  0.00    +0.155 HD
BRANCH  23  26
ATOM     26  C   UNL     1       2.623  -7.529   3.386  0.00  0.00    +0.019 C 
BRANCH  26  27
ATOM     27  N   UNL     1       2.916  -7.561   4.825  0.00  0.00    +0.385 N 
ATOM     28  C   UNL     1       1.698  -7.237   5.578  0.00  0.00    -0.078 C 
ATOM     29  C   UNL     1       2.017  -7.189   7.074  0.00  0.00    -0.016 C 
ATOM     30  C   UNL     1       2.547  -8.555   7.521  0.00  0.00    -0.018 C 
ATOM     31  C   UNL     1       3.773  -8.916   6.678  0.00  0.00    -0.016 C 
ATOM     32  C   UNL     1       3.390  -8.900   5.197  0.00  0.00    -0.078 C 
ATOM     33  C   UNL     1       2.942  -8.491   8.998  0.00  0.00    +0.007 C 
ATOM     34  H   UNL     1       3.631  -6.881   5.037  0.00  0.00    -0.081 HD
ENDBRANCH  26  27
ENDBRANCH  23  26
ENDBRANCH   8  22
TORSDOF 5
