REMARK  Name = ZINC40325201
REMARK  9 active torsions:
REMARK  status: ('A' for Active; 'I' for Inactive)
REMARK    1  A    between atoms: C_1  and  C_2
REMARK    2  A    between atoms: C_2  and  S_3
REMARK    3  A    between atoms: S_3  and  C_6
REMARK    4  A    between atoms: C_9  and  C_12
REMARK    5  A    between atoms: C_14  and  C_17
REMARK    6  A    between atoms: N_19  and  C_20
REMARK    7  A    between atoms: C_20  and  C_21
REMARK    8  A    between atoms: C_21  and  C_23
REMARK    9  A    between atoms: C_21  and  N_28
REMARK                            x       y       z     vdW  Elec       q    Type
REMARK                         _______ _______ _______ _____ _____    ______ ____
ROOT
ATOM      1  C   UNL     1      -1.113  -9.981   1.480  0.00  0.00    +0.266 C 
ATOM      2  O   UNL     1      -1.340  -9.889   2.670  0.00  0.00    -0.268 OA
ATOM      3  N   UNL     1      -0.840 -11.184   0.936  0.00  0.00    -0.311 N 
ATOM      4  H   UNL     1      -0.658 -11.257  -0.013  0.00  0.00    +0.149 HD
ENDROOT
BRANCH   1   7
ATOM      5  C   UNL     1      -1.329  -6.632  -0.024  0.00  0.00    +0.168 A 
ATOM      6  C   UNL     1      -1.405  -7.452   1.058  0.00  0.00    +0.086 A 
ATOM      7  C   UNL     1      -1.135  -8.769   0.625  0.00  0.00    +0.168 A 
ATOM      8  N   UNL     1      -0.907  -8.732  -0.667  0.00  0.00    -0.073 NA
ATOM      9  O   UNL     1      -1.031  -7.388  -1.097  0.00  0.00    -0.354 OA
BRANCH   5  13
ATOM     10  C   UNL     1      -1.944  -2.429  -0.021  0.00  0.00    +0.088 A 
ATOM     11  C   UNL     1      -1.641  -3.080  -1.204  0.00  0.00    +0.027 A 
ATOM     12  C   UNL     1      -1.440  -4.445  -1.211  0.00  0.00    +0.013 A 
ATOM     13  C   UNL     1      -1.543  -5.169  -0.023  0.00  0.00    +0.020 A 
ATOM     14  C   UNL     1      -1.849  -4.507   1.167  0.00  0.00    +0.013 A 
ATOM     15  C   UNL     1      -2.043  -3.141   1.162  0.00  0.00    +0.027 A 
BRANCH  10  16
ATOM     16  S   UNL     1      -2.200  -0.686  -0.020  0.00  0.00    -0.003 S 
ATOM     17  O   UNL     1      -3.044  -0.444   1.097  0.00  0.00    -0.169 OA
ATOM     18  O   UNL     1      -2.637  -0.383  -1.338  0.00  0.00    -0.169 OA
BRANCH  16  20
ATOM     19  C   UNL     1      -0.659   1.552   0.294  0.00  0.00    +0.028 C 
ATOM     20  C   UNL     1      -0.557   0.025   0.273  0.00  0.00    +0.168 C 
ENDBRANCH  16  20
ENDBRANCH  10  16
ENDBRANCH   5  13
ENDBRANCH   1   7
BRANCH   3  21
ATOM     21  C   UNL     1      -0.818 -12.381   1.781  0.00  0.00    +0.094 C 
BRANCH  21  22
ATOM     22  C   UNL     1      -0.614 -13.619   0.905  0.00  0.00    -0.013 C 
BRANCH  22  23
ATOM     23  N   UNL     1      -0.503 -14.809   1.758  0.00  0.00    +0.386 N 
ATOM     24  C   UNL     1       0.685 -14.689   2.611  0.00  0.00    -0.078 C 
ATOM     25  C   UNL     1       0.761 -15.888   3.559  0.00  0.00    -0.019 C 
ATOM     26  C   UNL     1       0.849 -17.177   2.737  0.00  0.00    -0.004 C 
ATOM     27  C   UNL     1      -0.358 -17.255   1.798  0.00  0.00    -0.019 C 
ATOM     28  C   UNL     1      -0.392 -16.005   0.915  0.00  0.00    -0.078 C 
ATOM     29  H   UNL     1      -1.325 -14.883   2.339  0.00  0.00    -0.081 HD
ENDBRANCH  22  23
BRANCH  22  30
ATOM     30  C   UNL     1      -1.790 -13.775  -0.025  0.00  0.00    -0.022 A 
ATOM     31  C   UNL     1      -1.893 -13.437  -1.334  0.00  0.00    +0.009 A 
ATOM     32  C   UNL     1      -3.083 -13.676  -1.995  0.00  0.00    +0.008 A 
ATOM     33  C   UNL     1      -4.111 -14.241  -1.316  0.00  0.00    +0.045 A 
ATOM     34  S   UNL     1      -3.404 -14.460   0.309  0.00  0.00    -0.103 S 
ENDBRANCH  22  30
ENDBRANCH  21  22
ENDBRANCH   3  21
TORSDOF 8
