REMARK  Name = ZINC40095050
REMARK  13 active torsions:
REMARK  status: ('A' for Active; 'I' for Inactive)
REMARK    1  A    between atoms: C_1  and  C_2
REMARK    2  A    between atoms: C_7  and  C_12
REMARK    3  A    between atoms: C_12  and  C_14
REMARK    4  A    between atoms: N_18  and  C_31
REMARK    5  A    between atoms: C_19  and  C_21
REMARK    6  A    between atoms: C_25  and  O_27
REMARK    7  A    between atoms: O_27  and  C_28
REMARK    8  A    between atoms: C_28  and  C_29
REMARK    9  A    between atoms: C_31  and  C_32
REMARK   10  A    between atoms: C_32  and  O_33
REMARK   11  A    between atoms: O_33  and  C_34
REMARK   12  A    between atoms: C_34  and  C_35
REMARK   13  A    between atoms: C_35  and  O_36
REMARK                            x       y       z     vdW  Elec       q    Type
REMARK                         _______ _______ _______ _____ _____    ______ ____
ROOT
ATOM      1  C   UNL     1      -1.372  -6.763   3.038  0.00  0.00    +0.076 C 
ATOM      2  C   UNL     1      -1.707  -8.038   3.344  0.00  0.00    +0.249 C 
ATOM      3  C   UNL     1      -0.949  -8.466   4.538  0.00  0.00    +0.288 C 
ATOM      4  O   UNL     1      -1.030  -9.561   5.060  0.00  0.00    -0.266 OA
ATOM      5  N   UNL     1      -0.157  -7.465   4.963  0.00  0.00    -0.281 N 
ATOM      6  C   UNL     1      -0.349  -6.324   4.060  0.00  0.00    +0.145 C 
ATOM      7  O   UNL     1      -2.595  -8.800   2.664  0.00  0.00    -0.282 OA
ENDROOT
BRANCH   6   8
ATOM      8  C   UNL     1       0.948  -5.974   3.377  0.00  0.00    -0.019 A 
ATOM      9  C   UNL     1       1.791  -6.979   2.939  0.00  0.00    +0.006 A 
ATOM     10  C   UNL     1       2.981  -6.662   2.313  0.00  0.00    +0.004 A 
ATOM     11  C   UNL     1       3.332  -5.339   2.123  0.00  0.00    +0.045 A 
ATOM     12  C   UNL     1       2.488  -4.329   2.562  0.00  0.00    +0.121 A 
ATOM     13  C   UNL     1       1.291  -4.650   3.185  0.00  0.00    +0.051 A 
BRANCH  12  14
ATOM     14  O   UNL     1       2.831  -3.027   2.376  0.00  0.00    -0.488 OA
BRANCH  14  15
ATOM     15  C   UNL     1       4.075  -2.771   1.722  0.00  0.00    +0.256 C 
BRANCH  15  16
ATOM     16  C   UNL     1       4.285  -1.283   1.606  0.00  0.00    +0.006 C 
ATOM     17  C   UNL     1       5.450  -0.760   1.898  0.00  0.00    +0.007 C 
ENDBRANCH  15  16
ENDBRANCH  14  15
ENDBRANCH  12  14
ENDBRANCH   6   8
BRANCH   1  18
ATOM     18  C   UNL     1      -1.896  -5.964   1.926  0.00  0.00    +0.195 C 
ATOM     19  O   UNL     1      -1.647  -6.282   0.778  0.00  0.00    -0.287 OA
BRANCH  18  25
ATOM     20  C   UNL     1      -6.156   0.038   1.108  0.00  0.00    +0.052 C 
ATOM     21  C   UNL     1      -4.865  -0.663   1.536  0.00  0.00    +0.175 C 
ATOM     22  C   UNL     1      -4.470  -1.755   0.514  0.00  0.00    +0.083 C 
ATOM     23  C   UNL     1      -3.897  -2.833   1.415  0.00  0.00    -0.002 A 
ATOM     24  C   UNL     1      -3.126  -3.937   1.151  0.00  0.00    +0.019 A 
ATOM     25  C   UNL     1      -2.726  -4.774   2.199  0.00  0.00    +0.023 A 
ATOM     26  C   UNL     1      -3.119  -4.473   3.507  0.00  0.00    +0.015 A 
ATOM     27  C   UNL     1      -3.894  -3.367   3.759  0.00  0.00    +0.046 A 
ATOM     28  C   UNL     1      -4.298  -2.533   2.714  0.00  0.00    +0.124 A 
ATOM     29  O   UNL     1      -5.069  -1.411   2.746  0.00  0.00    -0.488 OA
ENDBRANCH  18  25
ENDBRANCH   1  18
BRANCH   5  30
ATOM     30  C   UNL     1       0.743  -7.508   6.118  0.00  0.00    +0.137 C 
BRANCH  30  31
ATOM     31  C   UNL     1      -0.015  -7.071   7.372  0.00  0.00    +0.179 C 
BRANCH  31  32
ATOM     32  O   UNL     1      -1.039  -8.024   7.666  0.00  0.00    -0.376 OA
BRANCH  32  33
ATOM     33  C   UNL     1      -1.881  -7.653   8.760  0.00  0.00    +0.187 C 
BRANCH  33  34
ATOM     34  C   UNL     1      -2.856  -8.793   9.062  0.00  0.00    +0.184 C 
BRANCH  34  35
ATOM     35  O   UNL     1      -2.128  -9.934   9.520  0.00  0.00    -0.393 OA
ATOM     36  H   UNL     1      -2.685 -10.697   9.730  0.00  0.00    +0.209 HD
ENDBRANCH  34  35
ENDBRANCH  33  34
ENDBRANCH  32  33
ENDBRANCH  31  32
ENDBRANCH  30  31
ENDBRANCH   5  30
TORSDOF 12
