REMARK  Name = ZINC39879512
REMARK  13 active torsions:
REMARK  status: ('A' for Active; 'I' for Inactive)
REMARK    1  A    between atoms: C_1  and  C_2
REMARK    2  A    between atoms: N_15  and  C_32
REMARK    3  A    between atoms: C_16  and  C_18
REMARK    4  A    between atoms: C_21  and  O_26
REMARK    5  A    between atoms: C_22  and  O_24
REMARK    6  A    between atoms: O_24  and  C_25
REMARK    7  A    between atoms: O_26  and  C_27
REMARK    8  A    between atoms: C_27  and  C_28
REMARK    9  A    between atoms: C_28  and  C_29
REMARK   10  A    between atoms: C_29  and  C_30
REMARK   11  A    between atoms: C_29  and  C_31
REMARK   12  A    between atoms: C_35  and  C_39
REMARK   13  A    between atoms: C_36  and  C_38
REMARK                            x       y       z     vdW  Elec       q    Type
REMARK                         _______ _______ _______ _____ _____    ______ ____
ROOT
ATOM      1  C   UNL     1      -0.018   1.503   0.010  0.00  0.00    +0.044 C 
ATOM      2  C   UNL     1       0.002  -0.004   0.002  0.00  0.00    -0.050 A 
ATOM      3  C   UNL     1       0.006  -0.689  -1.205  0.00  0.00    +0.007 A 
ATOM      4  C   UNL     1       0.021  -2.065  -1.235  0.00  0.00    +0.047 A 
ATOM      5  C   UNL     1       0.034  -2.790  -0.043  0.00  0.00    +0.139 A 
ATOM      6  C   UNL     1       0.036  -2.086   1.172  0.00  0.00    +0.065 A 
ATOM      7  C   UNL     1       0.023  -0.692   1.183  0.00  0.00    +0.018 A 
ATOM      8  C   UNL     1       0.066  -2.849   2.446  0.00  0.00    +0.199 A 
ATOM      9  O   UNL     1      -0.099  -2.332   3.537  0.00  0.00    -0.287 OA
ATOM     10  C   UNL     1       0.311  -4.283   2.265  0.00  0.00    +0.072 A 
ATOM     11  C   UNL     1       0.292  -4.850   1.023  0.00  0.00    +0.199 A 
ATOM     12  O   UNL     1       0.041  -4.142  -0.096  0.00  0.00    -0.450 OA
ATOM     13  C   UNL     1       0.580  -6.287   1.166  0.00  0.00    +0.287 C 
ATOM     14  O   UNL     1       0.640  -7.080   0.247  0.00  0.00    -0.266 OA
ATOM     15  N   UNL     1       0.767  -6.596   2.466  0.00  0.00    -0.253 N 
ATOM     16  C   UNL     1       0.611  -5.362   3.254  0.00  0.00    +0.150 C 
ENDROOT
BRANCH  15  17
ATOM     17  C   UNL     1       1.058  -7.864   2.975  0.00  0.00    +0.038 A 
ATOM     18  C   UNL     1       1.221  -8.045   4.343  0.00  0.00    +0.024 A 
ATOM     19  C   UNL     1       1.508  -9.299   4.843  0.00  0.00    +0.005 A 
ATOM     20  C   UNL     1       1.634 -10.376   3.984  0.00  0.00    -0.047 A 
ATOM     21  C   UNL     1       1.472 -10.200   2.622  0.00  0.00    -0.046 A 
ATOM     22  C   UNL     1       1.178  -8.949   2.116  0.00  0.00    +0.027 A 
ATOM     23  C   UNL     1       1.610 -11.376   1.689  0.00  0.00    +0.044 C 
ATOM     24  C   UNL     1       1.948 -11.743   4.533  0.00  0.00    +0.044 C 
ENDBRANCH  15  17
BRANCH  16  25
ATOM     25  C   UNL     1       1.887  -5.052   3.992  0.00  0.00    -0.018 A 
ATOM     26  C   UNL     1       3.108  -5.282   3.385  0.00  0.00    +0.009 A 
ATOM     27  C   UNL     1       4.282  -4.998   4.058  0.00  0.00    +0.050 A 
ATOM     28  C   UNL     1       4.237  -4.483   5.343  0.00  0.00    +0.162 A 
ATOM     29  C   UNL     1       3.008  -4.251   5.954  0.00  0.00    +0.162 A 
ATOM     30  C   UNL     1       1.835  -4.532   5.272  0.00  0.00    +0.055 A 
BRANCH  29  31
ATOM     31  O   UNL     1       2.958  -3.745   7.215  0.00  0.00    -0.491 OA
ATOM     32  C   UNL     1       1.662  -3.533   7.778  0.00  0.00    +0.277 C 
ENDBRANCH  29  31
BRANCH  28  33
ATOM     33  O   UNL     1       5.391  -4.204   6.007  0.00  0.00    -0.488 OA
BRANCH  33  34
ATOM     34  C   UNL     1       6.615  -4.468   5.318  0.00  0.00    +0.229 C 
BRANCH  34  35
ATOM     35  C   UNL     1       7.796  -4.094   6.216  0.00  0.00    +0.044 C 
BRANCH  35  36
ATOM     36  C   UNL     1       9.107  -4.377   5.479  0.00  0.00    -0.014 C 
ATOM     37  C   UNL     1       9.216  -3.455   4.263  0.00  0.00    +0.007 C 
ATOM     38  C   UNL     1      10.286  -4.122   6.420  0.00  0.00    +0.007 C 
ENDBRANCH  35  36
ENDBRANCH  34  35
ENDBRANCH  33  34
ENDBRANCH  28  33
ENDBRANCH  16  25
TORSDOF 7
