REMARK  Name = ZINC20123448
REMARK  11 active torsions:
REMARK  status: ('A' for Active; 'I' for Inactive)
REMARK    1  A    between atoms: C_1  and  C_2
REMARK    2  A    between atoms: C_3  and  C_30
REMARK    3  A    between atoms: C_4  and  C_20
REMARK    4  A    between atoms: C_10  and  C_15
REMARK    5  A    between atoms: C_23  and  O_28
REMARK    6  A    between atoms: C_24  and  O_26
REMARK    7  A    between atoms: O_26  and  C_27
REMARK    8  A    between atoms: O_28  and  C_29
REMARK    9  A    between atoms: C_30  and  O_32
REMARK   10  A    between atoms: O_32  and  C_33
REMARK   11  A    between atoms: C_33  and  C_34
REMARK                            x       y       z     vdW  Elec       q    Type
REMARK                         _______ _______ _______ _____ _____    ______ ____
ROOT
ATOM      1  C   UNL     1       0.410   3.264  -4.341  0.00  0.00    +0.061 C 
ATOM      2  C   UNL     1      -0.521   2.641  -3.333  0.00  0.00    +0.016 C 
ATOM      3  C   UNL     1      -1.842   2.880  -3.408  0.00  0.00    +0.065 C 
ATOM      4  C   UNL     1      -2.800   2.272  -2.426  0.00  0.00    +0.092 C 
ATOM      5  C   UNL     1      -2.076   1.784  -1.196  0.00  0.00    +0.024 C 
ATOM      6  C   UNL     1      -0.741   1.585  -1.215  0.00  0.00    +0.016 C 
ATOM      7  N   UNL     1      -0.017   1.837  -2.349  0.00  0.00    -0.321 N 
ATOM      8  C   UNL     1      -0.013   1.086   0.008  0.00  0.00    +0.060 C 
ATOM      9  C   UNL     1      -0.728   1.579   1.268  0.00  0.00    +0.039 C 
ATOM     10  C   UNL     1      -2.174   1.073   1.236  0.00  0.00    +0.088 C 
ATOM     11  C   UNL     1      -2.829   1.545  -0.033  0.00  0.00    +0.162 C 
ATOM     12  O   UNL     1      -4.031   1.723  -0.053  0.00  0.00    -0.292 OA
ATOM     13  H   UNL     1       0.979   1.385  -2.465  0.00  0.00    +0.152 HD
ENDROOT
BRANCH   4  14
ATOM     14  C   UNL     1      -3.505   1.111  -3.077  0.00  0.00    -0.032 A 
ATOM     15  C   UNL     1      -2.774   0.036  -3.549  0.00  0.00    +0.008 A 
ATOM     16  C   UNL     1      -3.417  -1.032  -4.147  0.00  0.00    +0.050 A 
ATOM     17  C   UNL     1      -4.797  -1.027  -4.275  0.00  0.00    +0.162 A 
ATOM     18  C   UNL     1      -5.532   0.054  -3.800  0.00  0.00    +0.162 A 
ATOM     19  C   UNL     1      -4.883   1.119  -3.197  0.00  0.00    +0.054 A 
BRANCH  18  20
ATOM     20  O   UNL     1      -6.887   0.064  -3.923  0.00  0.00    -0.491 OA
ATOM     21  C   UNL     1      -7.577   1.207  -3.413  0.00  0.00    +0.277 C 
ENDBRANCH  18  20
BRANCH  17  22
ATOM     22  O   UNL     1      -5.430  -2.077  -4.863  0.00  0.00    -0.491 OA
ATOM     23  C   UNL     1      -4.611  -3.152  -5.326  0.00  0.00    +0.277 C 
ENDBRANCH  17  22
ENDBRANCH   4  14
BRANCH   9  24
ATOM     24  C   UNL     1      -0.030   1.039   2.490  0.00  0.00    -0.006 A 
ATOM     25  C   UNL     1       0.560   1.716   3.505  0.00  0.00    +0.011 A 
ATOM     26  C   UNL     1       1.142   1.004   4.537  0.00  0.00    +0.008 A 
ATOM     27  C   UNL     1       1.115  -0.350   4.498  0.00  0.00    +0.045 A 
ATOM     28  S   UNL     1       0.240  -0.658   2.973  0.00  0.00    -0.101 S 
ENDBRANCH   9  24
BRANCH   3  29
ATOM     29  C   UNL     1      -2.338   3.721  -4.431  0.00  0.00    +0.338 C 
ATOM     30  O   UNL     1      -1.571   4.221  -5.233  0.00  0.00    -0.245 OA
BRANCH  29  31
ATOM     31  O   UNL     1      -3.662   3.970  -4.517  0.00  0.00    -0.459 OA
BRANCH  31  32
ATOM     32  C   UNL     1      -4.093   4.829  -5.575  0.00  0.00    +0.264 C 
BRANCH  32  33
ATOM     33  C   UNL     1      -5.613   4.992  -5.512  0.00  0.00    +0.156 C 
ATOM     34  C   UNL     1      -6.100   5.824  -6.718  0.00  0.00    +0.037 C 
ATOM     35  C   UNL     1      -7.206   6.709  -6.082  0.00  0.00    +0.031 C 
ATOM     36  C   UNL     1      -6.622   6.937  -4.665  0.00  0.00    +0.160 C 
ATOM     37  O   UNL     1      -5.976   5.701  -4.322  0.00  0.00    -0.373 OA
ENDBRANCH  32  33
ENDBRANCH  31  32
ENDBRANCH  29  31
ENDBRANCH   3  29
TORSDOF 8
