REMARK  Name = ZINC11661591
REMARK  5 active torsions:
REMARK  status: ('A' for Active; 'I' for Inactive)
REMARK    1  A    between atoms: C_6  and  C_7
REMARK    2  A    between atoms: C_7  and  N_62
REMARK    3  A    between atoms: C_13  and  C_15
REMARK    4  A    between atoms: C_15  and  C_16
REMARK    5  A    between atoms: N_21  and  C_25
REMARK                            x       y       z     vdW  Elec       q    Type
REMARK                         _______ _______ _______ _____ _____    ______ ____
ROOT
ATOM      1  C   UNL     1      -4.451   2.563   1.235  0.00  0.00    -0.058 C 
ATOM      2  C   UNL     1      -2.994   2.837   0.860  0.00  0.00    +0.085 C 
ATOM      3  N   UNL     1      -2.143   1.748   1.331  0.00  0.00    -0.318 N 
ATOM      4  C   UNL     1      -2.620   0.545   1.666  0.00  0.00    +0.200 C 
ATOM      5  O   UNL     1      -1.839  -0.313   2.018  0.00  0.00    -0.278 OA
ATOM      6  C   UNL     1      -4.085   0.211   1.623  0.00  0.00    +0.028 C 
ATOM      7  H   UNL     1      -1.188   1.905   1.405  0.00  0.00    +0.149 HD
ATOM      8  N   UNL     1      -4.790   1.198   0.785  0.00  0.00    +0.391 N 
ATOM      9  H   UNL     1      -4.492   1.083  -0.191  0.00  0.00    -0.080 HD
ENDROOT
BRANCH   8  10
ATOM     10  C   UNL     1      -6.253   0.983   0.871  0.00  0.00    -0.042 C 
BRANCH  10  16
ATOM     11  C   UNL     1      -7.225   1.902  -1.244  0.00  0.00    +0.005 A 
ATOM     12  C   UNL     1      -7.877   2.896  -1.951  0.00  0.00    +0.041 A 
ATOM     13  C   UNL     1      -8.256   4.063  -1.312  0.00  0.00    +0.158 A 
ATOM     14  C   UNL     1      -7.983   4.234   0.037  0.00  0.00    +0.159 A 
ATOM     15  C   UNL     1      -7.331   3.238   0.741  0.00  0.00    +0.043 A 
ATOM     16  C   UNL     1      -6.957   2.070   0.101  0.00  0.00    -0.061 A 
ATOM     17  F   UNL     1      -8.353   5.373   0.662  0.00  0.00    -0.202 F 
ATOM     18  F   UNL     1      -8.892   5.035  -2.002  0.00  0.00    -0.202 F 
ENDBRANCH  10  16
ENDBRANCH   8  10
BRANCH   6  19
ATOM     19  C   UNL     1      -4.268  -1.181   1.015  0.00  0.00    +0.090 C 
BRANCH  19  20
ATOM     20  C   UNL     1      -3.778  -1.175  -0.410  0.00  0.00    +0.215 C 
ATOM     21  O   UNL     1      -3.394  -0.141  -0.915  0.00  0.00    -0.276 OA
ATOM     22  N   UNL     1      -3.767  -2.318  -1.123  0.00  0.00    -0.291 N 
ATOM     23  C   UNL     1      -3.301  -2.345  -2.520  0.00  0.00    +0.127 C 
ATOM     24  C   UNL     1      -2.085  -3.279  -2.594  0.00  0.00    +0.127 C 
ATOM     25  N   UNL     1      -2.350  -4.528  -1.892  0.00  0.00    -0.296 N 
ATOM     26  C   UNL     1      -3.273  -4.681  -0.941  0.00  0.00    +0.233 C 
ATOM     27  O   UNL     1      -3.348  -5.750  -0.374  0.00  0.00    -0.274 OA
ATOM     28  C   UNL     1      -4.227  -3.588  -0.541  0.00  0.00    +0.203 C 
BRANCH  25  29
ATOM     29  C   UNL     1      -1.547  -5.698  -2.256  0.00  0.00    +0.076 C 
ATOM     30  C   UNL     1      -2.467  -6.809  -2.765  0.00  0.00    +0.022 C 
ATOM     31  C   UNL     1      -1.628  -8.031  -3.145  0.00  0.00    +0.002 C 
ATOM     32  C   UNL     1      -0.862  -8.526  -1.917  0.00  0.00    +0.000 C 
ATOM     33  C   UNL     1       0.058  -7.414  -1.408  0.00  0.00    +0.002 C 
ATOM     34  C   UNL     1      -0.781  -6.192  -1.028  0.00  0.00    +0.022 C 
ENDBRANCH  25  29
ENDBRANCH  19  20
ENDBRANCH   6  19
TORSDOF 5
