REMARK  Name = ZINC08451412
REMARK  6 active torsions:
REMARK  status: ('A' for Active; 'I' for Inactive)
REMARK    1  A    between atoms: C_1  and  O_2
REMARK    2  A    between atoms: O_2  and  C_3
REMARK    3  A    between atoms: C_3  and  C_5
REMARK    4  A    between atoms: C_7  and  C_21
REMARK    5  A    between atoms: C_9  and  C_12
REMARK    6  A    between atoms: C_12  and  C_14
REMARK                            x       y       z     vdW  Elec       q    Type
REMARK                         _______ _______ _______ _____ _____    ______ ____
ROOT
ATOM      1  C   UNL     1       0.705  -2.071   1.091  0.00  0.00    +0.211 C 
ATOM      2  C   UNL     1       1.853  -2.630   0.220  0.00  0.00    +0.106 C 
ATOM      3  C   UNL     1       2.720  -3.328   1.251  0.00  0.00    +0.116 C 
ATOM      4  N   UNL     1       2.166  -3.180   2.413  0.00  0.00    -0.186 NA
ATOM      5  N   UNL     1       1.070  -2.518   2.445  0.00  0.00    -0.254 N 
ATOM      6  H   UNL     1       0.553  -2.336   3.245  0.00  0.00    +0.169 HD
ENDROOT
BRANCH   2   7
ATOM      7  C   UNL     1       1.329  -3.610  -0.797  0.00  0.00    -0.035 A 
ATOM      8  C   UNL     1       0.663  -4.748  -0.380  0.00  0.00    +0.004 A 
ATOM      9  C   UNL     1       0.182  -5.648  -1.313  0.00  0.00    +0.001 A 
ATOM     10  C   UNL     1       0.366  -5.410  -2.662  0.00  0.00    +0.015 A 
ATOM     11  C   UNL     1       1.031  -4.272  -3.079  0.00  0.00    +0.018 A 
ATOM     12  C   UNL     1       1.508  -3.369  -2.146  0.00  0.00    +0.019 A 
ATOM     13 BR   UNL     1       1.284  -3.946  -4.925  0.00  0.00    -0.050 Br
ENDBRANCH   2   7
BRANCH   1  14
ATOM     14  C   UNL     1       0.665  -0.566   1.019  0.00  0.00    +0.330 C 
ATOM     15  O   UNL     1       1.185   0.095   1.887  0.00  0.00    -0.249 OA
BRANCH  14  17
ATOM     16  C   UNL     1       0.051   1.469  -0.014  0.00  0.00    +0.280 C 
ATOM     17  O   UNL     1       0.051   0.040  -0.009  0.00  0.00    -0.467 OA
ENDBRANCH  14  17
ENDBRANCH   1  14
BRANCH   3  18
ATOM     18  C   UNL     1       3.964  -4.045   0.979  0.00  0.00    +0.209 C 
ATOM     19  O   UNL     1       4.341  -4.198  -0.169  0.00  0.00    -0.285 OA
BRANCH  18  20
ATOM     20  C   UNL     1       4.766  -4.585   2.099  0.00  0.00    +0.024 A 
ATOM     21  C   UNL     1       4.275  -4.527   3.404  0.00  0.00    +0.013 A 
ATOM     22  C   UNL     1       5.027  -5.032   4.444  0.00  0.00    +0.016 A 
ATOM     23  C   UNL     1       6.268  -5.595   4.195  0.00  0.00    +0.018 A 
ATOM     24  C   UNL     1       6.761  -5.654   2.902  0.00  0.00    +0.016 A 
ATOM     25  C   UNL     1       6.015  -5.159   1.853  0.00  0.00    +0.013 A 
ATOM     26 BR   UNL     1       7.293  -6.284   5.626  0.00  0.00    -0.050 Br
ENDBRANCH  18  20
ENDBRANCH   3  18
TORSDOF 5
