REMARK  Name = ZINC09460227
REMARK  5 active torsions:
REMARK  status: ('A' for Active; 'I' for Inactive)
REMARK    1  A    between atoms: C_1  and  S_2
REMARK    2  A    between atoms: S_2  and  N_5
REMARK    3  A    between atoms: C_13  and  C_15
REMARK    4  A    between atoms: C_15  and  C_17
REMARK    5  A    between atoms: C_17  and  N_18
REMARK                            x       y       z     vdW  Elec       q    Type
REMARK                         _______ _______ _______ _____ _____    ______ ____
ROOT
ATOM      1  C   UNL     1      -2.867  -0.654  -3.441  0.00  0.00    +0.197 C 
ENDROOT
BRANCH   1   2
ATOM      2  N   UNL     1      -1.801   0.200  -2.911  0.00  0.00    -0.216 N 
ATOM      3  C   UNL     1      -1.878   0.871  -1.743  0.00  0.00    +0.251 C 
ATOM      4  O   UNL     1      -2.806   0.881  -0.963  0.00  0.00    -0.272 OA
ATOM      5  C   UNL     1      -0.564   1.608  -1.611  0.00  0.00    +0.138 C 
ATOM      6  C   UNL     1       0.186   1.136  -0.372  0.00  0.00    +0.040 C 
ATOM      7  C   UNL     1      -0.514   1.701   0.870  0.00  0.00    +0.008 C 
ATOM      8  C   UNL     1      -0.305   3.213   0.897  0.00  0.00    +0.035 C 
ATOM      9  C   UNL     1      -0.689   3.831  -0.422  0.00  0.00    -0.042 A 
ATOM     10  C   UNL     1      -0.802   3.091  -1.579  0.00  0.00    -0.012 A 
ATOM     11  C   UNL     1      -1.147   3.723  -2.767  0.00  0.00    +0.006 A 
ATOM     12  C   UNL     1      -1.381   5.082  -2.796  0.00  0.00    +0.000 A 
ATOM     13  C   UNL     1      -1.273   5.823  -1.634  0.00  0.00    +0.000 A 
ATOM     14  C   UNL     1      -0.928   5.198  -0.453  0.00  0.00    +0.004 A 
ATOM     15  N   UNL     1       0.173   1.237  -2.827  0.00  0.00    -0.281 N 
ATOM     16  C   UNL     1      -0.631   0.412  -3.524  0.00  0.00    +0.310 C 
ATOM     17  O   UNL     1      -0.328  -0.086  -4.591  0.00  0.00    -0.252 OA
ATOM     18  H   UNL     1       1.063   1.529  -3.078  0.00  0.00    +0.152 HD
ENDBRANCH   1   2
BRANCH   1  19
ATOM     19  C   UNL     1      -2.674  -2.064  -2.945  0.00  0.00    +0.181 C 
ATOM     20  O   UNL     1      -1.739  -2.329  -2.219  0.00  0.00    -0.290 OA
BRANCH  19  29
ATOM     21  N   UNL     1      -6.303  -6.081  -4.461  0.00  0.00    -0.207 N 
ATOM     22  C   UNL     1      -5.966  -7.493  -4.237  0.00  0.00    +0.131 C 
ATOM     23  C   UNL     1      -5.391  -7.619  -2.820  0.00  0.00    +0.025 C 
ATOM     24  C   UNL     1      -4.097  -6.809  -2.740  0.00  0.00    +0.038 C 
ATOM     25  C   UNL     1      -4.321  -5.409  -3.248  0.00  0.00    -0.024 A 
ATOM     26  C   UNL     1      -5.393  -5.100  -4.079  0.00  0.00    +0.054 A 
ATOM     27  C   UNL     1      -5.573  -3.796  -4.539  0.00  0.00    +0.026 A 
ATOM     28  C   UNL     1      -4.699  -2.812  -4.178  0.00  0.00    +0.013 A 
ATOM     29  C   UNL     1      -3.618  -3.116  -3.340  0.00  0.00    +0.019 A 
ATOM     30  C   UNL     1      -3.438  -4.427  -2.885  0.00  0.00    +0.017 A 
BRANCH  21  32
ATOM     31  C   UNL     1      -7.355  -5.388  -6.909  0.00  0.00    +0.218 C 
ATOM     32  S   UNL     1      -7.746  -5.662  -5.159  0.00  0.00    +0.043 S 
ATOM     33  O   UNL     1      -8.566  -6.814  -5.015  0.00  0.00    -0.155 OA
ATOM     34  O   UNL     1      -8.105  -4.435  -4.539  0.00  0.00    -0.155 OA
ENDBRANCH  21  32
ENDBRANCH  19  29
ENDBRANCH   1  19
TORSDOF 4
