REMARK  Name = ZINC20708990
REMARK  4 active torsions:
REMARK  status: ('A' for Active; 'I' for Inactive)
REMARK    1  A    between atoms: C_3  and  C_27
REMARK    2  A    between atoms: C_14  and  C_17
REMARK    3  A    between atoms: C_19  and  N_24
REMARK    4  A    between atoms: C_22  and  O_23
REMARK                            x       y       z     vdW  Elec       q    Type
REMARK                         _______ _______ _______ _____ _____    ______ ____
ROOT
ATOM      1  C   UNL     1      -0.265   5.687   0.215  0.00  0.00    +0.002 A 
ATOM      2  C   UNL     1       0.456   4.520   0.352  0.00  0.00    +0.021 A 
ATOM      3  C   UNL     1      -0.209   3.294   0.340  0.00  0.00    +0.073 A 
ATOM      4  C   UNL     1      -1.609   3.253   0.185  0.00  0.00    +0.049 A 
ATOM      5  C   UNL     1      -2.318   4.433   0.051  0.00  0.00    -0.018 A 
ATOM      6  C   UNL     1      -1.639   5.643   0.066  0.00  0.00    +0.006 A 
ATOM      7  C   UNL     1      -3.809   4.465  -0.120  0.00  0.00    +0.049 C 
ATOM      8  C   UNL     1      -4.173   4.844  -1.537  0.00  0.00    -0.023 C 
ATOM      9  C   UNL     1      -5.198   4.141  -1.950  0.00  0.00    -0.030 C 
ATOM     10  C   UNL     1      -5.669   3.197  -0.862  0.00  0.00    +0.033 C 
ATOM     11  C   UNL     1      -4.430   3.065   0.068  0.00  0.00    +0.029 C 
ATOM     12  C   UNL     1      -3.493   2.021  -0.545  0.00  0.00    +0.109 C 
ATOM     13  N   UNL     1      -2.229   2.011   0.192  0.00  0.00    -0.335 N 
ATOM     14  H   UNL     1      -1.877   1.084   0.669  0.00  0.00    +0.147 HD
ENDROOT
BRANCH  12  15
ATOM     15  C   UNL     1      -3.232   2.366  -1.988  0.00  0.00    +0.017 A 
ATOM     16  C   UNL     1      -2.198   3.222  -2.318  0.00  0.00    +0.041 A 
ATOM     17  C   UNL     1      -1.958   3.538  -3.642  0.00  0.00    +0.127 A 
ATOM     18  C   UNL     1      -2.750   3.000  -4.639  0.00  0.00    +0.036 A 
ATOM     19  C   UNL     1      -3.785   2.144  -4.314  0.00  0.00    +0.048 A 
ATOM     20  C   UNL     1      -4.025   1.820  -2.987  0.00  0.00    +0.122 A 
BRANCH  17  21
ATOM     21  N   UNL     1      -0.850   4.455  -3.993  0.00  0.00    +0.056 N 
ATOM     22  O   UNL     1      -0.151   4.930  -3.116  0.00  0.00    -0.126 OA
ATOM     23  O   UNL     1      -0.637   4.735  -5.159  0.00  0.00    -0.126 OA
ENDBRANCH  17  21
BRANCH  20  24
ATOM     24  O   UNL     1      -5.038   0.974  -2.665  0.00  0.00    -0.506 OA
ATOM     25  H   UNL     1      -5.667   0.542  -3.458  0.00  0.00    +0.292 HD
ENDBRANCH  20  24
ENDBRANCH  12  15
BRANCH   3  26
ATOM     26  C   UNL     1       0.532   2.076   0.480  0.00  0.00    +0.101 C 
ATOM     27  N   UNL     1       1.119   1.111   0.591  0.00  0.00    -0.191 NA
ENDBRANCH   3  26
TORSDOF 4
