REMARK  Name = ZINC39314624
REMARK  5 active torsions:
REMARK  status: ('A' for Active; 'I' for Inactive)
REMARK    1  A    between atoms: C_10  and  O_11
REMARK    2  A    between atoms: O_11  and  C_12
REMARK    3  A    between atoms: C_12  and  C_13
REMARK    4  A    between atoms: N_24  and  N_25
REMARK    5  A    between atoms: C_26  and  C_27
REMARK                            x       y       z     vdW  Elec       q    Type
REMARK                         _______ _______ _______ _____ _____    ______ ____
ROOT
ATOM      1  C   UNL     1       7.481   0.428   0.002  0.00  0.00    +0.222 C 
ATOM      2  N   UNL     1       7.397   1.364   1.130  0.00  0.00    -0.321 N 
ATOM      3  C   UNL     1       6.339   2.265   1.168  0.00  0.00    +0.041 A 
ATOM      4  C   UNL     1       5.820   2.736   2.361  0.00  0.00    +0.024 A 
ATOM      5  C   UNL     1       4.763   3.627   2.343  0.00  0.00    +0.002 A 
ATOM      6  C   UNL     1       4.220   4.051   1.140  0.00  0.00    +0.001 A 
ATOM      7  C   UNL     1       4.727   3.593  -0.058  0.00  0.00    +0.015 A 
ATOM      8  C   UNL     1       5.793   2.697  -0.054  0.00  0.00    +0.059 A 
ATOM      9  C   UNL     1       6.380   2.184  -1.305  0.00  0.00    +0.269 C 
ATOM     10  O   UNL     1       6.116   2.710  -2.369  0.00  0.00    -0.268 OA
ATOM     11  N   UNL     1       7.211   1.127  -1.254  0.00  0.00    -0.165 N 
ATOM     12  H   UNL     1       8.066   1.355   1.833  0.00  0.00    +0.148 HD
ENDROOT
BRANCH  11  13
ATOM     13  N   UNL     1       7.830   0.687  -2.432  0.00  0.00    -0.185 NA
ATOM     14  C   UNL     1       8.536  -0.381  -2.424  0.00  0.00    +0.132 C 
BRANCH  14  15
ATOM     15  C   UNL     1       9.315  -0.777  -3.651  0.00  0.00    +0.146 C 
ATOM     16  C   UNL     1      10.784  -0.906  -3.317  0.00  0.00    +0.013 C 
ATOM     17  C   UNL     1      11.117  -2.191  -3.578  0.00  0.00    -0.004 A 
ATOM     18  C   UNL     1      12.377  -2.935  -3.461  0.00  0.00    +0.010 A 
ATOM     19  C   UNL     1      12.401  -4.242  -3.806  0.00  0.00    +0.001 A 
ATOM     20  C   UNL     1      11.255  -4.903  -4.270  0.00  0.00    +0.002 A 
ATOM     21  C   UNL     1      10.062  -4.287  -4.404  0.00  0.00    +0.026 A 
ATOM     22  C   UNL     1       9.922  -2.912  -4.071  0.00  0.00    +0.043 A 
ATOM     23  N   UNL     1       8.889  -2.103  -4.114  0.00  0.00    -0.373 N 
ATOM     24  H   UNL     1       7.994  -2.341  -4.403  0.00  0.00    +0.161 HD
ENDBRANCH  14  15
ENDBRANCH  11  13
BRANCH   1  25
ATOM     25  C   UNL     1       6.451  -0.688   0.193  0.00  0.00    +0.273 C 
BRANCH  25  26
ATOM     26  O   UNL     1       5.140  -0.122   0.240  0.00  0.00    -0.488 OA
BRANCH  26  36
ATOM     27  C   UNL     1       0.160   0.404   0.580  0.00  0.00    +0.001 A 
ATOM     28  C   UNL     1       1.210   1.304   0.409  0.00  0.00    +0.001 A 
ATOM     29  C   UNL     1       2.500   0.873   0.350  0.00  0.00    +0.012 A 
ATOM     30  C   UNL     1       2.780  -0.499   0.462  0.00  0.00    +0.024 A 
ATOM     31  C   UNL     1       1.713  -1.415   0.636  0.00  0.00    -0.014 A 
ATOM     32  C   UNL     1       0.394  -0.932   0.692  0.00  0.00    +0.008 A 
ATOM     33  C   UNL     1       1.993  -2.787   0.748  0.00  0.00    +0.009 A 
ATOM     34  C   UNL     1       3.282  -3.221   0.690  0.00  0.00    +0.004 A 
ATOM     35  C   UNL     1       4.334  -2.325   0.520  0.00  0.00    +0.046 A 
ATOM     36  C   UNL     1       4.103  -0.983   0.406  0.00  0.00    +0.128 A 
ENDBRANCH  26  36
ENDBRANCH  25  26
ENDBRANCH   1  25
TORSDOF 5
