REMARK  Name = ZINC40843168
REMARK  7 active torsions:
REMARK  status: ('A' for Active; 'I' for Inactive)
REMARK    1  A    between atoms: C_1  and  C_2
REMARK    2  A    between atoms: C_5  and  C_8
REMARK    3  A    between atoms: N_19  and  C_22
REMARK    4  A    between atoms: C_22  and  C_23
REMARK    5  A    between atoms: C_23  and  C_24
REMARK    6  A    between atoms: N_26  and  C_27
REMARK    7  A    between atoms: C_32  and  C_33
REMARK                            x       y       z     vdW  Elec       q    Type
REMARK                         _______ _______ _______ _____ _____    ______ ____
ROOT
ATOM      1  C   UNL     1       0.042  -4.304  -0.075  0.00  0.00    +0.169 A 
ATOM      2  N   UNL     1      -0.285  -5.103  -1.076  0.00  0.00    -0.128 NA
ATOM      3  N   UNL     1      -0.128  -6.332  -0.727  0.00  0.00    -0.123 NA
ATOM      4  C   UNL     1       0.307  -6.388   0.514  0.00  0.00    +0.227 A 
ATOM      5  N   UNL     1       0.432  -5.095   0.959  0.00  0.00    -0.269 N 
ATOM      6  C   UNL     1       0.884  -4.844   2.251  0.00  0.00    +0.074 A 
ATOM      7  C   UNL     1       1.008  -3.537   2.705  0.00  0.00    +0.028 A 
ATOM      8  C   UNL     1       1.456  -3.289   3.986  0.00  0.00    +0.002 A 
ATOM      9  C   UNL     1       1.783  -4.340   4.825  0.00  0.00    +0.002 A 
ATOM     10  C   UNL     1       1.664  -5.643   4.386  0.00  0.00    +0.028 A 
ATOM     11  C   UNL     1       1.214  -5.905   3.097  0.00  0.00    +0.069 A 
ATOM     12  N   UNL     1       1.095  -7.223   2.660  0.00  0.00    -0.303 N 
ATOM     13  C   UNL     1       0.653  -7.495   1.416  0.00  0.00    +0.297 A 
ATOM     14  O   UNL     1       0.554  -8.648   1.038  0.00  0.00    -0.264 OA
ENDROOT
BRANCH   1  19
ATOM     15  C   UNL     1      -0.128   1.448  -0.100  0.00  0.00    +0.044 C 
ATOM     16  C   UNL     1      -0.084  -0.058  -0.093  0.00  0.00    -0.050 A 
ATOM     17  C   UNL     1      -1.235  -0.782  -0.348  0.00  0.00    +0.004 A 
ATOM     18  C   UNL     1      -1.201  -2.162  -0.344  0.00  0.00    +0.012 A 
ATOM     19  C   UNL     1      -0.002  -2.826  -0.082  0.00  0.00    +0.020 A 
ATOM     20  C   UNL     1       1.156  -2.090   0.175  0.00  0.00    +0.012 A 
ATOM     21  C   UNL     1       1.109  -0.711   0.162  0.00  0.00    +0.004 A 
ENDBRANCH   1  19
BRANCH  12  22
ATOM     22  C   UNL     1       1.447  -8.322   3.563  0.00  0.00    +0.135 C 
BRANCH  22  23
ATOM     23  C   UNL     1       0.211  -8.742   4.360  0.00  0.00    +0.118 C 
BRANCH  23  24
ATOM     24  C   UNL     1       0.572  -9.872   5.289  0.00  0.00    +0.219 C 
ATOM     25  O   UNL     1       1.707 -10.300   5.311  0.00  0.00    -0.275 OA
ATOM     26  N   UNL     1      -0.366 -10.409   6.095  0.00  0.00    -0.285 N 
ATOM     27  H   UNL     1      -1.286 -10.107   6.036  0.00  0.00    +0.155 HD
BRANCH  26  28
ATOM     28  C   UNL     1      -0.012 -11.400   7.017  0.00  0.00    +0.045 A 
ATOM     29  C   UNL     1       1.097 -12.203   6.784  0.00  0.00    +0.024 A 
ATOM     30  C   UNL     1       1.444 -13.180   7.696  0.00  0.00    +0.002 A 
ATOM     31  C   UNL     1       0.687 -13.361   8.840  0.00  0.00    +0.001 A 
ATOM     32  C   UNL     1      -0.418 -12.564   9.074  0.00  0.00    +0.014 A 
ATOM     33  C   UNL     1      -0.766 -11.580   8.169  0.00  0.00    +0.076 A 
BRANCH  33  34
ATOM     34  C   UNL     1      -1.967 -10.707   8.428  0.00  0.00    +0.419 C 
ATOM     35  F   UNL     1      -2.558 -11.075   9.641  0.00  0.00    -0.166 F 
ATOM     36  F   UNL     1      -1.565  -9.368   8.494  0.00  0.00    -0.166 F 
ATOM     37  F   UNL     1      -2.892 -10.866   7.391  0.00  0.00    -0.166 F 
ENDBRANCH  33  34
ENDBRANCH  26  28
ENDBRANCH  23  24
ENDBRANCH  22  23
ENDBRANCH  12  22
TORSDOF 6
