REMARK  Name = ZINC06196515
REMARK  15 active torsions:
REMARK  status: ('A' for Active; 'I' for Inactive)
REMARK    1  A    between atoms: C_1  and  C_2
REMARK    2  A    between atoms: C_2  and  O_3
REMARK    3  A    between atoms: O_3  and  C_4
REMARK    4  A    between atoms: C_7  and  C_12
REMARK    5  A    between atoms: C_9  and  O_10
REMARK    6  A    between atoms: O_10  and  C_11
REMARK    7  A    between atoms: C_17  and  C_22
REMARK    8  A    between atoms: C_25  and  O_30
REMARK    9  A    between atoms: C_26  and  O_28
REMARK   10  A    between atoms: O_28  and  C_29
REMARK   11  A    between atoms: O_30  and  C_31
REMARK   12  A    between atoms: C_33  and  C_39
REMARK   13  A    between atoms: C_34  and  C_35
REMARK   14  A    between atoms: C_35  and  O_37
REMARK   15  A    between atoms: O_37  and  C_38
REMARK                            x       y       z     vdW  Elec       q    Type
REMARK                         _______ _______ _______ _____ _____    ______ ____
ROOT
ATOM      1  C   UNL     1       1.308   2.231   0.011  0.00  0.00    +0.092 C 
ATOM      2  C   UNL     1       1.008   3.599  -0.548  0.00  0.00    +0.024 C 
ATOM      3  C   UNL     1      -0.246   4.096  -0.518  0.00  0.00    +0.016 C 
ATOM      4  C   UNL     1      -0.552   5.469  -1.063  0.00  0.00    +0.059 C 
ATOM      5  C   UNL     1       0.406   5.791  -2.212  0.00  0.00    +0.032 C 
ATOM      6  C   UNL     1       1.843   5.706  -1.687  0.00  0.00    +0.088 C 
ATOM      7  C   UNL     1       2.069   4.340  -1.099  0.00  0.00    +0.162 C 
ATOM      8  O   UNL     1       3.188   3.867  -1.101  0.00  0.00    -0.292 OA
ATOM      9  N   UNL     1      -1.273   3.358   0.007  0.00  0.00    -0.321 N 
ATOM     10  C   UNL     1      -1.158   2.003   0.143  0.00  0.00    +0.016 C 
ATOM     11  C   UNL     1       0.054   1.421   0.152  0.00  0.00    +0.065 C 
ATOM     12  C   UNL     1      -2.396   1.157   0.288  0.00  0.00    +0.061 C 
ATOM     13  H   UNL     1      -2.202   3.856   0.324  0.00  0.00    +0.152 HD
ENDROOT
BRANCH   1  17
ATOM     14  C   UNL     1       3.142   2.659   3.850  0.00  0.00    +0.162 A 
ATOM     15  C   UNL     1       1.859   3.136   3.635  0.00  0.00    +0.050 A 
ATOM     16  C   UNL     1       1.272   3.001   2.391  0.00  0.00    +0.008 A 
ATOM     17  C   UNL     1       1.956   2.381   1.363  0.00  0.00    -0.032 A 
ATOM     18  C   UNL     1       3.236   1.902   1.571  0.00  0.00    +0.054 A 
ATOM     19  C   UNL     1       3.834   2.039   2.814  0.00  0.00    +0.162 A 
BRANCH  19  20
ATOM     20  O   UNL     1       5.093   1.569   3.020  0.00  0.00    -0.491 OA
ATOM     21  C   UNL     1       5.743   0.945   1.911  0.00  0.00    +0.277 C 
ENDBRANCH  19  20
BRANCH  14  22
ATOM     22  O   UNL     1       3.724   2.796   5.072  0.00  0.00    -0.489 OA
BRANCH  22  24
ATOM     23  C   UNL     1       3.769   3.503   7.382  0.00  0.00    +0.048 C 
ATOM     24  C   UNL     1       2.955   3.442   6.088  0.00  0.00    +0.226 C 
ENDBRANCH  22  24
ENDBRANCH  14  22
ENDBRANCH   1  17
BRANCH   5  25
ATOM     25  C   UNL     1       0.132   7.181  -2.726  0.00  0.00    -0.040 A 
ATOM     26  C   UNL     1       0.254   8.266  -1.878  0.00  0.00    +0.008 A 
ATOM     27  C   UNL     1       0.003   9.543  -2.345  0.00  0.00    +0.049 A 
ATOM     28  C   UNL     1      -0.371   9.737  -3.665  0.00  0.00    +0.161 A 
ATOM     29  C   UNL     1      -0.493   8.645  -4.518  0.00  0.00    +0.162 A 
ATOM     30  C   UNL     1      -0.236   7.368  -4.046  0.00  0.00    +0.053 A 
BRANCH  29  31
ATOM     31  O   UNL     1      -0.860   8.831  -5.815  0.00  0.00    -0.491 OA
ATOM     32  C   UNL     1      -0.965   7.664  -6.633  0.00  0.00    +0.277 C 
ENDBRANCH  29  31
BRANCH  28  33
ATOM     33  O   UNL     1      -0.618  10.993  -4.125  0.00  0.00    -0.491 OA
ATOM     34  C   UNL     1      -0.473  12.066  -3.193  0.00  0.00    +0.277 C 
ENDBRANCH  28  33
ENDBRANCH   5  25
BRANCH  11  35
ATOM     35  C   UNL     1       0.147   0.016   0.293  0.00  0.00    +0.337 C 
ATOM     36  O   UNL     1       0.429  -0.674  -0.669  0.00  0.00    -0.245 OA
BRANCH  35  37
ATOM     37  O   UNL     1      -0.077  -0.558   1.493  0.00  0.00    -0.465 OA
ATOM     38  C   UNL     1       0.034  -1.981   1.562  0.00  0.00    +0.280 C 
ENDBRANCH  35  37
ENDBRANCH  11  35
TORSDOF 9
