REMARK  Name = ZINC03523790
REMARK  9 active torsions:
REMARK  status: ('A' for Active; 'I' for Inactive)
REMARK    1  A    between atoms: C_4  and  C_7
REMARK    2  A    between atoms: C_7  and  N_8
REMARK    3  A    between atoms: N_8  and  S_9
REMARK    4  A    between atoms: S_9  and  C_12
REMARK    5  A    between atoms: C_16  and  C_18
REMARK    6  A    between atoms: C_18  and  O_20
REMARK    7  A    between atoms: O_20  and  C_21
REMARK    8  A    between atoms: C_21  and  C_22
REMARK    9  A    between atoms: C_24  and  N_32
REMARK                            x       y       z     vdW  Elec       q    Type
REMARK                         _______ _______ _______ _____ _____    ______ ____
ROOT
ATOM      1  C   UNL     1      -1.222   1.748   0.017  0.00  0.00    +0.106 A 
ATOM      2  C   UNL     1      -0.013   1.076   0.008  0.00  0.00    +0.028 A 
ATOM      3  C   UNL     1       1.178   1.781   0.000  0.00  0.00    +0.003 A 
ATOM      4  C   UNL     1       1.166   3.160   0.007  0.00  0.00    +0.015 A 
ATOM      5  C   UNL     1      -0.050   3.845   0.023  0.00  0.00    +0.061 A 
ATOM      6  C   UNL     1      -1.248   3.127   0.031  0.00  0.00    +0.043 A 
ENDROOT
BRANCH   1   7
ATOM      7  S   UNL     1      -2.732   0.841   0.019  0.00  0.00    +0.059 S 
ATOM      8  O   UNL     1      -3.724   1.702  -0.522  0.00  0.00    -0.153 OA
ATOM      9  O   UNL     1      -2.442  -0.433  -0.540  0.00  0.00    -0.153 OA
BRANCH   7  10
ATOM     10  N   UNL     1      -3.145   0.579   1.601  0.00  0.00    -0.186 NA
ATOM     11  H   UNL     1      -3.165  -0.324   1.955  0.00  0.00    +0.148 HD
BRANCH  10  12
ATOM     12  C   UNL     1      -3.480   1.712   2.468  0.00  0.00    +0.141 C 
BRANCH  12  16
ATOM     13  C   UNL     1      -5.412   0.282   5.999  0.00  0.00    +0.000 A 
ATOM     14  C   UNL     1      -4.037   0.414   5.969  0.00  0.00    +0.000 A 
ATOM     15  C   UNL     1      -3.411   0.876   4.826  0.00  0.00    +0.005 A 
ATOM     16  C   UNL     1      -4.162   1.208   3.713  0.00  0.00    -0.032 A 
ATOM     17  C   UNL     1      -5.538   1.081   3.745  0.00  0.00    +0.005 A 
ATOM     18  C   UNL     1      -6.163   0.613   4.886  0.00  0.00    +0.000 A 
ENDBRANCH  12  16
ENDBRANCH  10  12
ENDBRANCH   7  10
ENDBRANCH   1   7
BRANCH   5  19
ATOM     19  C   UNL     1      -0.070   5.322   0.030  0.00  0.00    +0.340 C 
ATOM     20  O   UNL     1      -1.130   5.915   0.043  0.00  0.00    -0.245 OA
BRANCH  19  21
ATOM     21  O   UNL     1       1.087   6.011   0.022  0.00  0.00    -0.456 OA
BRANCH  21  22
ATOM     22  C   UNL     1       0.992   7.460   0.029  0.00  0.00    +0.271 C 
BRANCH  22  23
ATOM     23  C   UNL     1       2.376   8.055   0.018  0.00  0.00    +0.034 A 
ATOM     24  C   UNL     1       3.483   7.229   0.004  0.00  0.00    +0.043 A 
ATOM     25  C   UNL     1       4.753   7.774  -0.007  0.00  0.00    +0.127 A 
ATOM     26  C   UNL     1       4.918   9.147  -0.001  0.00  0.00    +0.042 A 
ATOM     27  C   UNL     1       3.814   9.978   0.015  0.00  0.00    +0.022 A 
ATOM     28  C   UNL     1       2.539   9.434   0.018  0.00  0.00    +0.135 A 
ATOM     29  O   UNL     1       1.444  10.239   0.021  0.00  0.00    -0.465 OA
ATOM     30  C   UNL     1       1.650  11.607   0.385  0.00  0.00    +0.394 C 
ATOM     31  O   UNL     1       2.777  12.110  -0.343  0.00  0.00    -0.339 OA
ATOM     32  C   UNL     1       4.006  11.473   0.029  0.00  0.00    +0.202 C 
BRANCH  25  33
ATOM     33  N   UNL     1       5.938   6.887  -0.024  0.00  0.00    +0.056 N 
ATOM     34  O   UNL     1       5.793   5.678  -0.029  0.00  0.00    -0.126 OA
ATOM     35  O   UNL     1       7.058   7.366  -0.033  0.00  0.00    -0.126 OA
ENDBRANCH  25  33
ENDBRANCH  22  23
ENDBRANCH  21  22
ENDBRANCH  19  21
ENDBRANCH   5  19
TORSDOF 9
