REMARK  Name = ZINC02826417
REMARK  9 active torsions:
REMARK  status: ('A' for Active; 'I' for Inactive)
REMARK    1  A    between atoms: C_1  and  C_2
REMARK    2  A    between atoms: C_2  and  C_3
REMARK    3  A    between atoms: C_3  and  O_4
REMARK    4  A    between atoms: O_4  and  C_5
REMARK    5  A    between atoms: C_5  and  C_7
REMARK    6  A    between atoms: C_8  and  C_34
REMARK    7  A    between atoms: C_12  and  C_14
REMARK    8  A    between atoms: C_17  and  N_20
REMARK    9  A    between atoms: C_26  and  C_29
REMARK                            x       y       z     vdW  Elec       q    Type
REMARK                         _______ _______ _______ _____ _____    ______ ____
ROOT
ATOM      1  C   UNL     1       2.451  -2.732   0.534  0.00  0.00    +0.065 C 
ATOM      2  C   UNL     1       3.362  -2.123   1.312  0.00  0.00    +0.016 C 
ATOM      3  N   UNL     1       3.090  -0.908   1.877  0.00  0.00    -0.321 N 
ATOM      4  C   UNL     1       2.097  -0.112   1.375  0.00  0.00    +0.016 C 
ATOM      5  C   UNL     1       1.131  -0.634   0.590  0.00  0.00    +0.024 C 
ATOM      6  C   UNL     1       1.113  -2.107   0.267  0.00  0.00    +0.092 C 
ATOM      7  C   UNL     1       0.114   0.176   0.055  0.00  0.00    +0.162 C 
ATOM      8  O   UNL     1      -0.746  -0.328  -0.640  0.00  0.00    -0.292 OA
ATOM      9  C   UNL     1       0.070   1.655   0.328  0.00  0.00    +0.088 C 
ATOM     10  C   UNL     1       1.496   2.160   0.571  0.00  0.00    +0.039 C 
ATOM     11  C   UNL     1       2.107   1.356   1.721  0.00  0.00    +0.060 C 
ATOM     12  C   UNL     1       4.694  -2.784   1.563  0.00  0.00    +0.061 C 
ATOM     13  H   UNL     1       3.672  -0.562   2.744  0.00  0.00    +0.152 HD
ENDROOT
BRANCH   6  14
ATOM     14  C   UNL     1       0.071  -2.788   1.117  0.00  0.00    -0.035 A 
ATOM     15  C   UNL     1       0.170  -2.749   2.495  0.00  0.00    +0.007 A 
ATOM     16  C   UNL     1      -0.789  -3.369   3.275  0.00  0.00    +0.033 A 
ATOM     17  C   UNL     1      -1.841  -4.036   2.676  0.00  0.00    +0.126 A 
ATOM     18  C   UNL     1      -1.937  -4.079   1.297  0.00  0.00    +0.033 A 
ATOM     19  C   UNL     1      -0.981  -3.455   0.518  0.00  0.00    +0.007 A 
BRANCH  17  20
ATOM     20  N   UNL     1      -2.864  -4.705   3.510  0.00  0.00    +0.056 N 
ATOM     21  O   UNL     1      -3.791  -5.294   2.982  0.00  0.00    -0.126 OA
ATOM     22  O   UNL     1      -2.779  -4.667   4.725  0.00  0.00    -0.126 OA
ENDBRANCH  17  20
ENDBRANCH   6  14
BRANCH  10  23
ATOM     23  C   UNL     1       1.460   3.621   0.937  0.00  0.00    -0.006 A 
ATOM     24  C   UNL     1       2.036   4.673   0.305  0.00  0.00    +0.011 A 
ATOM     25  C   UNL     1       1.867   5.942   0.827  0.00  0.00    +0.008 A 
ATOM     26  C   UNL     1       1.130   6.097   1.954  0.00  0.00    +0.045 A 
ATOM     27  S   UNL     1       0.642   4.417   2.309  0.00  0.00    -0.101 S 
ENDBRANCH  10  23
BRANCH   1  28
ATOM     28  C   UNL     1       2.759  -3.986  -0.044  0.00  0.00    +0.338 C 
ATOM     29  O   UNL     1       3.881  -4.446   0.062  0.00  0.00    -0.245 OA
BRANCH  28  30
ATOM     30  O   UNL     1       1.809  -4.671  -0.714  0.00  0.00    -0.461 OA
BRANCH  30  31
ATOM     31  C   UNL     1       2.190  -5.931  -1.272  0.00  0.00    +0.232 C 
BRANCH  31  33
ATOM     32  C   UNL     1       1.399  -7.903  -2.586  0.00  0.00    +0.007 C 
ATOM     33  C   UNL     1       0.991  -6.555  -1.988  0.00  0.00    +0.038 C 
ENDBRANCH  31  33
ENDBRANCH  30  31
ENDBRANCH  28  30
ENDBRANCH   1  28
TORSDOF 7
