REMARK  Name = ZINC36342986
REMARK  12 active torsions:
REMARK  status: ('A' for Active; 'I' for Inactive)
REMARK    1  A    between atoms: C_1  and  C_2
REMARK    2  A    between atoms: C_2  and  O_3
REMARK    3  A    between atoms: O_3  and  C_4
REMARK    4  A    between atoms: C_4  and  C_6
REMARK    5  A    between atoms: N_12  and  C_13
REMARK    6  A    between atoms: C_13  and  C_14
REMARK    7  A    between atoms: C_17  and  C_30
REMARK    8  A    between atoms: C_20  and  C_22
REMARK    9  A    between atoms: C_25  and  C_29
REMARK   10  A    between atoms: C_27  and  C_28
REMARK   11  A    between atoms: C_35  and  O_36
REMARK   12  A    between atoms: O_36  and  C_37
REMARK                            x       y       z     vdW  Elec       q    Type
REMARK                         _______ _______ _______ _____ _____    ______ ____
ROOT
ATOM      1  C   UNL     1       1.935  -5.962   1.276  0.00  0.00    +0.219 C 
ATOM      2  O   UNL     1       1.279  -6.503   2.141  0.00  0.00    -0.276 OA
ATOM      3  N   UNL     1       2.170  -6.598   0.111  0.00  0.00    -0.187 N 
ATOM      4  C   UNL     1       1.686  -7.942  -0.242  0.00  0.00    +0.140 C 
ATOM      5  C   UNL     1       2.240  -8.163  -1.664  0.00  0.00    +0.087 C 
ATOM      6  C   UNL     1       2.993  -6.887  -1.964  0.00  0.00    +0.069 C 
ATOM      7  N   UNL     1       2.904  -6.088  -0.958  0.00  0.00    -0.181 NA
ENDROOT
BRANCH   6   8
ATOM      8  C   UNL     1       3.714  -6.599  -3.218  0.00  0.00    +0.001 A 
ATOM      9  C   UNL     1       3.842  -7.587  -4.197  0.00  0.00    +0.010 A 
ATOM     10  C   UNL     1       4.518  -7.311  -5.367  0.00  0.00    +0.004 A 
ATOM     11  C   UNL     1       5.069  -6.058  -5.572  0.00  0.00    -0.050 A 
ATOM     12  C   UNL     1       4.946  -5.075  -4.607  0.00  0.00    +0.007 A 
ATOM     13  C   UNL     1       4.267  -5.335  -3.435  0.00  0.00    -0.041 A 
ATOM     14  C   UNL     1       4.129  -4.260  -2.388  0.00  0.00    +0.044 C 
ATOM     15  C   UNL     1       5.806  -5.764  -6.854  0.00  0.00    +0.044 C 
ENDBRANCH   6   8
BRANCH   4  16
ATOM     16  C   UNL     1       2.238  -8.971   0.710  0.00  0.00    +0.017 A 
ATOM     17  C   UNL     1       3.342  -8.675   1.485  0.00  0.00    +0.009 A 
ATOM     18  C   UNL     1       3.849  -9.619   2.359  0.00  0.00    +0.001 A 
ATOM     19  C   UNL     1       3.251 -10.862   2.461  0.00  0.00    +0.004 A 
ATOM     20  C   UNL     1       2.146 -11.163   1.688  0.00  0.00    +0.046 A 
ATOM     21  C   UNL     1       1.633 -10.215   0.814  0.00  0.00    +0.125 A 
BRANCH  21  22
ATOM     22  O   UNL     1       0.542 -10.508   0.058  0.00  0.00    -0.495 OA
ATOM     23  C   UNL     1      -0.028 -11.808   0.217  0.00  0.00    +0.277 C 
ENDBRANCH  21  22
ENDBRANCH   4  16
BRANCH   1  24
ATOM     24  C   UNL     1       2.488  -4.578   1.503  0.00  0.00    +0.022 C 
BRANCH  24  30
ATOM     25  C   UNL     1       2.488  -2.702   2.995  0.00  0.00    +0.043 C 
ATOM     26  C   UNL     1       2.009  -2.184   4.353  0.00  0.00    -0.004 C 
ATOM     27  C   UNL     1       2.648  -3.020   5.465  0.00  0.00    -0.003 C 
ATOM     28  C   UNL     1       2.295  -4.494   5.250  0.00  0.00    -0.019 C 
ATOM     29  C   UNL     1       2.762  -4.926   3.858  0.00  0.00    -0.077 C 
ATOM     30  N   UNL     1       2.096  -4.108   2.838  0.00  0.00    +0.394 N 
ATOM     31  H   UNL     1       1.096  -4.191   2.942  0.00  0.00    -0.080 HD
BRANCH  25  32
ATOM     32  C   UNL     1       1.862  -1.882   1.896  0.00  0.00    +0.293 C 
ATOM     33  O   UNL     1       0.811  -2.226   1.408  0.00  0.00    -0.253 OA
BRANCH  32  34
ATOM     34  O   UNL     1       2.471  -0.768   1.459  0.00  0.00    -0.466 OA
BRANCH  34  36
ATOM     35  C   UNL     1       2.659   1.188   0.053  0.00  0.00    +0.048 C 
ATOM     36  C   UNL     1       1.821  -0.040   0.415  0.00  0.00    +0.228 C 
ENDBRANCH  34  36
ENDBRANCH  32  34
ENDBRANCH  25  32
ENDBRANCH  24  30
ENDBRANCH   1  24
TORSDOF 8
