REMARK  Name = ZINC62794510
REMARK  4 active torsions:
REMARK  status: ('A' for Active; 'I' for Inactive)
REMARK    1  A    between atoms: C_1  and  C_2
REMARK    2  A    between atoms: N_7  and  C_8
REMARK    3  A    between atoms: C_11  and  C_15
REMARK    4  A    between atoms: N_16  and  O_17
REMARK                            x       y       z     vdW  Elec       q    Type
REMARK                         _______ _______ _______ _____ _____    ______ ____
ROOT
ATOM      1  C   UNL     1       2.040  -0.256   1.511  0.00  0.00    +0.049 A 
ATOM      2  C   UNL     1       2.379   0.853   2.279  0.00  0.00    +0.025 A 
ATOM      3  C   UNL     1       3.697   1.099   2.594  0.00  0.00    +0.013 A 
ATOM      4  C   UNL     1       4.695   0.233   2.142  0.00  0.00    +0.019 A 
ATOM      5  C   UNL     1       4.353  -0.880   1.371  0.00  0.00    +0.033 A 
ATOM      6  C   UNL     1       3.031  -1.124   1.064  0.00  0.00    +0.063 A 
ATOM      7 CL   UNL     1       2.604  -2.512   0.112  0.00  0.00    -0.082 Cl
ENDROOT
BRANCH   1  13
ATOM      8  C   UNL     1      -0.019   1.526   0.010  0.00  0.00    +0.028 C 
ATOM      9  C   UNL     1       0.002  -0.004   0.002  0.00  0.00    +0.070 C 
ATOM     10  C   UNL     1      -1.441  -0.549   0.056  0.00  0.00    +0.023 C 
ATOM     11  C   UNL     1      -1.311  -1.785   0.985  0.00  0.00    +0.021 C 
ATOM     12  C   UNL     1      -0.241  -1.303   1.997  0.00  0.00    +0.105 C 
ATOM     13  N   UNL     1       0.705  -0.501   1.194  0.00  0.00    -0.326 N 
ENDBRANCH   1  13
BRANCH   4  14
ATOM     14  C   UNL     1       6.111   0.494   2.478  0.00  0.00    +0.162 C 
ATOM     15  N   UNL     1       6.428   1.532   3.196  0.00  0.00    -0.072 NA
ATOM     16  N   UNL     1       7.099  -0.366   2.029  0.00  0.00    -0.340 N 
ATOM     17  H   UNL     1       6.863  -1.140   1.494  0.00  0.00    +0.144 HD
ATOM     18  H   UNL     1       8.028  -0.194   2.249  0.00  0.00    +0.144 HD
BRANCH  15  19
ATOM     19  O   UNL     1       7.785   1.783   3.517  0.00  0.00    -0.408 OA
ATOM     20  H   UNL     1       7.922   2.576   4.053  0.00  0.00    +0.328 HD
ENDBRANCH  15  19
ENDBRANCH   4  14
TORSDOF 3
