REMARK  Name = ZINC13499479
REMARK  11 active torsions:
REMARK  status: ('A' for Active; 'I' for Inactive)
REMARK    1  A    between atoms: C_1  and  C_2
REMARK    2  A    between atoms: C_2  and  C_3
REMARK    3  A    between atoms: C_3  and  C_4
REMARK    4  A    between atoms: C_4  and  C_6
REMARK    5  A    between atoms: C_4  and  N_75
REMARK    6  A    between atoms: N_10  and  C_11
REMARK    7  A    between atoms: C_17  and  C_18
REMARK    8  A    between atoms: C_17  and  N_75
REMARK    9  A    between atoms: C_22  and  C_31
REMARK   10  A    between atoms: C_23  and  C_30
REMARK   11  A    between atoms: C_32  and  N_75
REMARK                            x       y       z     vdW  Elec       q    Type
REMARK                         _______ _______ _______ _____ _____    ______ ____
ROOT
ATOM      1  N   UNL     1      -5.533   3.842  -1.131  0.00  0.00    +0.391 N 
ATOM      2  H   UNL     1      -5.571   2.819  -1.208  0.00  0.00    -0.080 HD
ENDROOT
BRANCH   1   3
ATOM      3  C   UNL     1      -4.505   4.357  -2.059  0.00  0.00    -0.067 C 
ATOM      4  C   UNL     1      -4.764   3.794  -3.472  0.00  0.00    -0.015 C 
ATOM      5  C   UNL     1      -3.347   3.516  -4.035  0.00  0.00    -0.002 C 
ATOM      6  C   UNL     1      -2.583   2.989  -2.795  0.00  0.00    -0.002 C 
ATOM      7  C   UNL     1      -3.119   3.845  -1.629  0.00  0.00    -0.015 C 
ENDBRANCH   1   3
BRANCH   1   8
ATOM      8  C   UNL     1      -6.856   4.400  -1.482  0.00  0.00    +0.003 C 
BRANCH   8   9
ATOM      9  C   UNL     1      -6.727   5.845  -1.890  0.00  0.00    +0.138 A 
ATOM     10  N   UNL     1      -5.941   6.328  -2.821  0.00  0.00    -0.115 NA
ATOM     11  N   UNL     1      -6.118   7.603  -2.869  0.00  0.00    -0.023 NA
ATOM     12  N   UNL     1      -6.998   7.946  -1.994  0.00  0.00    -0.044 NA
ATOM     13  N   UNL     1      -7.401   6.889  -1.374  0.00  0.00    -0.228 N 
BRANCH  13  14
ATOM     14  C   UNL     1      -8.402   6.836  -0.305  0.00  0.00    +0.111 C 
ATOM     15  C   UNL     1      -9.736   7.372  -0.829  0.00  0.00    +0.027 C 
ATOM     16  C   UNL     1     -10.781   7.317   0.287  0.00  0.00    +0.002 C 
ATOM     17  C   UNL     1     -10.314   8.173   1.466  0.00  0.00    +0.000 C 
ATOM     18  C   UNL     1      -8.980   7.637   1.990  0.00  0.00    +0.002 C 
ATOM     19  C   UNL     1      -7.935   7.693   0.874  0.00  0.00    +0.027 C 
ENDBRANCH  13  14
ENDBRANCH   8   9
BRANCH   8  20
ATOM     20  C   UNL     1      -7.434   3.591  -2.646  0.00  0.00    -0.008 C 
BRANCH  20  22
ATOM     21  C   UNL     1      -8.069   1.301  -3.414  0.00  0.00    +0.004 C 
ATOM     22  C   UNL     1      -7.608   2.133  -2.216  0.00  0.00    -0.005 C 
ENDBRANCH  20  22
ENDBRANCH   8  20
ENDBRANCH   1   8
BRANCH   1  23
ATOM     23  C   UNL     1      -5.185   4.205   0.259  0.00  0.00    -0.036 C 
BRANCH  23  24
ATOM     24  C   UNL     1      -5.859   3.233   1.194  0.00  0.00    +0.001 A 
ATOM     25  C   UNL     1      -5.207   2.111   1.585  0.00  0.00    +0.017 A 
ATOM     26  C   UNL     1      -5.888   1.187   2.494  0.00  0.00    -0.001 A 
ATOM     27  C   UNL     1      -5.267   0.013   2.932  0.00  0.00    +0.013 A 
ATOM     28  C   UNL     1      -5.931  -0.829   3.779  0.00  0.00    -0.047 A 
ATOM     29  C   UNL     1      -7.216  -0.528   4.210  0.00  0.00    -0.046 A 
ATOM     30  C   UNL     1      -7.847   0.622   3.791  0.00  0.00    +0.030 A 
ATOM     31  C   UNL     1      -7.194   1.491   2.923  0.00  0.00    +0.049 A 
ATOM     32  N   UNL     1      -7.800   2.653   2.493  0.00  0.00    -0.322 N 
ATOM     33  H   UNL     1      -8.697   2.863   2.793  0.00  0.00    +0.169 HD
ATOM     34  C   UNL     1      -7.165   3.495   1.658  0.00  0.00    +0.251 A 
ATOM     35  O   UNL     1      -7.734   4.510   1.294  0.00  0.00    -0.268 OA
ATOM     36  C   UNL     1      -7.928  -1.471   5.146  0.00  0.00    +0.044 C 
ATOM     37  C   UNL     1      -5.261  -2.094   4.251  0.00  0.00    +0.044 C 
ENDBRANCH  23  24
ENDBRANCH   1  23
TORSDOF 8
