REMARK  Name = ZINC37697256
REMARK  6 active torsions:
REMARK  status: ('A' for Active; 'I' for Inactive)
REMARK    1  A    between atoms: C_1  and  C_2
REMARK    2  A    between atoms: C_7  and  S_9
REMARK    3  A    between atoms: S_9  and  C_10
REMARK    4  A    between atoms: C_10  and  C_11
REMARK    5  A    between atoms: C_11  and  C_13
REMARK    6  A    between atoms: C_11  and  O_14
REMARK                            x       y       z     vdW  Elec       q    Type
REMARK                         _______ _______ _______ _____ _____    ______ ____
ROOT
ATOM      1  C   UNL     1      -0.018   1.503   0.010  0.00  0.00    +0.066 C 
ATOM      2  C   UNL     1       0.002  -0.004   0.002  0.00  0.00    +0.046 A 
ATOM      3  C   UNL     1       0.006  -0.696  -1.195  0.00  0.00    +0.095 A 
ATOM      4  C   UNL     1       0.025  -2.090  -1.157  0.00  0.00    +0.274 A 
ATOM      5  O   UNL     1       0.030  -2.808  -2.307  0.00  0.00    -0.266 OA
ATOM      6  N   UNL     1       0.039  -2.704   0.019  0.00  0.00    -0.183 NA
ATOM      7  C   UNL     1       0.035  -2.005   1.145  0.00  0.00    +0.192 A 
ATOM      8  N   UNL     1       0.022  -0.679   1.141  0.00  0.00    -0.227 NA
ENDROOT
BRANCH   7   9
ATOM      9  S   UNL     1       0.053  -2.859   2.687  0.00  0.00    -0.083 S 
BRANCH   9  10
ATOM     10  C   UNL     1       0.075  -4.611   2.217  0.00  0.00    +0.108 C 
BRANCH  10  11
ATOM     11  C   UNL     1       0.092  -5.476   3.479  0.00  0.00    +0.122 C 
ATOM     12  C   UNL     1       0.111  -6.954   3.083  0.00  0.00    +0.038 C 
BRANCH  11  13
ATOM     13  O   UNL     1       1.259  -5.175   4.247  0.00  0.00    -0.391 OA
ATOM     14  H   UNL     1       1.336  -5.688   5.064  0.00  0.00    +0.210 HD
ENDBRANCH  11  13
ENDBRANCH  10  11
ENDBRANCH   9  10
ENDBRANCH   7   9
TORSDOF 4
