REMARK  Name = ZINC11890676
REMARK  14 active torsions:
REMARK  status: ('A' for Active; 'I' for Inactive)
REMARK    1  A    between atoms: C_1  and  C_2
REMARK    2  A    between atoms: C_2  and  N_3
REMARK    3  A    between atoms: C_7  and  S_8
REMARK    4  A    between atoms: S_8  and  C_9
REMARK    5  A    between atoms: C_9  and  C_10
REMARK    6  A    between atoms: N_12  and  C_13
REMARK    7  A    between atoms: C_14  and  C_25
REMARK    8  A    between atoms: C_18  and  C_23
REMARK    9  A    between atoms: C_18  and  C_24
REMARK   10  A    between atoms: C_19  and  C_21
REMARK   11  A    between atoms: C_19  and  C_22
REMARK   12  A    between atoms: C_25  and  O_27
REMARK   13  A    between atoms: O_27  and  C_28
REMARK   14  A    between atoms: C_28  and  C_29
REMARK                            x       y       z     vdW  Elec       q    Type
REMARK                         _______ _______ _______ _____ _____    ______ ____
ROOT
ATOM      1  C   UNL     1      -4.601   1.689  -1.591  0.00  0.00    +0.086 A 
ATOM      2  C   UNL     1      -4.010   0.963  -0.561  0.00  0.00    +0.091 A 
ATOM      3  C   UNL     1      -2.937   1.603   0.170  0.00  0.00    -0.024 A 
ATOM      4  C   UNL     1      -2.631   2.860  -0.224  0.00  0.00    -0.016 A 
ATOM      5  S   UNL     1      -3.739   3.191  -1.563  0.00  0.00    -0.079 S 
ATOM      6  C   UNL     1      -1.581   3.746   0.364  0.00  0.00    -0.041 C 
ATOM      7  C   UNL     1      -0.730   1.580   1.268  0.00  0.00    -0.069 C 
ATOM      8  C   UNL     1      -2.142   0.984   1.312  0.00  0.00    +0.024 C 
ATOM      9  C   UNL     1      -0.013   1.086   0.008  0.00  0.00    -0.010 C 
ATOM     10  C   UNL     1       0.044   1.050   2.490  0.00  0.00    -0.010 C 
ATOM     11  C   UNL     1      -2.282   4.916   1.082  0.00  0.00    -0.005 C 
ATOM     12  C   UNL     1      -0.719   4.331  -0.763  0.00  0.00    -0.005 C 
ATOM     13  N   UNL     1      -0.713   3.062   1.365  0.00  0.00    +0.389 N 
ATOM     14  H   UNL     1      -1.033   3.327   2.304  0.00  0.00    -0.084 HD
ATOM     15  H   UNL     1       0.252   3.384   1.228  0.00  0.00    -0.084 HD
ENDROOT
BRANCH   1  18
ATOM     16  C   UNL     1      -6.080   2.146  -3.382  0.00  0.00    +0.228 C 
ATOM     17  O   UNL     1      -5.581   3.245  -3.501  0.00  0.00    -0.275 OA
ATOM     18  N   UNL     1      -5.632   1.302  -2.432  0.00  0.00    -0.279 N 
ATOM     19  H   UNL     1      -6.032   0.423  -2.338  0.00  0.00    +0.155 HD
BRANCH  16  20
ATOM     20  C   UNL     1      -7.201   1.726  -4.297  0.00  0.00    +0.173 C 
BRANCH  20  21
ATOM     21  S   UNL     1      -7.572   3.067  -5.454  0.00  0.00    -0.078 S 
BRANCH  21  26
ATOM     22  N   UNL     1      -9.553   2.903  -7.406  0.00  0.00    -0.326 N 
ATOM     23  C   UNL     1     -10.485   1.987  -7.840  0.00  0.00    +0.108 A 
ATOM     24  C   UNL     1     -10.349   0.895  -7.070  0.00  0.00    +0.131 A 
ATOM     25  N   UNL     1      -9.361   1.119  -6.188  0.00  0.00    -0.230 NA
ATOM     26  C   UNL     1      -8.878   2.325  -6.375  0.00  0.00    +0.169 A 
BRANCH  22  28
ATOM     27  C   UNL     1      -8.203   4.195  -8.984  0.00  0.00    +0.027 C 
ATOM     28  C   UNL     1      -9.331   4.245  -7.951  0.00  0.00    +0.120 C 
ENDBRANCH  22  28
ENDBRANCH  21  26
ENDBRANCH  20  21
ENDBRANCH  16  20
ENDBRANCH   1  18
BRANCH   2  29
ATOM     29  C   UNL     1      -4.465  -0.391  -0.239  0.00  0.00    +0.342 C 
ATOM     30  O   UNL     1      -5.354  -0.557   0.575  0.00  0.00    -0.245 OA
BRANCH  29  31
ATOM     31  O   UNL     1      -3.899  -1.455  -0.845  0.00  0.00    -0.461 OA
BRANCH  31  32
ATOM     32  C   UNL     1      -4.400  -2.767  -0.477  0.00  0.00    +0.229 C 
ATOM     33  C   UNL     1      -3.643  -3.841  -1.262  0.00  0.00    +0.048 C 
ENDBRANCH  31  32
ENDBRANCH  29  31
ENDBRANCH   2  29
TORSDOF 8
