REMARK  Name = ZINC14882404
REMARK  13 active torsions:
REMARK  status: ('A' for Active; 'I' for Inactive)
REMARK    1  A    between atoms: C_1  and  C_2
REMARK    2  A    between atoms: C_2  and  N_3
REMARK    3  A    between atoms: N_3  and  C_4
REMARK    4  A    between atoms: C_4  and  C_6
REMARK    5  A    between atoms: C_4  and  C_13
REMARK    6  A    between atoms: C_6  and  C_7
REMARK    7  A    between atoms: C_18  and  C_19
REMARK    8  A    between atoms: C_18  and  N_79
REMARK    9  A    between atoms: C_19  and  C_20
REMARK   10  A    between atoms: C_20  and  C_22
REMARK   11  A    between atoms: C_20  and  C_23
REMARK   12  A    between atoms: C_26  and  C_28
REMARK   13  A    between atoms: C_29  and  C_31
REMARK                            x       y       z     vdW  Elec       q    Type
REMARK                         _______ _______ _______ _____ _____    ______ ____
ROOT
ATOM      1  C   UNL     1      -6.986  -2.763   2.276  0.00  0.00    +0.083 C 
ENDROOT
BRANCH   1   2
ATOM      2  C   UNL     1      -5.506  -2.388   2.180  0.00  0.00    +0.006 C 
ATOM      3  C   UNL     1      -5.015  -2.607   0.746  0.00  0.00    -0.013 C 
ATOM      4  C   UNL     1      -3.551  -2.173   0.642  0.00  0.00    -0.079 C 
ATOM      5  C   UNL     1      -3.853  -0.530   2.397  0.00  0.00    -0.079 C 
ATOM      6  C   UNL     1      -5.326  -0.914   2.554  0.00  0.00    -0.013 C 
ATOM      7  N   UNL     1      -3.449  -0.740   0.990  0.00  0.00    +0.380 N 
ATOM      8  H   UNL     1      -4.077  -0.203   0.380  0.00  0.00    -0.082 HD
BRANCH   7   9
ATOM      9  C   UNL     1      -2.063  -0.269   0.787  0.00  0.00    -0.078 C 
BRANCH   9  10
ATOM     10  C   UNL     1      -2.034   1.254   0.939  0.00  0.00    -0.008 C 
BRANCH  10  11
ATOM     11  C   UNL     1      -0.609   1.762   0.708  0.00  0.00    +0.050 C 
ATOM     12  C   UNL     1      -0.200   1.491  -0.741  0.00  0.00    +0.015 C 
BRANCH  11  13
ATOM     13  C   UNL     1      -0.555   3.243   0.977  0.00  0.00    +0.108 A 
ATOM     14  C   UNL     1       0.209   3.847   1.905  0.00  0.00    +0.045 A 
ATOM     15  C   UNL     1      -0.050   5.233   1.811  0.00  0.00    +0.044 A 
ATOM     16  C   UNL     1      -0.963   5.394   0.836  0.00  0.00    +0.102 A 
ATOM     17  O   UNL     1      -1.265   4.185   0.335  0.00  0.00    -0.465 OA
ATOM     18  C   UNL     1      -1.548   6.707   0.384  0.00  0.00    +0.086 C 
ENDBRANCH  11  13
ENDBRANCH  10  11
ENDBRANCH   9  10
ENDBRANCH   7   9
ENDBRANCH   1   2
BRANCH   1  19
ATOM     19  N   UNL     1      -7.422  -2.675   3.672  0.00  0.00    -0.298 N 
ATOM     20  C   UNL     1      -7.561  -1.471   4.260  0.00  0.00    +0.219 C 
ATOM     21  O   UNL     1      -7.404  -0.458   3.612  0.00  0.00    -0.275 OA
BRANCH  20  22
ATOM     22  C   UNL     1      -7.910  -1.383   5.723  0.00  0.00    +0.079 C 
ATOM     23  C   UNL     1      -9.425  -1.532   5.898  0.00  0.00    +0.041 C 
ATOM     24  C   UNL     1      -9.779  -1.363   7.378  0.00  0.00    +0.160 C 
ATOM     25  O   UNL     1      -9.320  -0.088   7.833  0.00  0.00    -0.380 OA
ATOM     26  C   UNL     1      -7.905   0.091   7.738  0.00  0.00    +0.160 C 
ATOM     27  C   UNL     1      -7.476  -0.020   6.273  0.00  0.00    +0.041 C 
ENDBRANCH  20  22
BRANCH  19  29
ATOM     28  C   UNL     1      -6.405  -4.459   5.000  0.00  0.00    +0.024 C 
ATOM     29  C   UNL     1      -7.708  -3.897   4.428  0.00  0.00    +0.105 C 
ENDBRANCH  19  29
ENDBRANCH   1  19
BRANCH   1  30
ATOM     30  C   UNL     1      -7.812  -1.800   1.422  0.00  0.00    +0.058 C 
BRANCH  30  31
ATOM     31  C   UNL     1      -9.243  -2.272   1.373  0.00  0.00    -0.046 A 
ATOM     32  C   UNL     1      -9.609  -3.275   0.495  0.00  0.00    +0.004 A 
ATOM     33  C   UNL     1     -10.920  -3.713   0.453  0.00  0.00    +0.000 A 
ATOM     34  C   UNL     1     -11.866  -3.140   1.282  0.00  0.00    +0.000 A 
ATOM     35  C   UNL     1     -11.501  -2.133   2.156  0.00  0.00    +0.000 A 
ATOM     36  C   UNL     1     -10.189  -1.699   2.201  0.00  0.00    +0.004 A 
ENDBRANCH  30  31
ENDBRANCH   1  30
TORSDOF 10
