REMARK  Name = ZINC15986288
REMARK  7 active torsions:
REMARK  status: ('A' for Active; 'I' for Inactive)
REMARK    1  A    between atoms: C_1  and  C_2
REMARK    2  A    between atoms: C_5  and  N_9
REMARK    3  A    between atoms: C_6  and  C_8
REMARK    4  A    between atoms: N_9  and  C_10
REMARK    5  A    between atoms: C_10  and  N_12
REMARK    6  A    between atoms: C_18  and  C_27
REMARK    7  A    between atoms: C_21  and  C_26
REMARK                            x       y       z     vdW  Elec       q    Type
REMARK                         _______ _______ _______ _____ _____    ______ ____
ROOT
ATOM      1  N   UNL     1      -0.045  -6.197  -1.185  0.00  0.00    -0.268 N 
ATOM      2  C   UNL     1      -0.200  -6.872  -2.379  0.00  0.00    +0.194 C 
ATOM      3  N   UNL     1      -0.142  -6.223  -3.506  0.00  0.00    -0.270 NA
ATOM      4  N   UNL     1      -0.415  -8.233  -2.378  0.00  0.00    -0.297 N 
ATOM      5  C   UNL     1      -0.607  -8.905  -1.180  0.00  0.00    +0.231 A 
ATOM      6  N   UNL     1      -0.681 -10.234  -1.197  0.00  0.00    -0.217 NA
ATOM      7  C   UNL     1      -0.862 -10.928  -0.093  0.00  0.00    +0.051 A 
ATOM      8  C   UNL     1      -0.978 -10.233   1.125  0.00  0.00    +0.022 A 
ATOM      9  C   UNL     1      -1.171 -10.897   2.345  0.00  0.00    +0.015 A 
ATOM     10  C   UNL     1      -1.276 -10.172   3.494  0.00  0.00    -0.050 A 
ATOM     11  C   UNL     1      -1.194  -8.781   3.474  0.00  0.00    +0.005 A 
ATOM     12  C   UNL     1      -1.007  -8.105   2.307  0.00  0.00    +0.029 A 
ATOM     13  C   UNL     1      -0.894  -8.817   1.104  0.00  0.00    +0.077 A 
ATOM     14  N   UNL     1      -0.704  -8.201  -0.070  0.00  0.00    -0.212 NA
ATOM     15  C   UNL     1      -1.485 -10.885   4.805  0.00  0.00    +0.044 C 
ATOM     16  C   UNL     1      -0.944 -12.432  -0.133  0.00  0.00    +0.066 C 
ATOM     17  H   UNL     1       0.005  -6.691  -0.352  0.00  0.00    +0.157 HD
ATOM     18  H   UNL     1      -0.178  -6.706  -4.346  0.00  0.00    +0.190 HD
ATOM     19  H   UNL     1      -0.432  -8.722  -3.216  0.00  0.00    +0.171 HD
ENDROOT
BRANCH   1  20
ATOM     20  C   UNL     1       0.035  -4.852  -1.177  0.00  0.00    +0.141 C 
ATOM     21  S   UNL     1      -0.054  -3.980  -2.648  0.00  0.00    -0.018 S 
BRANCH  20  22
ATOM     22  N   UNL     1       0.186  -4.193  -0.011  0.00  0.00    -0.296 N 
ATOM     23  H   UNL     1       0.306  -4.689   0.814  0.00  0.00    +0.154 HD
BRANCH  22  28
ATOM     24  C   UNL     1       0.112   1.478   0.070  0.00  0.00    +0.044 C 
ATOM     25  C   UNL     1       0.131  -0.028   0.049  0.00  0.00    -0.050 A 
ATOM     26  C   UNL     1       0.879  -0.695  -0.905  0.00  0.00    +0.005 A 
ATOM     27  C   UNL     1       0.899  -2.075  -0.927  0.00  0.00    +0.024 A 
ATOM     28  C   UNL     1       0.168  -2.795   0.009  0.00  0.00    +0.036 A 
ATOM     29  C   UNL     1      -0.582  -2.122   0.966  0.00  0.00    -0.029 A 
ATOM     30  C   UNL     1      -0.594  -0.741   0.986  0.00  0.00    +0.008 A 
ATOM     31  C   UNL     1      -1.377  -2.898   1.984  0.00  0.00    +0.045 C 
ENDBRANCH  22  28
ENDBRANCH  20  22
ENDBRANCH   1  20
TORSDOF 3
