REMARK  Name = ZINC19840770
REMARK  5 active torsions:
REMARK  status: ('A' for Active; 'I' for Inactive)
REMARK    1  A    between atoms: C_1  and  C_2
REMARK    2  A    between atoms: C_2  and  N_3
REMARK    3  A    between atoms: C_5  and  C_9
REMARK    4  A    between atoms: C_6  and  C_8
REMARK    5  A    between atoms: C_14  and  C_15
REMARK                            x       y       z     vdW  Elec       q    Type
REMARK                         _______ _______ _______ _____ _____    ______ ____
ROOT
ATOM      1  C   UNL     1       2.364   1.585   3.659  0.00  0.00    +0.011 A 
ATOM      2  C   UNL     1       1.815   1.316   2.394  0.00  0.00    -0.017 A 
ATOM      3  C   UNL     1       1.930   2.253   1.401  0.00  0.00    +0.047 A 
ATOM      4  N   UNL     1       2.525   3.420   1.636  0.00  0.00    -0.236 NA
ATOM      5  C   UNL     1       3.051   3.735   2.803  0.00  0.00    +0.135 A 
ATOM      6  C   UNL     1       3.004   2.821   3.869  0.00  0.00    +0.099 A 
ATOM      7  N   UNL     1       3.652   4.970   2.979  0.00  0.00    -0.342 N 
ATOM      8  C   UNL     1       1.431   2.012  -0.001  0.00  0.00    +0.056 C 
ATOM      9  C   UNL     1      -0.019   1.522   0.010  0.00  0.00    +0.006 C 
ATOM     10  C   UNL     1       0.002  -0.004   0.002  0.00  0.00    +0.001 C 
ATOM     11  C   UNL     1       1.224  -0.506   0.774  0.00  0.00    +0.005 C 
ATOM     12  C   UNL     1       1.122  -0.011   2.216  0.00  0.00    +0.037 C 
ATOM     13  H   UNL     1       4.092   5.234   3.952  0.00  0.00    +0.144 HD
ATOM     14  H   UNL     1       3.689   5.687   2.146  0.00  0.00    +0.144 HD
ENDROOT
BRANCH   1  17
ATOM     15  N   UNL     1       2.720  -1.084   6.090  0.00  0.00    -0.271 N 
ATOM     16  C   UNL     1       3.173  -0.402   5.021  0.00  0.00    +0.117 A 
ATOM     17  C   UNL     1       2.270   0.588   4.750  0.00  0.00    +0.024 A 
ATOM     18  C   UNL     1       1.229   0.482   5.696  0.00  0.00    +0.068 A 
ATOM     19  N   UNL     1       1.505  -0.517   6.491  0.00  0.00    -0.176 NA
ATOM     20  C   UNL     1       0.012   1.367   5.776  0.00  0.00    +0.068 C 
BRANCH  15  22
ATOM     21  C   UNL     1       3.579  -1.945   8.212  0.00  0.00    +0.029 C 
ATOM     22  C   UNL     1       3.383  -2.228   6.721  0.00  0.00    +0.140 C 
ENDBRANCH  15  22
ENDBRANCH   1  17
BRANCH   6  23
ATOM     23  C   UNL     1       3.592   3.138   5.136  0.00  0.00    +0.103 C 
ATOM     24  N   UNL     1       4.058   3.389   6.141  0.00  0.00    -0.191 NA
ENDBRANCH   6  23
TORSDOF 3
