REMARK  Name = ZINC03773130
REMARK  14 active torsions:
REMARK  status: ('A' for Active; 'I' for Inactive)
REMARK    1  A    between atoms: C_1  and  C_2
REMARK    2  A    between atoms: C_2  and  C_3
REMARK    3  A    between atoms: C_2  and  C_4
REMARK    4  A    between atoms: C_4  and  C_6
REMARK    5  A    between atoms: C_4  and  N_19
REMARK    6  A    between atoms: N_8  and  C_9
REMARK    7  A    between atoms: C_12  and  O_17
REMARK    8  A    between atoms: C_14  and  O_15
REMARK    9  A    between atoms: O_15  and  C_16
REMARK   10  A    between atoms: O_17  and  C_18
REMARK   11  A    between atoms: N_19  and  C_20
REMARK   12  A    between atoms: C_20  and  C_21
REMARK   13  A    between atoms: C_28  and  C_30
REMARK   14  A    between atoms: C_30  and  N_31
REMARK                            x       y       z     vdW  Elec       q    Type
REMARK                         _______ _______ _______ _____ _____    ______ ____
ROOT
ATOM      1  N   UNL     1      -2.716   0.389  -1.614  0.00  0.00    -0.284 N 
ATOM      2  C   UNL     1      -3.768   0.746  -0.850  0.00  0.00    +0.238 C 
ATOM      3  O   UNL     1      -3.690   0.679   0.359  0.00  0.00    -0.274 OA
ENDROOT
BRANCH   1   4
ATOM      4  C   UNL     1      -1.503  -0.141  -0.988  0.00  0.00    +0.165 C 
BRANCH   4   5
ATOM      5  C   UNL     1      -1.325  -1.585  -1.381  0.00  0.00    +0.238 C 
ATOM      6  O   UNL     1      -0.243  -1.981  -1.762  0.00  0.00    -0.273 OA
ATOM      7  N   UNL     1      -2.367  -2.436  -1.310  0.00  0.00    -0.281 N 
ATOM      8  H   UNL     1      -3.250  -2.104  -1.083  0.00  0.00    +0.155 HD
BRANCH   7   9
ATOM      9  C   UNL     1      -2.175  -3.803  -1.563  0.00  0.00    +0.076 A 
ATOM     10  C   UNL     1      -0.898  -4.342  -1.531  0.00  0.00    +0.030 A 
ATOM     11  C   UNL     1      -0.709  -5.688  -1.780  0.00  0.00    +0.047 A 
ATOM     12  C   UNL     1      -1.796  -6.503  -2.063  0.00  0.00    +0.124 A 
ATOM     13  C   UNL     1      -3.075  -5.968  -2.096  0.00  0.00    +0.093 A 
ATOM     14  C   UNL     1      -3.268  -4.621  -1.841  0.00  0.00    +0.145 A 
BRANCH  14  15
ATOM     15  O   UNL     1      -4.522  -4.096  -1.867  0.00  0.00    -0.493 OA
ATOM     16  C   UNL     1      -5.595  -4.993  -2.159  0.00  0.00    +0.277 C 
ENDBRANCH  14  15
BRANCH  12  17
ATOM     17  O   UNL     1      -1.606  -7.827  -2.308  0.00  0.00    -0.495 OA
ATOM     18  C   UNL     1      -0.263  -8.310  -2.257  0.00  0.00    +0.277 C 
ENDBRANCH  12  17
ENDBRANCH   7   9
ENDBRANCH   4   5
BRANCH   4  20
ATOM     19  C   UNL     1      -0.542   2.155  -1.200  0.00  0.00    +0.009 C 
ATOM     20  C   UNL     1      -0.292   0.668  -1.457  0.00  0.00    +0.012 C 
ATOM     21  C   UNL     1       0.951   0.220  -0.685  0.00  0.00    +0.009 C 
ENDBRANCH   4  20
ENDBRANCH   1   4
BRANCH   1  22
ATOM     22  C   UNL     1      -2.787   0.533  -3.070  0.00  0.00    +0.146 C 
BRANCH  22  23
ATOM     23  C   UNL     1      -2.888  -0.831  -3.704  0.00  0.00    +0.005 A 
ATOM     24  C   UNL     1      -1.757  -1.442  -4.213  0.00  0.00    +0.008 A 
ATOM     25  C   UNL     1      -1.849  -2.692  -4.795  0.00  0.00    +0.000 A 
ATOM     26  C   UNL     1      -3.072  -3.333  -4.869  0.00  0.00    +0.003 A 
ATOM     27  C   UNL     1      -4.203  -2.724  -4.361  0.00  0.00    +0.038 A 
ATOM     28  C   UNL     1      -4.112  -1.474  -3.773  0.00  0.00    +0.128 A 
ATOM     29  F   UNL     1      -5.217  -0.880  -3.272  0.00  0.00    -0.205 F 
ENDBRANCH  22  23
ENDBRANCH   1  22
BRANCH   2  30
ATOM     30  C   UNL     1      -5.041   1.228  -1.497  0.00  0.00    +0.241 C 
BRANCH  30  31
ATOM     31  N   UNL     1      -5.946   1.745  -0.468  0.00  0.00    -0.235 N 
ATOM     32  C   UNL     1      -6.891   1.031   0.231  0.00  0.00    +0.090 A 
ATOM     33  C   UNL     1      -7.296  -0.299   0.225  0.00  0.00    +0.029 A 
ATOM     34  C   UNL     1      -8.293  -0.709   1.065  0.00  0.00    +0.002 A 
ATOM     35  C   UNL     1      -8.907   0.192   1.926  0.00  0.00    +0.002 A 
ATOM     36  C   UNL     1      -8.527   1.502   1.951  0.00  0.00    +0.032 A 
ATOM     37  C   UNL     1      -7.507   1.948   1.100  0.00  0.00    +0.113 A 
ATOM     38  N   UNL     1      -6.931   3.150   0.902  0.00  0.00    -0.129 NA
ATOM     39  N   UNL     1      -6.017   3.065   0.002  0.00  0.00    -0.064 NA
ENDBRANCH  30  31
ENDBRANCH   2  30
TORSDOF 10
