REMARK  Name = ZINC15974586
REMARK  10 active torsions:
REMARK  status: ('A' for Active; 'I' for Inactive)
REMARK    1  A    between atoms: C_1  and  C_2
REMARK    2  A    between atoms: C_8  and  N_13
REMARK    3  A    between atoms: C_9  and  O_12
REMARK    4  A    between atoms: N_14  and  C_15
REMARK    5  A    between atoms: C_15  and  C_17
REMARK    6  A    between atoms: C_17  and  N_28
REMARK    7  A    between atoms: C_18  and  C_19
REMARK    8  A    between atoms: C_19  and  C_27
REMARK    9  A    between atoms: C_20  and  C_21
REMARK   10  A    between atoms: C_29  and  C_31
REMARK                            x       y       z     vdW  Elec       q    Type
REMARK                         _______ _______ _______ _____ _____    ______ ____
ROOT
ATOM      1  C   UNL     1       0.249  -5.242   6.664  0.00  0.00    +0.100 C 
ATOM      2  C   UNL     1       0.229  -4.819   7.960  0.00  0.00    +0.032 C 
ENDROOT
BRANCH   1   3
ATOM      3  N   UNL     1      -0.087  -6.560   6.354  0.00  0.00    -0.277 N 
ATOM      4  C   UNL     1      -1.044  -6.815   5.441  0.00  0.00    +0.248 C 
ATOM      5  O   UNL     1      -1.605  -5.896   4.875  0.00  0.00    -0.270 OA
ATOM      6  H   UNL     1       0.368  -7.294   6.797  0.00  0.00    +0.155 HD
BRANCH   4   7
ATOM      7  C   UNL     1      -1.413  -8.211   5.125  0.00  0.00    +0.037 A 
ATOM      8  C   UNL     1      -0.775  -9.268   5.777  0.00  0.00    +0.013 A 
ATOM      9  C   UNL     1      -1.124 -10.569   5.478  0.00  0.00    +0.001 A 
ATOM     10  C   UNL     1      -2.103 -10.827   4.535  0.00  0.00    +0.000 A 
ATOM     11  C   UNL     1      -2.739  -9.784   3.885  0.00  0.00    +0.001 A 
ATOM     12  C   UNL     1      -2.404  -8.478   4.179  0.00  0.00    +0.013 A 
ENDBRANCH   4   7
ENDBRANCH   1   3
BRANCH   2  13
ATOM     13  C   UNL     1      -0.550  -5.507   8.913  0.00  0.00    -0.048 C 
ATOM     14  C   UNL     1      -0.586  -5.075  10.196  0.00  0.00    +0.011 C 
ATOM     15  C   UNL     1      -1.341  -6.722   8.504  0.00  0.00    +0.044 C 
BRANCH  14  16
ATOM     16  C   UNL     1      -1.451  -5.750  11.174  0.00  0.00    -0.025 A 
ATOM     17  C   UNL     1      -1.969  -5.040  12.263  0.00  0.00    +0.008 A 
ATOM     18  C   UNL     1      -2.779  -5.681  13.176  0.00  0.00    +0.001 A 
ATOM     19  C   UNL     1      -3.080  -7.022  13.018  0.00  0.00    +0.000 A 
ATOM     20  C   UNL     1      -2.572  -7.732  11.944  0.00  0.00    +0.001 A 
ATOM     21  C   UNL     1      -1.765  -7.105  11.018  0.00  0.00    +0.008 A 
ENDBRANCH  14  16
ENDBRANCH   2  13
BRANCH   1  22
ATOM     22  C   UNL     1       0.625  -4.311   5.595  0.00  0.00    +0.299 C 
ATOM     23  O   UNL     1       0.919  -3.159   5.865  0.00  0.00    -0.265 OA
BRANCH  22  25
ATOM     24  N   UNL     1       0.976  -3.910   3.373  0.00  0.00    -0.151 NA
ATOM     25  N   UNL     1       0.646  -4.729   4.313  0.00  0.00    -0.074 NA
BRANCH  24  33
ATOM     26  C   UNL     1       2.425  -0.309  -0.757  0.00  0.00    +0.044 C 
ATOM     27  C   UNL     1       2.003  -1.740  -0.549  0.00  0.00    -0.050 A 
ATOM     28  C   UNL     1       1.883  -2.590  -1.637  0.00  0.00    +0.005 A 
ATOM     29  C   UNL     1       1.498  -3.903  -1.464  0.00  0.00    +0.026 A 
ATOM     30  C   UNL     1       1.226  -4.385  -0.189  0.00  0.00    +0.051 A 
ATOM     31  C   UNL     1       1.349  -3.524   0.911  0.00  0.00    +0.031 A 
ATOM     32  C   UNL     1       1.744  -2.202   0.725  0.00  0.00    +0.015 A 
ATOM     33  C   UNL     1       0.996  -4.325   2.101  0.00  0.00    +0.152 A 
ATOM     34  C   UNL     1       0.689  -5.604   1.629  0.00  0.00    +0.219 A 
ATOM     35  N   UNL     1       0.828  -5.626   0.281  0.00  0.00    -0.324 N 
ATOM     36  H   UNL     1       0.671  -6.404  -0.277  0.00  0.00    +0.169 HD
BRANCH  34  37
ATOM     37  O   UNL     1       0.314  -6.651   2.394  0.00  0.00    -0.492 OA
ATOM     38  H   UNL     1      -0.642  -6.719   2.526  0.00  0.00    +0.294 HD
ENDBRANCH  34  37
ENDBRANCH  24  33
ENDBRANCH  22  25
ENDBRANCH   1  22
TORSDOF 8
