REMARK  Name = ZINC66844317
REMARK  8 active torsions:
REMARK  status: ('A' for Active; 'I' for Inactive)
REMARK    1  A    between atoms: C_1  and  N_2
REMARK    2  A    between atoms: N_2  and  C_3
REMARK    3  A    between atoms: N_2  and  C_15
REMARK    4  A    between atoms: C_3  and  C_4
REMARK    5  A    between atoms: N_6  and  C_7
REMARK    6  A    between atoms: C_15  and  C_16
REMARK    7  A    between atoms: N_21  and  C_22
REMARK    8  A    between atoms: C_22  and  C_23
REMARK                            x       y       z     vdW  Elec       q    Type
REMARK                         _______ _______ _______ _____ _____    ______ ____
ROOT
ATOM      1  C   UNL     1      -0.025   1.462   0.003  0.00  0.00    -0.095 C 
ATOM      2  N   UNL     1       0.003  -0.007   0.003  0.00  0.00    +0.389 N 
ATOM      3  H   UNL     1       0.493  -0.334   0.822  0.00  0.00    -0.081 HD
ENDROOT
BRANCH   2   4
ATOM      4  C   UNL     1       0.691  -0.484  -1.204  0.00  0.00    +0.019 C 
BRANCH   4   5
ATOM      5  C   UNL     1       2.136  -0.058  -1.159  0.00  0.00    +0.201 C 
ATOM      6  O   UNL     1       2.551   0.580  -0.214  0.00  0.00    -0.278 OA
ATOM      7  N   UNL     1       2.967  -0.387  -2.168  0.00  0.00    -0.287 N 
ATOM      8  H   UNL     1       2.653  -0.953  -2.890  0.00  0.00    +0.155 HD
BRANCH   7   9
ATOM      9  C   UNL     1       4.283   0.090  -2.174  0.00  0.00    +0.039 A 
ATOM     10  C   UNL     1       4.896   0.421  -3.374  0.00  0.00    +0.061 A 
ATOM     11  C   UNL     1       6.197   0.892  -3.378  0.00  0.00    +0.128 A 
ATOM     12  C   UNL     1       6.887   1.032  -2.186  0.00  0.00    +0.076 A 
ATOM     13  C   UNL     1       6.277   0.702  -0.988  0.00  0.00    +0.128 A 
ATOM     14  C   UNL     1       4.974   0.237  -0.979  0.00  0.00    +0.061 A 
ATOM     15  F   UNL     1       6.953   0.839   0.174  0.00  0.00    -0.205 F 
ATOM     16  F   UNL     1       6.795   1.215  -4.546  0.00  0.00    -0.205 F 
ENDBRANCH   7   9
ENDBRANCH   4   5
ENDBRANCH   2   4
BRANCH   2  17
ATOM     17  C   UNL     1      -1.373  -0.522   0.018  0.00  0.00    +0.019 C 
BRANCH  17  18
ATOM     18  C   UNL     1      -2.040  -0.135   1.312  0.00  0.00    +0.204 C 
ATOM     19  O   UNL     1      -1.430   0.506   2.141  0.00  0.00    -0.277 OA
ATOM     20  N   UNL     1      -3.315  -0.503   1.549  0.00  0.00    -0.242 N 
ATOM     21  C   UNL     1      -3.912  -0.157   2.707  0.00  0.00    +0.306 C 
ATOM     22  O   UNL     1      -3.301   0.486   3.538  0.00  0.00    -0.252 OA
ATOM     23  N   UNL     1      -5.187  -0.524   2.944  0.00  0.00    -0.291 N 
ATOM     24  H   UNL     1      -3.804  -1.016   0.886  0.00  0.00    +0.159 HD
ATOM     25  H   UNL     1      -5.675  -1.037   2.281  0.00  0.00    +0.151 HD
BRANCH  23  26
ATOM     26  C   UNL     1      -5.836  -0.148   4.203  0.00  0.00    +0.219 C 
BRANCH  26  27
ATOM     27  C   UNL     1      -7.269  -0.685   4.218  0.00  0.00    +0.405 C 
ATOM     28  F   UNL     1      -7.246  -2.079   4.103  0.00  0.00    -0.169 F 
ATOM     29  F   UNL     1      -7.888  -0.326   5.420  0.00  0.00    -0.169 F 
ATOM     30  F   UNL     1      -7.982  -0.141   3.145  0.00  0.00    -0.169 F 
ENDBRANCH  26  27
ENDBRANCH  23  26
ENDBRANCH  17  18
ENDBRANCH   2  17
TORSDOF 7
