REMARK  Name = ZINC15707291
REMARK  6 active torsions:
REMARK  status: ('A' for Active; 'I' for Inactive)
REMARK    1  A    between atoms: C_1  and  S_2
REMARK    2  A    between atoms: S_2  and  C_5
REMARK    3  A    between atoms: C_8  and  C_11
REMARK    4  A    between atoms: C_11  and  N_12
REMARK    5  A    between atoms: C_21  and  C_23
REMARK    6  A    between atoms: C_25  and  C_28
REMARK                            x       y       z     vdW  Elec       q    Type
REMARK                         _______ _______ _______ _____ _____    ______ ____
ROOT
ATOM      1  N   UNL     1       3.286  -0.267  -5.797  0.00  0.00    -0.281 NA
ATOM      2  C   UNL     1       2.105   0.484  -6.255  0.00  0.00    +0.140 C 
ATOM      3  C   UNL     1       2.579   1.663  -7.067  0.00  0.00    +0.051 A 
ATOM      4  C   UNL     1       3.830   1.763  -7.570  0.00  0.00    +0.040 A 
ATOM      5  N   UNL     1       3.902   2.945  -8.236  0.00  0.00    -0.349 N 
ATOM      6  H   UNL     1       4.675   3.298  -8.703  0.00  0.00    +0.166 HD
ATOM      7  C   UNL     1       2.689   3.536  -8.123  0.00  0.00    +0.171 A 
ATOM      8  N   UNL     1       1.905   2.759  -7.421  0.00  0.00    -0.349 N 
ATOM      9  C   UNL     1       4.889   0.707  -7.382  0.00  0.00    +0.083 C 
ATOM     10  C   UNL     1       4.193  -0.578  -6.911  0.00  0.00    +0.152 C 
ATOM     11  H   UNL     1       0.982   2.949  -7.195  0.00  0.00    +0.166 HD
ENDROOT
BRANCH  10  12
ATOM     12  C   UNL     1       5.229  -1.571  -6.452  0.00  0.00    +0.245 A 
ATOM     13  N   UNL     1       5.617  -2.626  -7.111  0.00  0.00    -0.190 NA
ATOM     14  C   UNL     1       6.555  -3.288  -6.410  0.00  0.00    +0.202 A 
ATOM     15  N   UNL     1       6.769  -2.646  -5.288  0.00  0.00    -0.056 NA
ATOM     16  O   UNL     1       5.912  -1.515  -5.301  0.00  0.00    -0.336 OA
BRANCH  14  17
ATOM     17  C   UNL     1       7.233  -4.537  -6.836  0.00  0.00    +0.024 A 
ATOM     18  C   UNL     1       6.918  -5.120  -8.062  0.00  0.00    +0.014 A 
ATOM     19  C   UNL     1       7.551  -6.281  -8.455  0.00  0.00    +0.040 A 
ATOM     20  C   UNL     1       8.500  -6.867  -7.633  0.00  0.00    +0.142 A 
ATOM     21  C   UNL     1       8.817  -6.291  -6.413  0.00  0.00    +0.077 A 
ATOM     22  C   UNL     1       8.192  -5.126  -6.015  0.00  0.00    +0.034 A 
ATOM     23 CL   UNL     1      10.006  -7.032  -5.388  0.00  0.00    -0.081 Cl
ATOM     24  F   UNL     1       9.117  -8.004  -8.023  0.00  0.00    -0.204 F 
ENDBRANCH  14  17
ENDBRANCH  10  12
BRANCH   1  25
ATOM     25  C   UNL     1       2.890  -1.488  -5.084  0.00  0.00    +0.120 C 
BRANCH  25  29
ATOM     26  C   UNL     1       0.845  -0.437  -1.483  0.00  0.00    +0.088 A 
ATOM     27  C   UNL     1       0.135  -0.613  -2.656  0.00  0.00    +0.027 A 
ATOM     28  C   UNL     1       0.796  -0.953  -3.821  0.00  0.00    +0.007 A 
ATOM     29  C   UNL     1       2.169  -1.117  -3.814  0.00  0.00    -0.033 A 
ATOM     30  C   UNL     1       2.880  -0.941  -2.641  0.00  0.00    +0.007 A 
ATOM     31  C   UNL     1       2.219  -0.596  -1.477  0.00  0.00    +0.027 A 
BRANCH  26  33
ATOM     32  C   UNL     1      -0.022   1.810   0.012  0.00  0.00    +0.200 C 
ATOM     33  S   UNL     1       0.002  -0.004   0.002  0.00  0.00    -0.006 S 
ATOM     34  O   UNL     1       0.835  -0.488   1.046  0.00  0.00    -0.170 OA
ATOM     35  O   UNL     1      -1.315  -0.510  -0.168  0.00  0.00    -0.170 OA
ENDBRANCH  26  33
ENDBRANCH  25  29
ENDBRANCH   1  25
TORSDOF 5
