REMARK  Name = ZINC33567906
REMARK  7 active torsions:
REMARK  status: ('A' for Active; 'I' for Inactive)
REMARK    1  A    between atoms: C_1  and  C_2
REMARK    2  A    between atoms: C_5  and  N_9
REMARK    3  A    between atoms: N_9  and  C_10
REMARK    4  A    between atoms: C_10  and  N_12
REMARK    5  A    between atoms: N_12  and  N_13
REMARK    6  A    between atoms: C_14  and  C_16
REMARK    7  A    between atoms: C_16  and  N_17
REMARK                            x       y       z     vdW  Elec       q    Type
REMARK                         _______ _______ _______ _____ _____    ______ ____
ROOT
ATOM      1  N   UNL     1      -0.054   1.345  -0.033  0.00  0.00    -0.234 N 
ATOM      2  C   UNL     1      -0.054  -0.003  -0.056  0.00  0.00    +0.251 C 
ATOM      3  O   UNL     1       0.972  -0.614   0.155  0.00  0.00    -0.272 OA
ATOM      4  H   UNL     1      -0.985   1.898  -0.224  0.00  0.00    +0.173 HD
ENDROOT
BRANCH   1   5
ATOM      5  N   UNL     1       1.133   2.040   0.235  0.00  0.00    -0.246 N 
ATOM      6  H   UNL     1       2.064   1.486   0.426  0.00  0.00    +0.172 HD
BRANCH   5   7
ATOM      7  C   UNL     1       1.134   3.387   0.258  0.00  0.00    +0.151 C 
ATOM      8  S   UNL     1       2.583   4.237   0.585  0.00  0.00    -0.017 S 
BRANCH   7   9
ATOM      9  N   UNL     1      -0.007   4.066   0.024  0.00  0.00    -0.295 N 
ATOM     10  H   UNL     1      -0.922   3.524  -0.256  0.00  0.00    +0.154 HD
BRANCH   9  15
ATOM     11  C   UNL     1      -0.089   9.721   0.482  0.00  0.00    +0.044 C 
ATOM     12  C   UNL     1      -0.067   8.219   0.361  0.00  0.00    -0.049 A 
ATOM     13  C   UNL     1       0.947   7.598  -0.346  0.00  0.00    +0.005 A 
ATOM     14  C   UNL     1       0.969   6.222  -0.459  0.00  0.00    +0.024 A 
ATOM     15  C   UNL     1      -0.027   5.461   0.137  0.00  0.00    +0.047 A 
ATOM     16  C   UNL     1      -1.048   6.087   0.842  0.00  0.00    +0.039 A 
ATOM     17  C   UNL     1      -1.062   7.464   0.956  0.00  0.00    +0.020 A 
ATOM     18 BR   UNL     1      -2.412   5.056   1.650  0.00  0.00    -0.048 Br
ENDBRANCH   9  15
ENDBRANCH   7   9
ENDBRANCH   5   7
ENDBRANCH   1   5
BRANCH   2  19
ATOM     19  C   UNL     1      -1.331  -0.751  -0.344  0.00  0.00    +0.244 C 
BRANCH  19  20
ATOM     20  N   UNL     1      -1.070  -2.192  -0.312  0.00  0.00    -0.220 N 
ATOM     21  C   UNL     1      -1.201  -2.858   0.854  0.00  0.00    +0.275 A 
ATOM     22  O   UNL     1      -1.531  -2.272   1.870  0.00  0.00    -0.266 OA
ATOM     23  C   UNL     1      -0.938  -4.302   0.876  0.00  0.00    +0.050 A 
ATOM     24  C   UNL     1      -1.053  -5.057   2.043  0.00  0.00    +0.014 A 
ATOM     25  C   UNL     1      -0.794  -6.410   2.001  0.00  0.00    +0.001 A 
ATOM     26  C   UNL     1      -0.420  -7.024   0.813  0.00  0.00    +0.001 A 
ATOM     27  C   UNL     1      -0.301  -6.304  -0.343  0.00  0.00    +0.010 A 
ATOM     28  C   UNL     1      -0.558  -4.931  -0.331  0.00  0.00    +0.007 A 
ATOM     29  C   UNL     1      -0.445  -4.115  -1.540  0.00  0.00    +0.141 A 
ATOM     30  N   UNL     1      -0.698  -2.841  -1.490  0.00  0.00    -0.176 NA
ENDBRANCH  19  20
ENDBRANCH   2  19
TORSDOF 6
