REMARK  Name = ZINC32971961
REMARK  16 active torsions:
REMARK  status: ('A' for Active; 'I' for Inactive)
REMARK    1  A    between atoms: C_1  and  C_2
REMARK    2  A    between atoms: C_2  and  C_3
REMARK    3  A    between atoms: C_2  and  C_4
REMARK    4  A    between atoms: C_4  and  N_5
REMARK    5  A    between atoms: C_6  and  N_35
REMARK    6  A    between atoms: C_7  and  N_14
REMARK    7  A    between atoms: N_14  and  C_15
REMARK    8  A    between atoms: C_15  and  C_16
REMARK    9  A    between atoms: C_16  and  C_17
REMARK   10  A    between atoms: C_16  and  C_18
REMARK   11  A    between atoms: C_19  and  C_21
REMARK   12  A    between atoms: C_21  and  N_22
REMARK   13  A    between atoms: N_22  and  C_23
REMARK   14  A    between atoms: C_24  and  C_26
REMARK   15  A    between atoms: C_26  and  S_27
REMARK   16  A    between atoms: S_27  and  C_28
REMARK                            x       y       z     vdW  Elec       q    Type
REMARK                         _______ _______ _______ _____ _____    ______ ____
ROOT
ATOM      1  N   UNL     1       3.556   8.037   1.511  0.00  0.00    -0.263 N 
ATOM      2  C   UNL     1       3.700   6.710   1.708  0.00  0.00    +0.237 C 
ATOM      3  O   UNL     1       4.089   6.295   2.780  0.00  0.00    -0.274 OA
ENDROOT
BRANCH   1   6
ATOM      4  N   UNL     1       3.202   9.757   4.738  0.00  0.00    -0.280 N 
ATOM      5  C   UNL     1       2.978   8.868   3.713  0.00  0.00    +0.127 A 
ATOM      6  C   UNL     1       3.761   8.935   2.579  0.00  0.00    +0.140 A 
ATOM      7  C   UNL     1       4.772   9.913   2.509  0.00  0.00    +0.277 A 
ATOM      8  O   UNL     1       5.481   9.992   1.520  0.00  0.00    -0.266 OA
ATOM      9  N   UNL     1       4.947  10.763   3.539  0.00  0.00    -0.273 N 
ATOM     10  H   UNL     1       5.729  11.535   3.488  0.00  0.00    +0.173 HD
ATOM     11  C   UNL     1       4.174  10.682   4.636  0.00  0.00    +0.331 A 
ATOM     12  O   UNL     1       4.356  11.460   5.553  0.00  0.00    -0.246 OA
BRANCH   5  13
ATOM     13  N   UNL     1       1.985   7.923   3.817  0.00  0.00    -0.343 N 
ATOM     14  H   UNL     1       1.811   7.215   2.994  0.00  0.00    +0.144 HD
ATOM     15  H   UNL     1       1.365   7.875   4.724  0.00  0.00    +0.144 HD
ENDBRANCH   5  13
BRANCH   4  16
ATOM     16  C   UNL     1       2.379   9.696   5.949  0.00  0.00    +0.131 C 
BRANCH  16  18
ATOM     17  C   UNL     1       4.371   9.340   7.414  0.00  0.00    +0.009 C 
ATOM     18  C   UNL     1       3.032   8.755   6.963  0.00  0.00    +0.003 C 
ATOM     19  C   UNL     1       2.112   8.593   8.175  0.00  0.00    +0.009 C 
ENDBRANCH  16  18
ENDBRANCH   4  16
ENDBRANCH   1   6
BRANCH   1  20
ATOM     20  C   UNL     1       3.186   8.545   0.187  0.00  0.00    +0.117 C 
BRANCH  20  21
ATOM     21  C   UNL     1       1.664   8.520   0.038  0.00  0.00    +0.001 C 
ATOM     22  C   UNL     1       1.039   9.516   1.017  0.00  0.00    +0.009 C 
ATOM     23  C   UNL     1       1.285   8.906  -1.393  0.00  0.00    +0.009 C 
ENDBRANCH  20  21
ENDBRANCH   1  20
BRANCH   2  24
ATOM     24  C   UNL     1       3.377   5.744   0.597  0.00  0.00    +0.203 C 
BRANCH  24  25
ATOM     25  N   UNL     1       3.613   4.373   1.058  0.00  0.00    -0.295 N 
ATOM     26  C   UNL     1       4.931   3.758   0.880  0.00  0.00    +0.132 C 
ATOM     27  C   UNL     1       2.619   3.679   1.646  0.00  0.00    +0.226 C 
ATOM     28  O   UNL     1       1.528   4.189   1.794  0.00  0.00    -0.275 OA
BRANCH  27  29
ATOM     29  C   UNL     1       2.862   2.270   2.121  0.00  0.00    +0.170 C 
BRANCH  29  30
ATOM     30  S   UNL     1       1.343   1.611   2.862  0.00  0.00    -0.113 S 
BRANCH  30  31
ATOM     31  C   UNL     1       1.785  -0.021   3.360  0.00  0.00    +0.044 A 
ATOM     32  C   UNL     1       3.070  -0.495   3.130  0.00  0.00    +0.017 A 
ATOM     33  C   UNL     1       3.414  -1.773   3.525  0.00  0.00    +0.001 A 
ATOM     34  C   UNL     1       2.479  -2.585   4.140  0.00  0.00    +0.003 A 
ATOM     35  C   UNL     1       1.196  -2.119   4.367  0.00  0.00    +0.039 A 
ATOM     36  C   UNL     1       0.845  -0.840   3.979  0.00  0.00    +0.137 A 
ATOM     37  F   UNL     1      -0.408  -0.385   4.199  0.00  0.00    -0.204 F 
ENDBRANCH  30  31
ENDBRANCH  29  30
ENDBRANCH  27  29
ENDBRANCH  24  25
ENDBRANCH   2  24
TORSDOF 11
