REMARK  Name = ZINC37378798
REMARK  3 active torsions:
REMARK  status: ('A' for Active; 'I' for Inactive)
REMARK    1  A    between atoms: C_7  and  S_10
REMARK    2  A    between atoms: C_8  and  N_9
REMARK    3  A    between atoms: S_10  and  C_11
REMARK                            x       y       z     vdW  Elec       q    Type
REMARK                         _______ _______ _______ _____ _____    ______ ____
ROOT
ATOM      1  C   UNL     1      -0.015   1.392  -0.233  0.00  0.00    +0.020 A 
ATOM      2  C   UNL     1       1.162   2.087  -0.249  0.00  0.00    +0.013 A 
ATOM      3  C   UNL     1       2.362   1.363  -0.140  0.00  0.00    +0.022 A 
ATOM      4  C   UNL     1       2.306  -0.049  -0.019  0.00  0.00    +0.073 A 
ATOM      5  C   UNL     1       3.502  -0.778   0.090  0.00  0.00    +0.029 A 
ATOM      6  C   UNL     1       4.700  -0.132   0.081  0.00  0.00    +0.019 A 
ATOM      7  C   UNL     1       4.769   1.258  -0.037  0.00  0.00    +0.037 A 
ATOM      8  C   UNL     1       3.612   2.012  -0.148  0.00  0.00    +0.048 A 
ATOM      9  N   UNL     1       1.120  -0.668  -0.011  0.00  0.00    -0.255 NA
ATOM     10  C   UNL     1      -0.001   0.005  -0.112  0.00  0.00    +0.111 A 
ENDROOT
BRANCH   8  11
ATOM     11  N   UNL     1       3.685   3.401  -0.267  0.00  0.00    -0.357 N 
ATOM     12  H   UNL     1       2.872   3.925  -0.344  0.00  0.00    +0.142 HD
ATOM     13  H   UNL     1       4.548   3.843  -0.273  0.00  0.00    +0.142 HD
ENDBRANCH   8  11
BRANCH   7  14
ATOM     14  S   UNL     1       6.338   2.058  -0.045  0.00  0.00    -0.048 S 
BRANCH  14  15
ATOM     15  C   UNL     1       6.466   2.764   1.564  0.00  0.00    +0.193 A 
ATOM     16  N   UNL     1       5.522   2.507   2.459  0.00  0.00    -0.230 NA
ATOM     17  C   UNL     1       5.588   3.021   3.676  0.00  0.00    +0.115 A 
ATOM     18  C   UNL     1       6.660   3.835   4.010  0.00  0.00    +0.039 A 
ATOM     19  C   UNL     1       7.628   4.082   3.050  0.00  0.00    +0.115 A 
ATOM     20  N   UNL     1       7.505   3.534   1.853  0.00  0.00    -0.230 NA
ENDBRANCH  14  15
ENDBRANCH   7  14
TORSDOF 3
