REMARK  Name = ZINC63491808
REMARK  11 active torsions:
REMARK  status: ('A' for Active; 'I' for Inactive)
REMARK    1  A    between atoms: C_1  and  C_2
REMARK    2  A    between atoms: C_2  and  O_3
REMARK    3  A    between atoms: O_3  and  C_4
REMARK    4  A    between atoms: C_8  and  C_13
REMARK    5  A    between atoms: C_9  and  O_10
REMARK    6  A    between atoms: O_10  and  C_11
REMARK    7  A    between atoms: C_11  and  C_12
REMARK    8  A    between atoms: C_13  and  C_14
REMARK    9  A    between atoms: C_22  and  O_38
REMARK   10  A    between atoms: C_29  and  C_31
REMARK   11  A    between atoms: O_38  and  C_39
REMARK                            x       y       z     vdW  Elec       q    Type
REMARK                         _______ _______ _______ _____ _____    ______ ____
ROOT
ATOM      1  C   UNL     1       3.731  -4.326  -3.497  0.00  0.00    +0.221 C 
ATOM      2  O   UNL     1       4.213  -3.935  -2.455  0.00  0.00    -0.275 OA
ATOM      3  N   UNL     1       4.529  -4.810  -4.469  0.00  0.00    -0.292 N 
ATOM      4  C   UNL     1       3.938  -5.276  -5.728  0.00  0.00    +0.113 C 
ATOM      5  C   UNL     1       4.552  -4.492  -6.903  0.00  0.00    +0.052 C 
ATOM      6  C   UNL     1       6.042  -4.460  -6.670  0.00  0.00    -0.035 C 
ATOM      7  C   UNL     1       7.060  -4.787  -7.456  0.00  0.00    +0.003 A 
ATOM      8  C   UNL     1       7.120  -5.193  -8.868  0.00  0.00    +0.055 A 
ATOM      9  C   UNL     1       8.353  -5.482  -9.368  0.00  0.00    +0.121 A 
ATOM     10  C   UNL     1       9.539  -5.413  -8.621  0.00  0.00    +0.047 A 
ATOM     11  C   UNL     1       9.598  -5.043  -7.317  0.00  0.00    +0.029 A 
ATOM     12  C   UNL     1       8.327  -4.697  -6.666  0.00  0.00    +0.043 A 
ATOM     13  N   UNL     1       8.082  -4.293  -5.456  0.00  0.00    -0.375 N 
ATOM     14  C   UNL     1       6.649  -4.018  -5.344  0.00  0.00    +0.131 C 
ATOM     15  C   UNL     1       5.984  -4.861  -4.258  0.00  0.00    +0.133 C 
ATOM     16  H   UNL     1       8.737  -4.192  -4.748  0.00  0.00    +0.160 HD
ENDROOT
BRANCH  15  17
ATOM     17  C   UNL     1       6.465  -6.286  -4.357  0.00  0.00    -0.025 A 
ATOM     18  C   UNL     1       7.143  -6.861  -3.299  0.00  0.00    +0.008 A 
ATOM     19  C   UNL     1       7.584  -8.168  -3.389  0.00  0.00    +0.038 A 
ATOM     20  C   UNL     1       7.347  -8.900  -4.540  0.00  0.00    +0.123 A 
ATOM     21  C   UNL     1       6.668  -8.323  -5.599  0.00  0.00    +0.038 A 
ATOM     22  C   UNL     1       6.223  -7.018  -5.505  0.00  0.00    +0.008 A 
ATOM     23  F   UNL     1       7.778 -10.178  -4.629  0.00  0.00    -0.205 F 
ENDBRANCH  15  17
BRANCH   9  24
ATOM     24  O   UNL     1       8.441  -5.861 -10.671  0.00  0.00    -0.495 OA
ATOM     25  C   UNL     1       9.745  -6.159 -11.174  0.00  0.00    +0.277 C 
ENDBRANCH   9  24
BRANCH   1  26
ATOM     26  C   UNL     1       2.239  -4.270  -3.705  0.00  0.00    +0.135 C 
BRANCH  26  31
ATOM     27  C   UNL     1       0.873  -1.789  -1.194  0.00  0.00    +0.162 A 
ATOM     28  C   UNL     1       0.374  -2.637  -0.218  0.00  0.00    +0.049 A 
ATOM     29  C   UNL     1       0.480  -4.006  -0.373  0.00  0.00    +0.004 A 
ATOM     30  C   UNL     1       1.083  -4.533  -1.500  0.00  0.00    +0.008 A 
ATOM     31  C   UNL     1       1.582  -3.693  -2.478  0.00  0.00    +0.007 A 
ATOM     32  C   UNL     1       1.474  -2.319  -2.331  0.00  0.00    +0.165 A 
BRANCH  27  33
ATOM     33  O   UNL     1       0.769  -0.441  -1.044  0.00  0.00    -0.489 OA
BRANCH  33  35
ATOM     34  C   UNL     1       0.115   1.562   0.140  0.00  0.00    +0.048 C 
ATOM     35  C   UNL     1       0.140   0.032   0.149  0.00  0.00    +0.226 C 
ENDBRANCH  33  35
ENDBRANCH  27  33
BRANCH  32  36
ATOM     36  O   UNL     1       1.960  -1.491  -3.295  0.00  0.00    -0.488 OA
BRANCH  36  37
ATOM     37  C   UNL     1       3.321  -1.075  -3.167  0.00  0.00    +0.226 C 
ATOM     38  C   UNL     1       3.684  -0.154  -4.334  0.00  0.00    +0.048 C 
ENDBRANCH  36  37
ENDBRANCH  32  36
ENDBRANCH  26  31
ENDBRANCH   1  26
TORSDOF 8
