REMARK  Name = ZINC24960750
REMARK  10 active torsions:
REMARK  status: ('A' for Active; 'I' for Inactive)
REMARK    1  A    between atoms: C_1  and  C_2
REMARK    2  A    between atoms: C_2  and  C_3
REMARK    3  A    between atoms: C_3  and  C_5
REMARK    4  A    between atoms: C_3  and  N_6
REMARK    5  A    between atoms: C_7  and  C_9
REMARK    6  A    between atoms: C_14  and  N_15
REMARK    7  A    between atoms: C_16  and  C_18
REMARK    8  A    between atoms: C_22  and  S_24
REMARK    9  A    between atoms: S_24  and  N_27
REMARK   10  A    between atoms: N_27  and  C_28
REMARK                            x       y       z     vdW  Elec       q    Type
REMARK                         _______ _______ _______ _____ _____    ______ ____
ROOT
ATOM      1  N   UNL     1      -4.347   0.933  -4.728  0.00  0.00    -0.281 N 
ATOM      2  C   UNL     1      -3.633   0.553  -3.651  0.00  0.00    +0.248 C 
ATOM      3  O   UNL     1      -3.794  -0.554  -3.174  0.00  0.00    -0.270 OA
ATOM      4  H   UNL     1      -4.255   1.959  -5.115  0.00  0.00    +0.155 HD
ENDROOT
BRANCH   1  10
ATOM      5  C   UNL     1      -5.362   0.056  -6.745  0.00  0.00    +0.058 A 
ATOM      6  C   UNL     1      -6.222  -0.858  -7.359  0.00  0.00    +0.015 A 
ATOM      7  C   UNL     1      -6.905  -1.779  -6.595  0.00  0.00    +0.001 A 
ATOM      8  C   UNL     1      -6.745  -1.803  -5.218  0.00  0.00    +0.002 A 
ATOM      9  C   UNL     1      -5.894  -0.910  -4.598  0.00  0.00    +0.024 A 
ATOM     10  C   UNL     1      -5.202   0.028  -5.352  0.00  0.00    +0.046 A 
BRANCH   5  12
ATOM     11  N   UNL     1      -4.867   1.141  -8.880  0.00  0.00    -0.309 N 
ATOM     12  C   UNL     1      -4.628   1.044  -7.558  0.00  0.00    +0.246 C 
ATOM     13  O   UNL     1      -3.807   1.772  -7.034  0.00  0.00    -0.270 OA
ATOM     14  H   UNL     1      -5.610   0.482  -9.354  0.00  0.00    +0.149 HD
BRANCH  11  15
ATOM     15  C   UNL     1      -4.138   2.123  -9.687  0.00  0.00    +0.070 C 
ATOM     16  C   UNL     1      -2.796   1.530 -10.122  0.00  0.00    +0.028 C 
BRANCH  15  18
ATOM     17  C   UNL     1      -6.250   3.185 -10.494  0.00  0.00    +0.005 C 
ATOM     18  C   UNL     1      -4.963   2.479 -10.925  0.00  0.00    +0.018 C 
ENDBRANCH  15  18
ENDBRANCH  11  15
ENDBRANCH   5  12
ENDBRANCH   1  10
BRANCH   2  19
ATOM     19  C   UNL     1      -2.654   1.482  -3.048  0.00  0.00    +0.039 A 
ATOM     20  C   UNL     1      -2.466   2.753  -3.592  0.00  0.00    +0.013 A 
ATOM     21  C   UNL     1      -1.551   3.615  -3.025  0.00  0.00    +0.003 A 
ATOM     22  C   UNL     1      -0.819   3.221  -1.918  0.00  0.00    +0.028 A 
ATOM     23  C   UNL     1      -1.000   1.962  -1.373  0.00  0.00    +0.106 A 
ATOM     24  C   UNL     1      -1.909   1.089  -1.935  0.00  0.00    +0.041 A 
BRANCH  23  25
ATOM     25  S   UNL     1      -0.064   1.472   0.036  0.00  0.00    +0.059 S 
ATOM     26  O   UNL     1      -0.024   0.051   0.023  0.00  0.00    -0.153 OA
ATOM     27  O   UNL     1       1.114   2.267   0.039  0.00  0.00    -0.153 OA
BRANCH  25  28
ATOM     28  N   UNL     1      -0.932   1.908   1.377  0.00  0.00    -0.185 NA
ATOM     29  H   UNL     1      -0.611   2.781   1.965  0.00  0.00    +0.148 HD
BRANCH  28  30
ATOM     30  C   UNL     1      -2.227   1.278   1.649  0.00  0.00    +0.099 C 
ATOM     31  C   UNL     1      -2.030   0.105   2.622  0.00  0.00    +0.044 C 
ATOM     32  C   UNL     1      -3.429  -0.341   3.133  0.00  0.00    +0.167 C 
ATOM     33  S   UNL     1      -4.235   1.297   3.380  0.00  0.00    -0.029 S 
ATOM     34  O   UNL     1      -4.032   1.715   4.723  0.00  0.00    -0.174 OA
ATOM     35  O   UNL     1      -5.554   1.249   2.854  0.00  0.00    -0.174 OA
ATOM     36  C   UNL     1      -3.186   2.322   2.270  0.00  0.00    +0.186 C 
ENDBRANCH  28  30
ENDBRANCH  25  28
ENDBRANCH  23  25
ENDBRANCH   2  19
TORSDOF 8
