REMARK  Name = ZINC12652239
REMARK  2 active torsions:
REMARK  status: ('A' for Active; 'I' for Inactive)
REMARK    1  A    between atoms: C_10  and  C_11
REMARK    2  A    between atoms: C_23  and  C_25
REMARK                            x       y       z     vdW  Elec       q    Type
REMARK                         _______ _______ _______ _____ _____    ______ ____
ROOT
ATOM      1  C   UNL     1       1.665   2.867  -1.059  0.00  0.00    +0.252 C 
ATOM      2  O   UNL     1       0.830   3.137  -1.901  0.00  0.00    -0.270 OA
ATOM      3  N   UNL     1       1.418   1.904  -0.150  0.00  0.00    -0.251 N 
ATOM      4  C   UNL     1       2.418   1.536   0.751  0.00  0.00    +0.059 A 
ATOM      5  C   UNL     1       2.854   2.402   1.740  0.00  0.00    +0.025 A 
ATOM      6  C   UNL     1       3.765   1.955   2.681  0.00  0.00    +0.002 A 
ATOM      7  C   UNL     1       4.238   0.656   2.636  0.00  0.00    +0.002 A 
ATOM      8  C   UNL     1       3.821  -0.205   1.635  0.00  0.00    +0.025 A 
ATOM      9  C   UNL     1       2.924   0.246   0.683  0.00  0.00    +0.053 A 
ATOM     10  N   UNL     1       2.499  -0.548  -0.375  0.00  0.00    -0.316 N 
ATOM     11  C   UNL     1       1.226  -0.980  -0.561  0.00  0.00    +0.017 C 
ATOM     12  C   UNL     1       0.133  -0.204  -0.462  0.00  0.00    +0.040 C 
ATOM     13  C   UNL     1       0.118   1.267  -0.121  0.00  0.00    +0.182 C 
ATOM     14  C   UNL     1      -1.153  -0.753  -0.681  0.00  0.00    +0.163 C 
ATOM     15  O   UNL     1      -2.123  -0.024  -0.605  0.00  0.00    -0.292 OA
ATOM     16  C   UNL     1      -1.360  -2.202  -1.005  0.00  0.00    +0.080 C 
ATOM     17  C   UNL     1      -0.217  -3.009  -0.377  0.00  0.00    +0.014 C 
ATOM     18  C   UNL     1       1.098  -2.451  -0.919  0.00  0.00    +0.051 C 
ATOM     19  H   UNL     1       3.163  -0.814  -1.030  0.00  0.00    +0.152 HD
ENDROOT
BRANCH   1  29
ATOM     20  C   UNL     1       3.068   7.781  -1.107  0.00  0.00    +0.001 A 
ATOM     21  C   UNL     1       1.844   7.117  -1.132  0.00  0.00    +0.001 A 
ATOM     22  C   UNL     1       1.785   5.755  -1.109  0.00  0.00    +0.009 A 
ATOM     23  C   UNL     1       2.971   5.010  -1.065  0.00  0.00    -0.006 A 
ATOM     24  C   UNL     1       4.216   5.683  -1.034  0.00  0.00    -0.017 A 
ATOM     25  C   UNL     1       4.239   7.088  -1.059  0.00  0.00    +0.008 A 
ATOM     26  C   UNL     1       5.406   4.937  -0.984  0.00  0.00    +0.008 A 
ATOM     27  C   UNL     1       5.359   3.575  -0.961  0.00  0.00    +0.001 A 
ATOM     28  C   UNL     1       4.147   2.897  -0.985  0.00  0.00    +0.014 A 
ATOM     29  C   UNL     1       2.948   3.593  -1.034  0.00  0.00    +0.045 A 
ENDBRANCH   1  29
BRANCH  13  30
ATOM     30  C   UNL     1      -0.464   1.432   1.259  0.00  0.00    +0.130 A 
ATOM     31  C   UNL     1      -1.727   1.800   1.541  0.00  0.00    +0.047 A 
ATOM     32  C   UNL     1      -1.841   1.825   2.950  0.00  0.00    +0.041 A 
ATOM     33  C   UNL     1      -0.639   1.480   3.445  0.00  0.00    +0.195 A 
ATOM     34  O   UNL     1       0.191   1.242   2.416  0.00  0.00    -0.466 OA
ENDBRANCH  13  30
TORSDOF 2
