REMARK  Name = ZINC34367488
REMARK  12 active torsions:
REMARK  status: ('A' for Active; 'I' for Inactive)
REMARK    1  A    between atoms: C_1  and  C_2
REMARK    2  A    between atoms: C_5  and  N_9
REMARK    3  A    between atoms: C_14  and  C_29
REMARK    4  A    between atoms: C_17  and  C_22
REMARK    5  A    between atoms: C_17  and  C_26
REMARK    6  A    between atoms: C_22  and  C_24
REMARK    7  A    between atoms: C_22  and  O_25
REMARK    8  A    between atoms: C_32  and  O_38
REMARK    9  A    between atoms: C_33  and  C_37
REMARK   10  A    between atoms: C_34  and  O_35
REMARK   11  A    between atoms: O_35  and  C_36
REMARK   12  A    between atoms: O_38  and  C_39
REMARK                            x       y       z     vdW  Elec       q    Type
REMARK                         _______ _______ _______ _____ _____    ______ ____
ROOT
ATOM      1  N   UNL     1      -0.304  -4.308   0.317  0.00  0.00    -0.210 N 
ATOM      2  C   UNL     1      -0.250  -4.940  -0.900  0.00  0.00    +0.229 C 
ATOM      3  O   UNL     1      -0.124  -4.432  -1.993  0.00  0.00    -0.275 OA
ATOM      4  C   UNL     1      -0.376  -6.343  -0.591  0.00  0.00    +0.077 C 
ATOM      5  C   UNL     1      -0.090  -7.666  -1.174  0.00  0.00    -0.023 C 
ATOM      6  N   UNL     1      -0.334  -8.583  -0.007  0.00  0.00    +0.397 N 
ATOM      7  C   UNL     1      -0.179  -7.782   1.244  0.00  0.00    +0.074 C 
ATOM      8  C   UNL     1       0.401  -6.437   0.782  0.00  0.00    +0.089 C 
ATOM      9  C   UNL     1      -0.157  -5.169   1.367  0.00  0.00    +0.229 C 
ATOM     10  O   UNL     1      -0.424  -4.958   2.531  0.00  0.00    -0.275 OA
ATOM     11  H   UNL     1      -1.269  -8.959  -0.058  0.00  0.00    -0.083 HD
ATOM     12  H   UNL     1       0.339  -9.335  -0.017  0.00  0.00    -0.083 HD
ENDROOT
BRANCH   1  17
ATOM     13  C   UNL     1      -1.037   1.289   0.920  0.00  0.00    +0.045 C 
ATOM     14  C   UNL     1      -0.843  -0.197   0.760  0.00  0.00    -0.032 A 
ATOM     15  C   UNL     1      -0.805  -0.756  -0.504  0.00  0.00    +0.006 A 
ATOM     16  C   UNL     1      -0.626  -2.117  -0.654  0.00  0.00    +0.024 A 
ATOM     17  C   UNL     1      -0.485  -2.925   0.467  0.00  0.00    +0.045 A 
ATOM     18  C   UNL     1      -0.522  -2.362   1.735  0.00  0.00    +0.044 A 
ATOM     19  C   UNL     1      -0.696  -0.998   1.879  0.00  0.00    +0.046 A 
ATOM     20 CL   UNL     1      -0.738  -0.291   3.464  0.00  0.00    -0.083 Cl
ENDBRANCH   1  17
BRANCH   5  21
ATOM     21  C   UNL     1      -1.036  -7.971  -2.306  0.00  0.00    -0.018 A 
ATOM     22  C   UNL     1      -2.222  -8.634  -2.055  0.00  0.00    +0.009 A 
ATOM     23  C   UNL     1      -3.092  -8.915  -3.090  0.00  0.00    +0.046 A 
ATOM     24  C   UNL     1      -2.777  -8.532  -4.386  0.00  0.00    +0.126 A 
ATOM     25  C   UNL     1      -1.588  -7.867  -4.641  0.00  0.00    +0.033 A 
ATOM     26  C   UNL     1      -0.719  -7.580  -3.599  0.00  0.00    +0.128 A 
ATOM     27  C   UNL     1      -1.243  -7.449  -6.048  0.00  0.00    +0.051 C 
BRANCH  26  28
ATOM     28  O   UNL     1       0.445  -6.923  -3.845  0.00  0.00    -0.495 OA
ATOM     29  C   UNL     1       1.589  -7.722  -4.153  0.00  0.00    +0.277 C 
ENDBRANCH  26  28
BRANCH  24  30
ATOM     30  O   UNL     1      -3.633  -8.809  -5.405  0.00  0.00    -0.495 OA
ATOM     31  C   UNL     1      -4.839  -9.498  -5.070  0.00  0.00    +0.277 C 
ENDBRANCH  24  30
ENDBRANCH   5  21
BRANCH   7  32
ATOM     32  C   UNL     1       0.788  -8.460   2.181  0.00  0.00    +0.349 C 
ATOM     33  O   UNL     1       1.292  -9.526   1.870  0.00  0.00    -0.248 OA
ATOM     34  O   UNL     1       1.066  -7.942   3.249  0.00  0.00    -0.248 OA
ENDBRANCH   7  32
BRANCH   7  35
ATOM     35  C   UNL     1      -1.536  -7.596   1.925  0.00  0.00    +0.112 C 
ATOM     36  C   UNL     1      -2.106  -8.963   2.309  0.00  0.00    +0.037 C 
BRANCH  35  37
ATOM     37  O   UNL     1      -1.374  -6.800   3.101  0.00  0.00    -0.393 OA
ATOM     38  H   UNL     1      -2.196  -6.641   3.585  0.00  0.00    +0.210 HD
ENDBRANCH  35  37
ENDBRANCH   7  35
TORSDOF 7
