REMARK  Name = ZINC31024332
REMARK  9 active torsions:
REMARK  status: ('A' for Active; 'I' for Inactive)
REMARK    1  A    between atoms: C_1  and  C_2
REMARK    2  A    between atoms: C_2  and  C_4
REMARK    3  A    between atoms: C_2  and  N_20
REMARK    4  A    between atoms: N_6  and  C_7
REMARK    5  A    between atoms: C_10  and  N_13
REMARK    6  A    between atoms: N_16  and  C_17
REMARK    7  A    between atoms: C_17  and  C_18
REMARK    8  A    between atoms: C_17  and  C_19
REMARK    9  A    between atoms: C_21  and  C_23
REMARK                            x       y       z     vdW  Elec       q    Type
REMARK                         _______ _______ _______ _____ _____    ______ ____
ROOT
ATOM      1  C   UNL     1       2.343   1.069  -0.925  0.00  0.00    +0.237 C 
ATOM      2  O   UNL     1       3.213   1.742  -1.437  0.00  0.00    -0.273 OA
ATOM      3  N   UNL     1       1.999  -0.115  -1.468  0.00  0.00    -0.284 N 
ATOM      4  H   UNL     1       1.352  -0.683  -1.022  0.00  0.00    +0.155 HD
ENDROOT
BRANCH   3   5
ATOM      5  C   UNL     1       2.578  -0.526  -2.676  0.00  0.00    +0.034 A 
ATOM      6  C   UNL     1       1.828  -1.249  -3.594  0.00  0.00    +0.025 A 
ATOM      7  C   UNL     1       2.399  -1.654  -4.785  0.00  0.00    +0.025 A 
ATOM      8  C   UNL     1       3.722  -1.339  -5.063  0.00  0.00    +0.035 A 
ATOM      9  C   UNL     1       4.472  -0.617  -4.144  0.00  0.00    +0.025 A 
ATOM     10  C   UNL     1       3.900  -0.206  -2.957  0.00  0.00    +0.025 A 
BRANCH   8  11
ATOM     11  N   UNL     1       4.301  -1.750  -6.271  0.00  0.00    -0.269 N 
ATOM     12  C   UNL     1       5.600  -2.108  -6.308  0.00  0.00    +0.304 C 
ATOM     13  O   UNL     1       6.290  -1.995  -5.314  0.00  0.00    -0.253 OA
ATOM     14  N   UNL     1       6.133  -2.592  -7.447  0.00  0.00    -0.297 N 
ATOM     15  H   UNL     1       3.767  -1.777  -7.080  0.00  0.00    +0.156 HD
ATOM     16  H   UNL     1       5.582  -2.683  -8.240  0.00  0.00    +0.151 HD
BRANCH  14  17
ATOM     17  C   UNL     1       7.545  -2.982  -7.488  0.00  0.00    +0.068 C 
ATOM     18  C   UNL     1       7.755  -4.024  -8.587  0.00  0.00    +0.027 C 
ATOM     19  C   UNL     1       8.405  -1.751  -7.780  0.00  0.00    +0.027 C 
ENDBRANCH  14  17
ENDBRANCH   8  11
ENDBRANCH   3   5
BRANCH   1  21
ATOM     20  C   UNL     1       1.862   0.556   1.453  0.00  0.00    +0.038 C 
ATOM     21  C   UNL     1       1.645   1.559   0.318  0.00  0.00    +0.156 C 
BRANCH  21  22
ATOM     22  N   UNL     1       2.195   2.861   0.706  0.00  0.00    -0.300 N 
ATOM     23  C   UNL     1       1.450   3.717   1.432  0.00  0.00    +0.251 C 
ATOM     24  O   UNL     1       0.320   3.410   1.766  0.00  0.00    -0.270 OA
ATOM     25  H   UNL     1       3.095   3.106   0.440  0.00  0.00    +0.150 HD
BRANCH  23  26
ATOM     26  C   UNL     1       1.999   5.020   1.820  0.00  0.00    +0.074 A 
ATOM     27  C   UNL     1       1.409   6.032   2.561  0.00  0.00    +0.021 A 
ATOM     28  C   UNL     1       2.180   7.151   2.765  0.00  0.00    +0.008 A 
ATOM     29  C   UNL     1       3.432   7.192   2.244  0.00  0.00    +0.046 A 
ATOM     30  S   UNL     1       3.604   5.712   1.468  0.00  0.00    -0.092 S 
ENDBRANCH  23  26
ENDBRANCH  21  22
ENDBRANCH   1  21
TORSDOF 6
