REMARK  Name = ZINC12791069
REMARK  8 active torsions:
REMARK  status: ('A' for Active; 'I' for Inactive)
REMARK    1  A    between atoms: C_1  and  C_2
REMARK    2  A    between atoms: C_2  and  C_3
REMARK    3  A    between atoms: C_3  and  N_4
REMARK    4  A    between atoms: C_14  and  S_15
REMARK    5  A    between atoms: S_15  and  C_16
REMARK    6  A    between atoms: C_16  and  C_18
REMARK    7  A    between atoms: C_16  and  C_19
REMARK    8  A    between atoms: N_24  and  C_25
REMARK                            x       y       z     vdW  Elec       q    Type
REMARK                         _______ _______ _______ _____ _____    ______ ____
ROOT
ATOM      1  C   UNL     1      -1.231  -2.558   5.280  0.00  0.00    +0.233 C 
ATOM      2  O   UNL     1      -1.609  -1.430   5.516  0.00  0.00    -0.274 OA
ATOM      3  N   UNL     1      -0.696  -3.309   6.263  0.00  0.00    -0.239 N 
ATOM      4  C   UNL     1      -0.579  -2.806   7.508  0.00  0.00    +0.306 C 
ATOM      5  O   UNL     1      -0.958  -1.676   7.744  0.00  0.00    -0.252 OA
ATOM      6  N   UNL     1      -0.044  -3.557   8.490  0.00  0.00    -0.294 N 
ATOM      7  H   UNL     1      -0.394  -4.211   6.074  0.00  0.00    +0.159 HD
ATOM      8  H   UNL     1       0.258  -4.460   8.302  0.00  0.00    +0.151 HD
ENDROOT
BRANCH   6   9
ATOM      9  C   UNL     1       0.082  -3.011   9.844  0.00  0.00    +0.037 C 
ATOM     10  C   UNL     1       0.966  -1.762   9.809  0.00  0.00    +0.029 C 
ATOM     11  C   UNL     1       1.098  -1.192  11.223  0.00  0.00    -0.008 C 
ATOM     12  C   UNL     1       1.732  -2.240  12.139  0.00  0.00    +0.007 C 
ATOM     13  C   UNL     1       0.848  -3.489  12.173  0.00  0.00    -0.008 C 
ATOM     14  C   UNL     1       0.717  -4.059  10.760  0.00  0.00    +0.029 C 
ATOM     15  C   UNL     1      -0.538  -3.118  12.705  0.00  0.00    +0.007 C 
ATOM     16  C   UNL     1      -1.172  -2.070  11.789  0.00  0.00    -0.008 C 
ATOM     17  C   UNL     1      -0.288  -0.821  11.754  0.00  0.00    +0.007 C 
ATOM     18  C   UNL     1      -1.304  -2.640  10.375  0.00  0.00    +0.029 C 
ENDBRANCH   6   9
BRANCH   1  19
ATOM     19  C   UNL     1      -1.361  -3.120   3.888  0.00  0.00    +0.137 C 
ATOM     20  C   UNL     1      -2.659  -3.923   3.781  0.00  0.00    +0.029 C 
BRANCH  19  21
ATOM     21  S   UNL     1      -1.391  -1.764   2.690  0.00  0.00    -0.075 S 
BRANCH  21  32
ATOM     22  N   UNL     1      -1.413  -1.998   0.005  0.00  0.00    -0.287 N 
ATOM     23  C   UNL     1      -1.421  -2.664  -1.173  0.00  0.00    +0.262 A 
ATOM     24  O   UNL     1      -1.444  -2.069  -2.235  0.00  0.00    -0.267 OA
ATOM     25  C   UNL     1      -1.395  -4.132  -1.123  0.00  0.00    +0.065 A 
ATOM     26  C   UNL     1      -1.396  -4.909  -2.281  0.00  0.00    +0.015 A 
ATOM     27  C   UNL     1      -1.375  -6.273  -2.177  0.00  0.00    +0.001 A 
ATOM     28  C   UNL     1      -1.355  -6.890  -0.933  0.00  0.00    +0.002 A 
ATOM     29  C   UNL     1      -1.354  -6.153   0.217  0.00  0.00    +0.028 A 
ATOM     30  C   UNL     1      -1.375  -4.757   0.145  0.00  0.00    +0.079 A 
ATOM     31  N   UNL     1      -1.375  -3.991   1.255  0.00  0.00    -0.223 NA
ATOM     32  C   UNL     1      -1.393  -2.683   1.187  0.00  0.00    +0.173 A 
BRANCH  22  33
ATOM     33  C   UNL     1      -1.433  -0.534   0.013  0.00  0.00    +0.127 C 
BRANCH  33  35
ATOM     34  C   UNL     1      -0.019   1.526   0.010  0.00  0.00    +0.005 C 
ATOM     35  C   UNL     1       0.002  -0.004   0.002  0.00  0.00    +0.018 C 
ENDBRANCH  33  35
ENDBRANCH  22  33
ENDBRANCH  21  32
ENDBRANCH  19  21
ENDBRANCH   1  19
TORSDOF 6
