REMARK  Name = ZINC59416930
REMARK  9 active torsions:
REMARK  status: ('A' for Active; 'I' for Inactive)
REMARK    1  A    between atoms: C_1  and  O_2
REMARK    2  A    between atoms: O_2  and  C_3
REMARK    3  A    between atoms: C_8  and  N_9
REMARK    4  A    between atoms: C_10  and  C_12
REMARK    5  A    between atoms: C_12  and  N_13
REMARK    6  A    between atoms: N_13  and  C_14
REMARK    7  A    between atoms: N_13  and  C_17
REMARK    8  A    between atoms: C_14  and  C_15
REMARK    9  A    between atoms: C_17  and  C_18
REMARK                            x       y       z     vdW  Elec       q    Type
REMARK                         _______ _______ _______ _____ _____    ______ ____
ROOT
ATOM      1  N   UNL     1       0.633  -3.054  -1.028  0.00  0.00    -0.283 N 
ATOM      2  C   UNL     1       0.331  -4.186  -0.362  0.00  0.00    +0.201 C 
ATOM      3  O   UNL     1      -0.828  -4.476  -0.154  0.00  0.00    -0.278 OA
ATOM      4  H   UNL     1       1.558  -2.845  -1.236  0.00  0.00    +0.155 HD
ENDROOT
BRANCH   1  10
ATOM      5  C   UNL     1      -1.501  -1.992  -0.604  0.00  0.00    +0.143 A 
ATOM      6  C   UNL     1      -2.505  -1.120  -0.993  0.00  0.00    +0.064 A 
ATOM      7  C   UNL     1      -2.404  -0.440  -2.193  0.00  0.00    +0.036 A 
ATOM      8  C   UNL     1      -1.302  -0.627  -3.008  0.00  0.00    +0.048 A 
ATOM      9  C   UNL     1      -0.295  -1.496  -2.626  0.00  0.00    +0.058 A 
ATOM     10  C   UNL     1      -0.388  -2.177  -1.420  0.00  0.00    +0.091 A 
ATOM     11 BR   UNL     1       1.209  -1.750  -3.743  0.00  0.00    -0.047 Br
ATOM     12 BR   UNL     1      -1.170   0.307  -4.647  0.00  0.00    -0.048 Br
ATOM     13 BR   UNL     1      -3.777   0.749  -2.721  0.00  0.00    -0.049 Br
BRANCH   5  15
ATOM     14  C   UNL     1      -2.768  -2.423   1.362  0.00  0.00    +0.277 C 
ATOM     15  O   UNL     1      -1.599  -2.662   0.576  0.00  0.00    -0.493 OA
ENDBRANCH   5  15
ENDBRANCH   1  10
BRANCH   2  16
ATOM     16  C   UNL     1       1.433  -5.092   0.123  0.00  0.00    +0.020 C 
BRANCH  16  17
ATOM     17  N   UNL     1       0.847  -6.249   0.813  0.00  0.00    +0.390 N 
ATOM     18  H   UNL     1       0.237  -5.928   1.550  0.00  0.00    -0.080 HD
BRANCH  17  19
ATOM     19  C   UNL     1       0.078  -7.053  -0.145  0.00  0.00    -0.051 C 
BRANCH  19  20
ATOM     20  C   UNL     1       1.010  -7.627  -1.181  0.00  0.00    -0.053 C 
ATOM     21  C   UNL     1       1.029  -8.918  -1.401  0.00  0.00    +0.002 C 
ENDBRANCH  19  20
ENDBRANCH  17  19
BRANCH  17  22
ATOM     22  C   UNL     1       1.921  -7.069   1.390  0.00  0.00    -0.051 C 
BRANCH  22  23
ATOM     23  C   UNL     1       1.317  -8.180   2.212  0.00  0.00    -0.053 C 
ATOM     24  C   UNL     1       1.645  -9.425   1.971  0.00  0.00    +0.002 C 
ENDBRANCH  22  23
ENDBRANCH  17  22
ENDBRANCH  16  17
ENDBRANCH   2  16
TORSDOF 8
