REMARK  Name = ZINC39946499
REMARK  10 active torsions:
REMARK  status: ('A' for Active; 'I' for Inactive)
REMARK    1  A    between atoms: C_1  and  O_2
REMARK    2  A    between atoms: O_2  and  C_3
REMARK    3  A    between atoms: C_8  and  C_9
REMARK    4  A    between atoms: C_10  and  C_11
REMARK    5  A    between atoms: C_10  and  C_17
REMARK    6  A    between atoms: C_17  and  O_19
REMARK    7  A    between atoms: O_19  and  C_20
REMARK    8  A    between atoms: C_20  and  C_22
REMARK    9  A    between atoms: C_20  and  C_28
REMARK   10  A    between atoms: C_28  and  C_30
REMARK                            x       y       z     vdW  Elec       q    Type
REMARK                         _______ _______ _______ _____ _____    ______ ____
ROOT
ATOM      1  O   UNL     1       0.114  -6.282  -1.196  0.00  0.00    -0.445 OA
ENDROOT
BRANCH   1   2
ATOM      2  C   UNL     1      -0.159  -4.962  -1.139  0.00  0.00    +0.341 C 
ATOM      3  O   UNL     1      -0.719  -4.417  -2.071  0.00  0.00    -0.245 OA
BRANCH   2   5
ATOM      4  C   UNL     1      -0.057  -2.851   0.105  0.00  0.00    +0.027 C 
ATOM      5  C   UNL     1       0.219  -4.184   0.048  0.00  0.00    +0.067 C 
BRANCH   4  11
ATOM      6  C   UNL     1       0.714  -0.805   1.296  0.00  0.00    +0.127 A 
ATOM      7  C   UNL     1       0.931  -0.108   2.474  0.00  0.00    +0.046 A 
ATOM      8  C   UNL     1       0.633  -0.693   3.690  0.00  0.00    +0.004 A 
ATOM      9  C   UNL     1       0.116  -1.977   3.744  0.00  0.00    +0.001 A 
ATOM     10  C   UNL     1      -0.107  -2.687   2.585  0.00  0.00    +0.011 A 
ATOM     11  C   UNL     1       0.184  -2.105   1.344  0.00  0.00    +0.017 A 
BRANCH   6  13
ATOM     12  C   UNL     1       1.542   1.093   0.130  0.00  0.00    +0.277 C 
ATOM     13  O   UNL     1       1.006  -0.232   0.101  0.00  0.00    -0.495 OA
ENDBRANCH   6  13
ENDBRANCH   4  11
BRANCH   5  14
ATOM     14  C   UNL     1       0.900  -4.849   1.183  0.00  0.00    -0.011 A 
ATOM     15  C   UNL     1       2.221  -4.527   1.492  0.00  0.00    +0.009 A 
ATOM     16  C   UNL     1       2.850  -5.149   2.551  0.00  0.00    +0.001 A 
ATOM     17  C   UNL     1       2.174  -6.092   3.304  0.00  0.00    +0.000 A 
ATOM     18  C   UNL     1       0.863  -6.416   3.002  0.00  0.00    +0.001 A 
ATOM     19  C   UNL     1       0.221  -5.796   1.950  0.00  0.00    +0.009 A 
ENDBRANCH   5  14
ENDBRANCH   2   5
ENDBRANCH   1   2
BRANCH   1  20
ATOM     20  C   UNL     1      -0.282  -6.976  -2.380  0.00  0.00    +0.277 C 
BRANCH  20  21
ATOM     21  C   UNL     1      -1.683  -7.506  -2.207  0.00  0.00    +0.000 A 
ATOM     22  C   UNL     1      -2.107  -7.944  -0.967  0.00  0.00    +0.008 A 
ATOM     23  C   UNL     1      -3.392  -8.431  -0.809  0.00  0.00    +0.000 A 
ATOM     24  C   UNL     1      -4.251  -8.478  -1.890  0.00  0.00    +0.000 A 
ATOM     25  C   UNL     1      -3.827  -8.039  -3.130  0.00  0.00    +0.000 A 
ATOM     26  C   UNL     1      -2.544  -7.548  -3.288  0.00  0.00    +0.008 A 
ENDBRANCH  20  21
BRANCH  20  27
ATOM     27  C   UNL     1       0.662  -8.123  -2.630  0.00  0.00    +0.206 C 
ATOM     28  O   UNL     1       1.342  -8.558  -1.722  0.00  0.00    -0.288 OA
BRANCH  27  29
ATOM     29  C   UNL     1       0.756  -8.692  -3.917  0.00  0.00    +0.027 C 
ATOM     30  C   UNL     1       1.563  -9.746  -4.309  0.00  0.00    +0.006 A 
ATOM     31  C   UNL     1       2.497 -10.552  -3.617  0.00  0.00    +0.010 A 
ATOM     32  C   UNL     1       3.160 -11.535  -4.266  0.00  0.00    +0.001 A 
ATOM     33  C   UNL     1       2.965 -11.804  -5.630  0.00  0.00    +0.002 A 
ATOM     34  C   UNL     1       2.097 -11.093  -6.381  0.00  0.00    +0.026 A 
ATOM     35  C   UNL     1       1.332 -10.003  -5.752  0.00  0.00    +0.043 A 
ATOM     36  N   UNL     1       0.448  -9.174  -6.228  0.00  0.00    -0.380 N 
ATOM     37  C   UNL     1      -0.008  -8.283  -5.157  0.00  0.00    +0.152 C 
ATOM     38  H   UNL     1       0.136  -9.152  -7.147  0.00  0.00    +0.160 HD
ENDBRANCH  27  29
ENDBRANCH  20  27
ENDBRANCH   1  20
TORSDOF 9
