REMARK  Name = ZINC39710640
REMARK  12 active torsions:
REMARK  status: ('A' for Active; 'I' for Inactive)
REMARK    1  A    between atoms: C_1  and  C_2
REMARK    2  A    between atoms: C_7  and  C_14
REMARK    3  A    between atoms: C_14  and  C_16
REMARK    4  A    between atoms: C_14  and  N_26
REMARK    5  A    between atoms: N_21  and  C_22
REMARK    6  A    between atoms: C_22  and  C_23
REMARK    7  A    between atoms: C_22  and  C_24
REMARK    8  A    between atoms: C_22  and  C_25
REMARK    9  A    between atoms: N_26  and  C_27
REMARK   10  A    between atoms: N_26  and  C_34
REMARK   11  A    between atoms: C_27  and  C_28
REMARK   12  A    between atoms: C_34  and  C_35
REMARK                            x       y       z     vdW  Elec       q    Type
REMARK                         _______ _______ _______ _____ _____    ______ ____
ROOT
ATOM      1  C   UNL     1       1.423  -5.816   1.360  0.00  0.00    -0.009 C 
ENDROOT
BRANCH   1   8
ATOM      2  C   UNL     1      -4.981  -5.298   5.224  0.00  0.00    +0.044 C 
ATOM      3  C   UNL     1      -3.701  -5.035   4.473  0.00  0.00    -0.049 A 
ATOM      4  C   UNL     1      -2.818  -4.076   4.971  0.00  0.00    +0.004 A 
ATOM      5  C   UNL     1      -1.650  -3.795   4.338  0.00  0.00    +0.010 A 
ATOM      6  C   UNL     1      -1.320  -4.518   3.110  0.00  0.00    -0.007 A 
ATOM      7  C   UNL     1      -0.159  -4.269   2.442  0.00  0.00    -0.006 C 
ATOM      8  C   UNL     1       0.101  -5.066   1.178  0.00  0.00    +0.088 C 
ATOM      9  C   UNL     1      -0.949  -6.072   0.763  0.00  0.00    +0.223 C 
ATOM     10  O   UNL     1      -0.791  -6.739  -0.242  0.00  0.00    -0.275 OA
ATOM     11  N   UNL     1      -2.038  -6.224   1.496  0.00  0.00    -0.285 N 
ATOM     12  C   UNL     1      -2.271  -5.526   2.608  0.00  0.00    +0.041 A 
ATOM     13  C   UNL     1      -3.451  -5.744   3.341  0.00  0.00    +0.027 A 
ATOM     14  H   UNL     1      -2.700  -6.874   1.213  0.00  0.00    +0.155 HD
ENDBRANCH   1   8
BRANCH   1  15
ATOM     15  C   UNL     1       1.554  -6.887   0.275  0.00  0.00    +0.205 C 
ATOM     16  N   UNL     1       2.881  -7.516   0.334  0.00  0.00    -0.152 NA
ATOM     17  N   UNL     1       3.466  -7.314  -0.732  0.00  0.00    -0.070 NA
ATOM     18  N   UNL     1       2.707  -6.572  -1.635  0.00  0.00    -0.179 N 
ATOM     19  N   UNL     1       1.494  -6.271  -1.068  0.00  0.00    -0.183 NA
ATOM     20  H   UNL     1       2.991  -6.309  -2.525  0.00  0.00    +0.191 HD
BRANCH  19  21
ATOM     21  C   UNL     1       1.302  -4.818  -0.972  0.00  0.00    +0.035 C 
ATOM     22  C   UNL     1       1.958  -4.300   0.310  0.00  0.00    +0.029 C 
ATOM     23  C   UNL     1       1.944  -4.138  -2.183  0.00  0.00    +0.029 C 
ATOM     24  C   UNL     1      -0.195  -4.501  -0.943  0.00  0.00    +0.029 C 
ENDBRANCH  19  21
ENDBRANCH   1  15
BRANCH   1  25
ATOM     25  N   UNL     1       1.446  -6.455   2.683  0.00  0.00    +0.390 N 
ATOM     26  H   UNL     1       1.194  -5.777   3.387  0.00  0.00    -0.080 HD
BRANCH  25  27
ATOM     27  C   UNL     1       0.485  -7.566   2.707  0.00  0.00    -0.040 C 
BRANCH  27  28
ATOM     28  C   UNL     1       0.336  -8.070   4.119  0.00  0.00    -0.046 A 
ATOM     29  C   UNL     1       1.162  -9.075   4.598  0.00  0.00    +0.005 A 
ATOM     30  C   UNL     1       0.988  -9.507   5.903  0.00  0.00    +0.020 A 
ATOM     31  C   UNL     1       0.004  -8.925   6.680  0.00  0.00    +0.111 A 
ATOM     32  N   UNL     1      -0.764  -7.971   6.192  0.00  0.00    -0.263 NA
ATOM     33  C   UNL     1      -0.623  -7.531   4.956  0.00  0.00    +0.112 A 
ENDBRANCH  27  28
ENDBRANCH  25  27
BRANCH  25  34
ATOM     34  C   UNL     1       2.795  -6.967   2.955  0.00  0.00    -0.040 C 
BRANCH  34  35
ATOM     35  C   UNL     1       3.739  -5.811   3.165  0.00  0.00    -0.046 A 
ATOM     36  C   UNL     1       4.491  -5.333   2.108  0.00  0.00    +0.003 A 
ATOM     37  C   UNL     1       5.357  -4.273   2.300  0.00  0.00    +0.000 A 
ATOM     38  C   UNL     1       5.471  -3.690   3.549  0.00  0.00    +0.001 A 
ATOM     39  C   UNL     1       4.719  -4.167   4.606  0.00  0.00    +0.020 A 
ATOM     40  C   UNL     1       3.848  -5.225   4.413  0.00  0.00    +0.042 A 
ATOM     41 CL   UNL     1       2.899  -5.821   5.739  0.00  0.00    -0.083 Cl
ENDBRANCH  34  35
ENDBRANCH  25  34
ENDBRANCH   1  25
TORSDOF 8
