REMARK  Name = ZINC20268314
REMARK  4 active torsions:
REMARK  status: ('A' for Active; 'I' for Inactive)
REMARK    1  A    between atoms: C_1  and  N_2
REMARK    2  A    between atoms: C_6  and  C_21
REMARK    3  A    between atoms: C_7  and  N_15
REMARK    4  A    between atoms: C_11  and  N_13
REMARK                            x       y       z     vdW  Elec       q    Type
REMARK                         _______ _______ _______ _____ _____    ______ ____
ROOT
ATOM      1  C   UNL     1       3.599   3.771   1.179  0.00  0.00    +0.140 C 
ATOM      2  N   UNL     1       2.231   4.229   0.922  0.00  0.00    -0.259 N 
ATOM      3  C   UNL     1       1.122   3.389   0.920  0.00  0.00    +0.134 A 
ATOM      4  C   UNL     1      -0.024   4.116   0.645  0.00  0.00    +0.011 A 
ATOM      5  C   UNL     1      -1.254   3.471   0.593  0.00  0.00    +0.016 A 
ATOM      6  C   UNL     1      -2.513   4.159   0.310  0.00  0.00    +0.100 A 
ATOM      7  C   UNL     1      -3.686   3.388   0.286  0.00  0.00    +0.142 A 
ATOM      8  N   UNL     1      -3.653   2.081   0.514  0.00  0.00    -0.216 NA
ATOM      9  C   UNL     1      -2.543   1.413   0.775  0.00  0.00    +0.129 A 
ATOM     10  C   UNL     1      -1.299   2.070   0.823  0.00  0.00    +0.063 A 
ATOM     11  C   UNL     1      -0.093   1.402   1.101  0.00  0.00    +0.129 A 
ATOM     12  N   UNL     1       1.044   2.071   1.135  0.00  0.00    -0.216 NA
ATOM     13  N   UNL     1      -2.604   0.054   0.999  0.00  0.00    -0.343 N 
ATOM     14  C   UNL     1       0.409   5.550   0.456  0.00  0.00    +0.135 C 
ATOM     15  C   UNL     1       1.909   5.507   0.661  0.00  0.00    +0.225 C 
ATOM     16  O   UNL     1       2.674   6.446   0.599  0.00  0.00    -0.275 OA
ATOM     17  H   UNL     1      -1.684  -0.509   1.216  0.00  0.00    +0.144 HD
ATOM     18  H   UNL     1      -3.572  -0.467   0.960  0.00  0.00    +0.144 HD
ENDROOT
BRANCH   7  19
ATOM     19  N   UNL     1      -4.896   4.000   0.023  0.00  0.00    -0.314 N 
ATOM     20  C   UNL     1      -5.837   3.808   1.134  0.00  0.00    +0.106 C 
ATOM     21  C   UNL     1      -7.109   4.618   0.873  0.00  0.00    +0.019 C 
ATOM     22  C   UNL     1      -7.742   4.156  -0.442  0.00  0.00    +0.003 C 
ATOM     23  C   UNL     1      -6.725   4.321  -1.575  0.00  0.00    +0.019 C 
ATOM     24  C   UNL     1      -5.464   3.520  -1.243  0.00  0.00    +0.106 C 
ENDBRANCH   7  19
BRANCH  11  25
ATOM     25  N   UNL     1      -0.098   0.039   1.333  0.00  0.00    -0.343 N 
ATOM     26  H   UNL     1       0.844  -0.485   1.551  0.00  0.00    +0.144 HD
ATOM     27  H   UNL     1      -1.044  -0.521   1.300  0.00  0.00    +0.144 HD
ENDBRANCH  11  25
BRANCH   6  28
ATOM     28  C   UNL     1      -2.548   5.570   0.065  0.00  0.00    +0.103 C 
ATOM     29  N   UNL     1      -2.576   6.689  -0.130  0.00  0.00    -0.191 NA
ENDBRANCH   6  28
TORSDOF 3
