REMARK  Name = ZINC09533530
REMARK  8 active torsions:
REMARK  status: ('A' for Active; 'I' for Inactive)
REMARK    1  A    between atoms: C_1  and  C_2
REMARK    2  A    between atoms: C_5  and  C_34
REMARK    3  A    between atoms: C_6  and  S_8
REMARK    4  A    between atoms: S_8  and  N_11
REMARK    5  A    between atoms: C_16  and  N_17
REMARK    6  A    between atoms: C_16  and  N_67
REMARK    7  A    between atoms: C_20  and  C_24
REMARK    8  A    between atoms: C_20  and  C_25
REMARK                            x       y       z     vdW  Elec       q    Type
REMARK                         _______ _______ _______ _____ _____    ______ ____
ROOT
ATOM      1  C   UNL     1      -4.631   2.817  -1.239  0.00  0.00    +0.043 C 
ENDROOT
BRANCH   1   2
ATOM      2  N   UNL     1      -5.848   2.942  -2.045  0.00  0.00    -0.241 N 
ATOM      3  C   UNL     1      -6.735   1.945  -2.236  0.00  0.00    +0.249 C 
ATOM      4  O   UNL     1      -6.678   0.819  -1.790  0.00  0.00    -0.272 OA
ATOM      5  C   UNL     1      -7.819   2.525  -3.123  0.00  0.00    +0.135 C 
ATOM      6  N   UNL     1      -7.375   3.912  -3.350  0.00  0.00    -0.281 N 
ATOM      7  C   UNL     1      -6.219   4.061  -2.678  0.00  0.00    +0.308 C 
ATOM      8  O   UNL     1      -5.582   5.096  -2.650  0.00  0.00    -0.252 OA
ATOM      9  C   UNL     1      -9.170   2.504  -2.406  0.00  0.00    +0.047 C 
ATOM     10  H   UNL     1      -7.829   4.586  -3.879  0.00  0.00    +0.152 HD
BRANCH   5  11
ATOM     11  C   UNL     1      -7.899   1.770  -4.425  0.00  0.00    -0.015 A 
ATOM     12  C   UNL     1      -7.563   0.430  -4.469  0.00  0.00    +0.006 A 
ATOM     13  C   UNL     1      -7.637  -0.260  -5.663  0.00  0.00    +0.004 A 
ATOM     14  C   UNL     1      -8.046   0.387  -6.817  0.00  0.00    -0.044 A 
ATOM     15  C   UNL     1      -8.382   1.727  -6.773  0.00  0.00    -0.044 A 
ATOM     16  C   UNL     1      -8.312   2.416  -5.574  0.00  0.00    +0.010 A 
ATOM     17  C   UNL     1      -8.793   2.197  -8.152  0.00  0.00    +0.036 C 
ATOM     18  C   UNL     1      -8.258   1.123  -9.122  0.00  0.00    +0.009 C 
ATOM     19  C   UNL     1      -8.210  -0.135  -8.229  0.00  0.00    +0.036 C 
ENDBRANCH   5  11
ENDBRANCH   1   2
BRANCH   1  25
ATOM     20  N   UNL     1      -1.214   1.029  -2.895  0.00  0.00    -0.180 NA
ATOM     21  C   UNL     1      -2.518   0.511  -3.338  0.00  0.00    +0.091 C 
ATOM     22  C   UNL     1      -3.575   0.913  -2.299  0.00  0.00    -0.059 C 
ATOM     23  C   UNL     1      -2.228   2.780  -1.535  0.00  0.00    -0.059 C 
ATOM     24  C   UNL     1      -1.117   2.452  -2.537  0.00  0.00    +0.091 C 
ATOM     25  N   UNL     1      -3.527   2.381  -2.119  0.00  0.00    +0.392 N 
ATOM     26  H   UNL     1      -3.632   2.832  -3.035  0.00  0.00    -0.079 HD
BRANCH  20  27
ATOM     27  S   UNL     1       0.109   0.037  -2.808  0.00  0.00    +0.061 S 
ATOM     28  O   UNL     1       1.247   0.858  -3.034  0.00  0.00    -0.153 OA
ATOM     29  O   UNL     1      -0.181  -1.100  -3.609  0.00  0.00    -0.153 OA
BRANCH  27  35
ATOM     30  C   UNL     1       2.511  -0.134   1.831  0.00  0.00    +0.044 C 
ATOM     31  C   UNL     1       1.365  -0.576   0.959  0.00  0.00    -0.049 A 
ATOM     32  C   UNL     1       0.405  -1.435   1.462  0.00  0.00    +0.004 A 
ATOM     33  C   UNL     1      -0.646  -1.841   0.663  0.00  0.00    +0.005 A 
ATOM     34  C   UNL     1      -0.739  -1.389  -0.640  0.00  0.00    -0.024 A 
ATOM     35  C   UNL     1       0.223  -0.534  -1.145  0.00  0.00    +0.109 A 
ATOM     36  C   UNL     1       1.272  -0.123  -0.343  0.00  0.00    +0.032 A 
ATOM     37  C   UNL     1      -1.885  -1.831  -1.512  0.00  0.00    +0.046 C 
ENDBRANCH  27  35
ENDBRANCH  20  27
ENDBRANCH   1  25
TORSDOF 5
