REMARK  Name = ZINC36309642
REMARK  16 active torsions:
REMARK  status: ('A' for Active; 'I' for Inactive)
REMARK    1  A    between atoms: C_1  and  C_2
REMARK    2  A    between atoms: C_2  and  C_3
REMARK    3  A    between atoms: C_3  and  C_5
REMARK    4  A    between atoms: C_3  and  C_6
REMARK    5  A    between atoms: C_6  and  N_7
REMARK    6  A    between atoms: N_7  and  C_8
REMARK    7  A    between atoms: N_7  and  C_16
REMARK    8  A    between atoms: C_8  and  C_9
REMARK    9  A    between atoms: C_9  and  C_11
REMARK   10  A    between atoms: C_9  and  O_15
REMARK   11  A    between atoms: C_11  and  C_12
REMARK   12  A    between atoms: C_12  and  C_13
REMARK   13  A    between atoms: C_16  and  C_17
REMARK   14  A    between atoms: C_27  and  C_29
REMARK   15  A    between atoms: C_29  and  O_30
REMARK   16  A    between atoms: O_30  and  C_31
REMARK                            x       y       z     vdW  Elec       q    Type
REMARK                         _______ _______ _______ _____ _____    ______ ____
ROOT
ATOM      1  C   UNL     1      -2.761  -4.396   1.559  0.00  0.00    +0.200 C 
ATOM      2  O   UNL     1      -2.442  -3.537   2.354  0.00  0.00    -0.278 OA
ATOM      3  N   UNL     1      -2.796  -5.688   1.940  0.00  0.00    -0.292 N 
ATOM      4  C   UNL     1      -3.177  -6.737   0.983  0.00  0.00    +0.113 C 
ATOM      5  C   UNL     1      -1.961  -7.650   0.760  0.00  0.00    +0.061 C 
ATOM      6  C   UNL     1      -1.319  -7.924   2.081  0.00  0.00    -0.004 A 
ATOM      7  C   UNL     1      -1.494  -7.253   3.251  0.00  0.00    -0.014 A 
ATOM      8  C   UNL     1      -0.765  -7.707   4.349  0.00  0.00    +0.013 A 
ATOM      9  C   UNL     1       0.062  -8.770   4.219  0.00  0.00    +0.046 A 
ATOM     10  S   UNL     1      -0.153  -9.194   2.497  0.00  0.00    -0.101 S 
ATOM     11  C   UNL     1      -2.449  -6.068   3.316  0.00  0.00    +0.144 C 
ENDROOT
BRANCH   1  12
ATOM     12  C   UNL     1      -3.120  -4.017   0.145  0.00  0.00    +0.019 C 
BRANCH  12  13
ATOM     13  N   UNL     1      -3.005  -2.562  -0.017  0.00  0.00    +0.387 N 
ATOM     14  H   UNL     1      -3.571  -2.100   0.679  0.00  0.00    -0.081 HD
BRANCH  13  15
ATOM     15  C   UNL     1      -1.601  -2.160   0.149  0.00  0.00    -0.075 C 
BRANCH  15  16
ATOM     16  C   UNL     1      -1.541  -0.742   0.720  0.00  0.00    -0.031 C 
ATOM     17  C   UNL     1      -2.105  -0.739   2.142  0.00  0.00    +0.005 C 
BRANCH  16  19
ATOM     18  C   UNL     1      -0.040   1.197   1.199  0.00  0.00    +0.004 C 
ATOM     19  C   UNL     1      -0.088  -0.264   0.747  0.00  0.00    -0.002 C 
ENDBRANCH  16  19
ENDBRANCH  15  16
ENDBRANCH  13  15
BRANCH  13  20
ATOM     20  C   UNL     1      -3.468  -2.180  -1.358  0.00  0.00    -0.046 C 
BRANCH  20  21
ATOM     21  C   UNL     1      -3.488  -0.654  -1.475  0.00  0.00    +0.098 C 
BRANCH  21  22
ATOM     22  O   UNL     1      -4.289  -0.106  -0.426  0.00  0.00    -0.394 OA
ATOM     23  H   UNL     1      -5.209  -0.406  -0.437  0.00  0.00    +0.210 HD
ENDBRANCH  21  22
BRANCH  21  24
ATOM     24  C   UNL     1      -4.077  -0.255  -2.829  0.00  0.00    +0.033 C 
BRANCH  24  25
ATOM     25  C   UNL     1      -3.983   1.263  -2.998  0.00  0.00    +0.029 C 
BRANCH  25  26
ATOM     26  C   UNL     1      -4.563   1.657  -4.332  0.00  0.00    -0.034 C 
ATOM     27  C   UNL     1      -5.521   2.548  -4.393  0.00  0.00    +0.004 C 
ENDBRANCH  25  26
ENDBRANCH  24  25
ENDBRANCH  21  24
ENDBRANCH  20  21
ENDBRANCH  13  20
ENDBRANCH  12  13
ENDBRANCH   1  12
BRANCH  11  28
ATOM     28  C   UNL     1      -3.714  -6.469   4.078  0.00  0.00    +0.256 C 
BRANCH  28  29
ATOM     29  O   UNL     1      -4.269  -7.649   3.492  0.00  0.00    -0.490 OA
BRANCH  29  30
ATOM     30  C   UNL     1      -5.404  -8.142   4.053  0.00  0.00    +0.123 A 
ATOM     31  C   UNL     1      -5.975  -7.500   5.143  0.00  0.00    +0.046 A 
ATOM     32  C   UNL     1      -7.129  -8.001   5.713  0.00  0.00    +0.006 A 
ATOM     33  C   UNL     1      -7.716  -9.143   5.200  0.00  0.00    +0.038 A 
ATOM     34  C   UNL     1      -7.148  -9.787   4.113  0.00  0.00    +0.127 A 
ATOM     35  C   UNL     1      -5.995  -9.284   3.535  0.00  0.00    +0.084 A 
ATOM     36  F   UNL     1      -7.723 -10.903   3.613  0.00  0.00    -0.205 F 
ENDBRANCH  29  30
ENDBRANCH  28  29
ENDBRANCH  11  28
TORSDOF 14
