REMARK  Name = ZINC02542943
REMARK  10 active torsions:
REMARK  status: ('A' for Active; 'I' for Inactive)
REMARK    1  A    between atoms: C_1  and  O_2
REMARK    2  A    between atoms: O_2  and  C_3
REMARK    3  A    between atoms: C_5  and  C_20
REMARK    4  A    between atoms: C_8  and  O_9
REMARK    5  A    between atoms: O_9  and  C_10
REMARK    6  A    between atoms: C_10  and  C_12
REMARK    7  A    between atoms: N_21  and  N_22
REMARK    8  A    between atoms: N_22  and  C_23
REMARK    9  A    between atoms: C_23  and  N_25
REMARK   10  A    between atoms: N_25  and  C_26
REMARK                            x       y       z     vdW  Elec       q    Type
REMARK                         _______ _______ _______ _____ _____    ______ ____
ROOT
ATOM      1  C   UNL     1       5.031   5.373  -0.522  0.00  0.00    +0.163 A 
ATOM      2  C   UNL     1       6.280   5.905  -0.263  0.00  0.00    +0.059 A 
ATOM      3  C   UNL     1       7.413   5.092  -0.346  0.00  0.00    -0.002 A 
ATOM      4  C   UNL     1       7.278   3.744  -0.691  0.00  0.00    +0.013 A 
ATOM      5  C   UNL     1       6.028   3.220  -0.943  0.00  0.00    +0.051 A 
ATOM      6  C   UNL     1       4.904   4.029  -0.866  0.00  0.00    +0.173 A 
ENDROOT
BRANCH   1   8
ATOM      7  C   UNL     1       4.131   7.530  -0.086  0.00  0.00    +0.277 C 
ATOM      8  O   UNL     1       3.926   6.162  -0.443  0.00  0.00    -0.491 OA
ENDBRANCH   1   8
BRANCH   3   9
ATOM      9  C   UNL     1       8.748   5.653  -0.070  0.00  0.00    +0.138 C 
ATOM     10  N   UNL     1       9.800   4.896  -0.147  0.00  0.00    -0.188 NA
BRANCH  10  11
ATOM     11  N   UNL     1      11.068   5.430   0.115  0.00  0.00    -0.218 N 
ATOM     12  H   UNL     1      11.161   6.365   0.354  0.00  0.00    +0.176 HD
BRANCH  11  13
ATOM     13  C   UNL     1      12.160   4.644   0.034  0.00  0.00    +0.154 C 
ATOM     14  S   UNL     1      13.710   5.296   0.355  0.00  0.00    -0.017 S 
BRANCH  13  15
ATOM     15  N   UNL     1      12.031   3.344  -0.299  0.00  0.00    -0.296 N 
ATOM     16  H   UNL     1      11.165   2.993  -0.558  0.00  0.00    +0.154 HD
BRANCH  15  17
ATOM     17  C   UNL     1      13.147   2.501  -0.270  0.00  0.00    +0.034 A 
ATOM     18  C   UNL     1      13.338   1.565  -1.278  0.00  0.00    +0.023 A 
ATOM     19  C   UNL     1      14.443   0.737  -1.250  0.00  0.00    +0.003 A 
ATOM     20  C   UNL     1      15.354   0.832  -0.214  0.00  0.00    +0.020 A 
ATOM     21  C   UNL     1      15.164   1.760   0.795  0.00  0.00    +0.043 A 
ATOM     22  C   UNL     1      14.063   2.595   0.770  0.00  0.00    +0.043 A 
ATOM     23 CL   UNL     1      16.310   1.875   2.094  0.00  0.00    -0.083 Cl
ENDBRANCH  15  17
ENDBRANCH  13  15
ENDBRANCH  11  13
ENDBRANCH  10  11
ENDBRANCH   3   9
BRANCH   6  24
ATOM     24  O   UNL     1       3.674   3.507  -1.120  0.00  0.00    -0.419 OA
BRANCH  24  25
ATOM     25  C   UNL     1       3.184   3.676  -2.363  0.00  0.00    +0.345 C 
ATOM     26  O   UNL     1       3.796   4.345  -3.172  0.00  0.00    -0.245 OA
BRANCH  25  27
ATOM     27  C   UNL     1       1.902   3.049  -2.743  0.00  0.00    +0.061 A 
ATOM     28  C   UNL     1       1.196   2.280  -1.814  0.00  0.00    +0.016 A 
ATOM     29  C   UNL     1      -0.001   1.697  -2.174  0.00  0.00    +0.022 A 
ATOM     30  C   UNL     1      -0.503   1.872  -3.453  0.00  0.00    +0.059 A 
ATOM     31  C   UNL     1       0.192   2.634  -4.379  0.00  0.00    +0.060 A 
ATOM     32  C   UNL     1       1.391   3.222  -4.031  0.00  0.00    +0.036 A 
ATOM     33 CL   UNL     1      -0.445   2.847  -5.979  0.00  0.00    -0.082 Cl
ATOM     34 CL   UNL     1      -2.010   1.134  -3.898  0.00  0.00    -0.082 Cl
ENDBRANCH  25  27
ENDBRANCH  24  25
ENDBRANCH   6  24
TORSDOF 9
