REMARK  Name = ZINC36704280
REMARK  11 active torsions:
REMARK  status: ('A' for Active; 'I' for Inactive)
REMARK    1  A    between atoms: C_1  and  C_2
REMARK    2  A    between atoms: C_2  and  C_3
REMARK    3  A    between atoms: N_12  and  C_13
REMARK    4  A    between atoms: C_13  and  C_14
REMARK    5  A    between atoms: C_14  and  C_15
REMARK    6  A    between atoms: C_15  and  N_16
REMARK    7  A    between atoms: N_16  and  C_17
REMARK    8  A    between atoms: N_16  and  C_18
REMARK    9  A    between atoms: C_19  and  C_21
REMARK   10  A    between atoms: N_24  and  S_27
REMARK   11  A    between atoms: S_27  and  C_30
REMARK                            x       y       z     vdW  Elec       q    Type
REMARK                         _______ _______ _______ _____ _____    ______ ____
ROOT
ATOM      1  C   UNL     1       0.639  -0.682  -1.094  0.00  0.00    -0.021 A 
ATOM      2  C   UNL     1      -0.126  -0.884  -2.213  0.00  0.00    +0.006 A 
ATOM      3  C   UNL     1       0.434  -0.902  -3.482  0.00  0.00    +0.001 A 
ATOM      4  C   UNL     1       1.797  -0.711  -3.623  0.00  0.00    +0.017 A 
ATOM      5  C   UNL     1       2.572  -0.509  -2.508  0.00  0.00    +0.041 A 
ATOM      6  C   UNL     1       2.034  -0.479  -1.201  0.00  0.00    +0.083 A 
ATOM      7  N   UNL     1       2.924  -0.264  -0.208  0.00  0.00    -0.224 NA
ATOM      8  C   UNL     1       4.205  -0.088  -0.434  0.00  0.00    +0.168 A 
ATOM      9  S   UNL     1       4.301  -0.230  -2.213  0.00  0.00    -0.052 S 
ATOM     10  N   UNL     1       5.225   0.141   0.476  0.00  0.00    -0.250 N 
ATOM     11  C   UNL     1       4.950   0.207   1.794  0.00  0.00    +0.224 C 
ATOM     12  O   UNL     1       3.826  -0.018   2.191  0.00  0.00    -0.275 OA
ENDROOT
BRANCH  11  13
ATOM     13  C   UNL     1       6.038   0.560   2.774  0.00  0.00    +0.078 C 
ATOM     14  C   UNL     1       6.987  -0.630   2.933  0.00  0.00    +0.030 C 
ATOM     15  C   UNL     1       8.112  -0.256   3.904  0.00  0.00    +0.110 C 
ATOM     16  N   UNL     1       7.514   0.213   5.162  0.00  0.00    -0.176 NA
ATOM     17  C   UNL     1       6.521   1.294   5.112  0.00  0.00    +0.110 C 
ATOM     18  C   UNL     1       5.414   0.902   4.129  0.00  0.00    +0.030 C 
BRANCH  16  19
ATOM     19  S   UNL     1       7.953  -0.465   6.607  0.00  0.00    +0.067 S 
ATOM     20  O   UNL     1       6.874  -0.241   7.505  0.00  0.00    -0.152 OA
ATOM     21  O   UNL     1       8.441  -1.767   6.314  0.00  0.00    -0.152 OA
BRANCH  19  22
ATOM     22  C   UNL     1       9.321   0.459   7.223  0.00  0.00    +0.143 A 
ATOM     23  C   UNL     1       9.321   1.548   8.029  0.00  0.00    +0.036 A 
ATOM     24  C   UNL     1      10.530   2.115   8.389  0.00  0.00    +0.010 A 
ATOM     25  C   UNL     1      11.678   1.565   7.926  0.00  0.00    +0.047 A 
ATOM     26  S   UNL     1      11.066   0.198   6.953  0.00  0.00    -0.077 S 
ENDBRANCH  19  22
ENDBRANCH  16  19
ENDBRANCH  11  13
BRANCH   1  28
ATOM     27  C   UNL     1      -0.339   0.769   0.662  0.00  0.00    +0.009 C 
ATOM     28  C   UNL     1      -0.014  -0.672   0.264  0.00  0.00    +0.034 C 
ENDBRANCH   1  28
BRANCH  10  29
ATOM     29  C   UNL     1       6.601   0.311   0.006  0.00  0.00    +0.114 C 
BRANCH  29  30
ATOM     30  C   UNL     1       6.821   1.767  -0.412  0.00  0.00    +0.001 C 
BRANCH  30  31
ATOM     31  C   UNL     1       8.259   1.945  -0.904  0.00  0.00    -0.078 C 
BRANCH  31  32
ATOM     32  N   UNL     1       8.470   3.342  -1.305  0.00  0.00    +0.376 N 
ATOM     33  C   UNL     1       8.351   4.213  -0.128  0.00  0.00    -0.097 C 
ATOM     34  C   UNL     1       9.811   3.487  -1.888  0.00  0.00    -0.097 C 
ATOM     35  H   UNL     1       7.776   3.604  -1.989  0.00  0.00    -0.083 HD
ENDBRANCH  31  32
ENDBRANCH  30  31
ENDBRANCH  29  30
ENDBRANCH  10  29
TORSDOF 8
