REMARK  Name = ZINC13834067
REMARK  18 active torsions:
REMARK  status: ('A' for Active; 'I' for Inactive)
REMARK    1  A    between atoms: C_1  and  C_2
REMARK    2  A    between atoms: C_2  and  C_3
REMARK    3  A    between atoms: C_3  and  C_4
REMARK    4  A    between atoms: C_6  and  C_26
REMARK    5  A    between atoms: C_8  and  C_23
REMARK    6  A    between atoms: C_9  and  O_10
REMARK    7  A    between atoms: O_10  and  C_11
REMARK    8  A    between atoms: C_11  and  C_13
REMARK    9  A    between atoms: C_11  and  C_21
REMARK   10  A    between atoms: C_16  and  C_19
REMARK   11  A    between atoms: C_19  and  C_20
REMARK   12  A    between atoms: C_23  and  C_24
REMARK   13  A    between atoms: C_24  and  C_25
REMARK   14  A    between atoms: C_26  and  N_27
REMARK   15  A    between atoms: C_28  and  C_38
REMARK   16  A    between atoms: C_33  and  C_37
REMARK   17  A    between atoms: C_35  and  C_36
REMARK   18  A    between atoms: C_38  and  C_39
REMARK                            x       y       z     vdW  Elec       q    Type
REMARK                         _______ _______ _______ _____ _____    ______ ____
ROOT
ATOM      1  C   UNL     1      -0.880   0.921   5.687  0.00  0.00    -0.005 A 
ATOM      2  C   UNL     1      -0.859   1.032   7.064  0.00  0.00    +0.012 A 
ATOM      3  C   UNL     1      -1.923   0.564   7.813  0.00  0.00    -0.027 A 
ATOM      4  C   UNL     1      -3.011  -0.015   7.186  0.00  0.00    +0.012 A 
ATOM      5  C   UNL     1      -3.037  -0.128   5.809  0.00  0.00    -0.005 A 
ATOM      6  C   UNL     1      -1.973   0.345   5.055  0.00  0.00    +0.129 A 
ENDROOT
BRANCH   1   7
ATOM      7  C   UNL     1       0.279   1.432   4.872  0.00  0.00    +0.038 C 
BRANCH   7   9
ATOM      8  C   UNL     1       1.042   3.231   3.314  0.00  0.00    +0.004 C 
ATOM      9  C   UNL     1      -0.116   2.742   4.187  0.00  0.00    +0.001 C 
ENDBRANCH   7   9
ENDBRANCH   1   7
BRANCH   6  10
ATOM     10  O   UNL     1      -1.998   0.240   3.701  0.00  0.00    -0.472 OA
BRANCH  10  11
ATOM     11  C   UNL     1      -1.160  -0.755   3.111  0.00  0.00    +0.316 C 
BRANCH  11  12
ATOM     12  C   UNL     1      -2.016  -1.826   2.485  0.00  0.00    +0.004 A 
ATOM     13  C   UNL     1      -3.169  -1.480   1.806  0.00  0.00    +0.008 A 
ATOM     14  C   UNL     1      -3.952  -2.462   1.228  0.00  0.00    +0.004 A 
ATOM     15  C   UNL     1      -3.586  -3.791   1.338  0.00  0.00    -0.048 A 
ATOM     16  C   UNL     1      -2.436  -4.137   2.021  0.00  0.00    +0.004 A 
ATOM     17  C   UNL     1      -1.651  -3.155   2.595  0.00  0.00    +0.008 A 
BRANCH  15  18
ATOM     18  C   UNL     1      -4.443  -4.862   0.713  0.00  0.00    +0.032 C 
ATOM     19  C   UNL     1      -5.491  -5.332   1.724  0.00  0.00    +0.009 C 
ENDBRANCH  15  18
ENDBRANCH  11  12
BRANCH  11  20
ATOM     20  C   UNL     1      -0.295  -0.121   2.052  0.00  0.00    +0.400 C 
ATOM     21  O   UNL     1      -0.548   0.990   1.652  0.00  0.00    -0.242 OA
ATOM     22  O   UNL     1       0.756  -0.791   1.554  0.00  0.00    -0.242 OA
ENDBRANCH  11  20
ENDBRANCH  10  11
ENDBRANCH   6  10
BRANCH   5  23
ATOM     23  C   UNL     1      -4.223  -0.759   5.127  0.00  0.00    +0.038 C 
BRANCH  23  24
ATOM     24  C   UNL     1      -4.061  -2.281   5.127  0.00  0.00    +0.001 C 
ATOM     25  C   UNL     1      -5.237  -2.919   4.384  0.00  0.00    +0.004 C 
ENDBRANCH  23  24
ENDBRANCH   5  23
BRANCH   3  26
ATOM     26  C   UNL     1      -1.898   0.686   9.314  0.00  0.00    +0.160 C 
BRANCH  26  27
ATOM     27  N   UNL     1      -2.497   1.963   9.711  0.00  0.00    -0.308 N 
ATOM     28  C   UNL     1      -3.812   2.185   9.984  0.00  0.00    +0.112 A 
ATOM     29  N   UNL     1      -3.998   3.433  10.304  0.00  0.00    -0.230 NA
ATOM     30  C   UNL     1      -2.814   4.093  10.256  0.00  0.00    +0.111 A 
ATOM     31  C   UNL     1      -1.832   3.158   9.880  0.00  0.00    +0.161 A 
ATOM     32  N   UNL     1      -0.570   3.531   9.747  0.00  0.00    -0.233 NA
ATOM     33  C   UNL     1      -0.190   4.773   9.969  0.00  0.00    +0.041 A 
ATOM     34  C   UNL     1      -1.099   5.748  10.348  0.00  0.00    +0.028 A 
ATOM     35  C   UNL     1      -2.432   5.416  10.497  0.00  0.00    -0.020 A 
ATOM     36  C   UNL     1      -3.447   6.452  10.907  0.00  0.00    +0.046 C 
ATOM     37  C   UNL     1       1.263   5.140   9.809  0.00  0.00    +0.065 C 
BRANCH  28  38
ATOM     38  C   UNL     1      -4.895   1.139   9.925  0.00  0.00    +0.071 C 
ATOM     39  C   UNL     1      -5.027   0.463  11.291  0.00  0.00    +0.012 C 
ENDBRANCH  28  38
ENDBRANCH  26  27
ENDBRANCH   3  26
TORSDOF 12
