REMARK  Name = ZINC15735556
REMARK  6 active torsions:
REMARK  status: ('A' for Active; 'I' for Inactive)
REMARK    1  A    between atoms: C_1  and  C_2
REMARK    2  A    between atoms: C_2  and  O_3
REMARK    3  A    between atoms: O_3  and  C_4
REMARK    4  A    between atoms: C_9  and  N_10
REMARK    5  A    between atoms: C_25  and  C_27
REMARK    6  A    between atoms: C_31  and  C_33
REMARK                            x       y       z     vdW  Elec       q    Type
REMARK                         _______ _______ _______ _____ _____    ______ ____
ROOT
ATOM      1  N   UNL     1       2.328   2.847  -0.009  0.00  0.00    -0.266 N 
ATOM      2  C   UNL     1       3.641   2.549   0.045  0.00  0.00    +0.308 C 
ATOM      3  O   UNL     1       4.007   1.395  -0.062  0.00  0.00    -0.252 OA
ATOM      4  N   UNL     1       4.549   3.531   0.217  0.00  0.00    -0.268 N 
ATOM      5  C   UNL     1       4.144   4.942   0.350  0.00  0.00    +0.148 C 
ATOM      6  C   UNL     1       4.956   5.686   1.387  0.00  0.00    +0.005 A 
ATOM      7  C   UNL     1       4.417   6.127   2.613  0.00  0.00    -0.030 A 
ATOM      8  C   UNL     1       5.236   6.811   3.454  0.00  0.00    -0.005 A 
ATOM      9  S   UNL     1       6.788   6.853   2.594  0.00  0.00    -0.075 S 
ATOM     10  C   UNL     1       6.269   5.961   1.160  0.00  0.00    +0.090 A 
ATOM     11  N   UNL     1       6.964   5.560   0.026  0.00  0.00    -0.312 N 
ATOM     12  C   UNL     1       7.812   6.228  -0.789  0.00  0.00    +0.092 A 
ATOM     13  C   UNL     1       8.162   5.399  -1.799  0.00  0.00    +0.020 A 
ATOM     14  C   UNL     1       7.514   4.164  -1.579  0.00  0.00    +0.025 A 
ATOM     15  C   UNL     1       6.807   4.277  -0.445  0.00  0.00    +0.049 A 
ATOM     16  C   UNL     1       6.001   3.242   0.287  0.00  0.00    +0.155 C 
ATOM     17  C   UNL     1       4.898   7.387   4.790  0.00  0.00    +0.043 C 
ATOM     18  C   UNL     1       3.368   7.404   4.934  0.00  0.00    +0.005 C 
ATOM     19  C   UNL     1       2.821   6.037   4.515  0.00  0.00    +0.005 C 
ATOM     20  C   UNL     1       2.966   5.856   3.003  0.00  0.00    +0.036 C 
ATOM     21  H   UNL     1       2.040   3.774   0.001  0.00  0.00    +0.156 HD
ENDROOT
BRANCH  16  22
ATOM     22  C   UNL     1       6.427   3.214   1.733  0.00  0.00    -0.021 A 
ATOM     23  C   UNL     1       5.494   2.968   2.723  0.00  0.00    +0.006 A 
ATOM     24  C   UNL     1       5.884   2.942   4.049  0.00  0.00    +0.001 A 
ATOM     25  C   UNL     1       7.207   3.162   4.384  0.00  0.00    +0.003 A 
ATOM     26  C   UNL     1       8.140   3.409   3.394  0.00  0.00    -0.050 A 
ATOM     27  C   UNL     1       7.750   3.429   2.068  0.00  0.00    +0.009 A 
ATOM     28  C   UNL     1       9.582   3.650   3.760  0.00  0.00    +0.044 C 
ENDBRANCH  16  22
BRANCH   1  34
ATOM     29  C   UNL     1       0.093   2.086  -0.547  0.00  0.00    +0.142 A 
ATOM     30  C   UNL     1      -0.842   1.066  -0.614  0.00  0.00    +0.047 A 
ATOM     31  C   UNL     1      -0.497  -0.215  -0.223  0.00  0.00    +0.004 A 
ATOM     32  C   UNL     1       0.776  -0.479   0.247  0.00  0.00    +0.002 A 
ATOM     33  C   UNL     1       1.714   0.533   0.317  0.00  0.00    +0.027 A 
ATOM     34  C   UNL     1       1.378   1.819  -0.080  0.00  0.00    +0.077 A 
BRANCH  29  35
ATOM     35  O   UNL     1      -0.242   3.345  -0.938  0.00  0.00    -0.490 OA
BRANCH  35  37
ATOM     36  C   UNL     1      -1.766   5.012  -1.797  0.00  0.00    +0.048 C 
ATOM     37  C   UNL     1      -1.577   3.545  -1.406  0.00  0.00    +0.226 C 
ENDBRANCH  35  37
ENDBRANCH  29  35
ENDBRANCH   1  34
TORSDOF 4
