REMARK  Name = ZINC39521044
REMARK  7 active torsions:
REMARK  status: ('A' for Active; 'I' for Inactive)
REMARK    1  A    between atoms: C_4  and  C_7
REMARK    2  A    between atoms: C_7  and  C_8
REMARK    3  A    between atoms: C_18  and  S_28
REMARK    4  A    between atoms: N_20  and  C_21
REMARK    5  A    between atoms: C_21  and  C_22
REMARK    6  A    between atoms: S_28  and  O_31
REMARK    7  A    between atoms: O_31  and  C_32
REMARK                            x       y       z     vdW  Elec       q    Type
REMARK                         _______ _______ _______ _____ _____    ______ ____
ROOT
ATOM      1  C   UNL     1       5.020  -0.201   2.492  0.00  0.00    -0.008 C 
ATOM      2  C   UNL     1       3.858  -1.018   3.060  0.00  0.00    +0.004 C 
ATOM      3  C   UNL     1       4.320  -1.754   4.320  0.00  0.00    -0.001 C 
ATOM      4  C   UNL     1       5.479  -2.689   3.969  0.00  0.00    -0.012 C 
ATOM      5  C   UNL     1       6.641  -1.871   3.402  0.00  0.00    -0.062 C 
ATOM      6  C   UNL     1       6.178  -1.137   2.141  0.00  0.00    -0.008 C 
ATOM      7  C   UNL     1       7.100  -0.849   4.444  0.00  0.00    -0.012 C 
ATOM      8  C   UNL     1       7.562  -1.586   5.705  0.00  0.00    -0.001 C 
ATOM      9  C   UNL     1       8.673  -2.571   5.330  0.00  0.00    +0.010 C 
ATOM     10  C   UNL     1       8.155  -3.529   4.255  0.00  0.00    +0.120 C 
ATOM     11  N   UNL     1       7.754  -2.767   3.067  0.00  0.00    +0.403 N 
ATOM     12  H   UNL     1       8.536  -2.221   2.738  0.00  0.00    -0.078 HD
ENDROOT
BRANCH  10  13
ATOM     13  S   UNL     1       9.467  -4.699   3.806  0.00  0.00    +0.108 S 
ATOM     14  O   UNL     1       8.929  -5.767   3.038  0.00  0.00    -0.138 OA
ATOM     15  O   UNL     1      10.619  -3.996   3.360  0.00  0.00    -0.138 OA
BRANCH  13  16
ATOM     16  O   UNL     1       9.887  -5.339   5.121  0.00  0.00    -0.347 OA
BRANCH  16  17
ATOM     17  C   UNL     1       9.002  -6.253   5.599  0.00  0.00    +0.156 A 
ATOM     18  C   UNL     1       7.976  -5.853   6.442  0.00  0.00    +0.048 A 
ATOM     19  C   UNL     1       7.078  -6.784   6.926  0.00  0.00    +0.004 A 
ATOM     20  C   UNL     1       7.201  -8.114   6.570  0.00  0.00    +0.000 A 
ATOM     21  C   UNL     1       8.223  -8.516   5.730  0.00  0.00    +0.004 A 
ATOM     22  C   UNL     1       9.120  -7.588   5.239  0.00  0.00    +0.048 A 
ENDBRANCH  16  17
ENDBRANCH  13  16
ENDBRANCH  10  13
BRANCH   1  23
ATOM     23  C   UNL     1       4.559   0.534   1.232  0.00  0.00    +0.038 C 
BRANCH  23  27
ATOM     24  C   UNL     1       1.564   3.399   2.268  0.00  0.00    +0.000 A 
ATOM     25  C   UNL     1       2.898   3.761   2.272  0.00  0.00    +0.000 A 
ATOM     26  C   UNL     1       3.867   2.834   1.937  0.00  0.00    +0.003 A 
ATOM     27  C   UNL     1       3.502   1.544   1.598  0.00  0.00    -0.047 A 
ATOM     28  C   UNL     1       2.168   1.182   1.595  0.00  0.00    +0.003 A 
ATOM     29  C   UNL     1       1.199   2.109   1.929  0.00  0.00    +0.000 A 
ENDBRANCH  23  27
ENDBRANCH   1  23
BRANCH  11  30
ATOM     30  C   UNL     1       7.331  -3.696   2.010  0.00  0.00    -0.039 C 
BRANCH  30  31
ATOM     31  C   UNL     1       6.260  -4.611   2.545  0.00  0.00    -0.064 A 
ATOM     32  C   UNL     1       6.537  -5.453   3.606  0.00  0.00    +0.002 A 
ATOM     33  C   UNL     1       5.554  -6.292   4.097  0.00  0.00    +0.000 A 
ATOM     34  C   UNL     1       4.295  -6.290   3.526  0.00  0.00    +0.000 A 
ATOM     35  C   UNL     1       4.018  -5.448   2.466  0.00  0.00    +0.000 A 
ATOM     36  C   UNL     1       5.000  -4.605   1.978  0.00  0.00    +0.002 A 
ENDBRANCH  30  31
ENDBRANCH  11  30
TORSDOF 7
