REMARK  Name = ZINC08711728
REMARK  10 active torsions:
REMARK  status: ('A' for Active; 'I' for Inactive)
REMARK    1  A    between atoms: C_1  and  C_2
REMARK    2  A    between atoms: C_4  and  C_33
REMARK    3  A    between atoms: N_5  and  C_7
REMARK    4  A    between atoms: C_10  and  C_13
REMARK    5  A    between atoms: C_13  and  O_15
REMARK    6  A    between atoms: O_15  and  C_16
REMARK    7  A    between atoms: C_16  and  C_17
REMARK    8  A    between atoms: N_19  and  C_20
REMARK    9  A    between atoms: C_23  and  N_30
REMARK   10  A    between atoms: C_25  and  C_26
REMARK                            x       y       z     vdW  Elec       q    Type
REMARK                         _______ _______ _______ _____ _____    ______ ____
ROOT
ATOM      1  C   UNL     1      -6.277   6.040   0.280  0.00  0.00    +0.328 C 
ENDROOT
BRANCH   1   2
ATOM      2  C   UNL     1      -4.962   5.313   0.157  0.00  0.00    +0.255 C 
ATOM      3  O   UNL     1      -3.922   5.938   0.155  0.00  0.00    -0.272 OA
ATOM      4  N   UNL     1      -4.942   3.970   0.048  0.00  0.00    -0.282 N 
ATOM      5  H   UNL     1      -5.774   3.478  -0.032  0.00  0.00    +0.155 HD
BRANCH   4   6
ATOM      6  C   UNL     1      -3.721   3.286   0.049  0.00  0.00    +0.045 A 
ATOM      7  C   UNL     1      -2.607   3.852   0.655  0.00  0.00    +0.026 A 
ATOM      8  C   UNL     1      -1.405   3.172   0.660  0.00  0.00    +0.034 A 
ATOM      9  C   UNL     1      -1.308   1.934   0.052  0.00  0.00    +0.127 A 
ATOM     10  C   UNL     1      -2.415   1.368  -0.553  0.00  0.00    +0.047 A 
ATOM     11  C   UNL     1      -3.621   2.040  -0.556  0.00  0.00    +0.078 A 
BRANCH  11  12
ATOM     12  C   UNL     1      -4.827   1.423  -1.215  0.00  0.00    +0.419 C 
ATOM     13  F   UNL     1      -4.480   0.177  -1.749  0.00  0.00    -0.166 F 
ATOM     14  F   UNL     1      -5.843   1.257  -0.267  0.00  0.00    -0.166 F 
ATOM     15  F   UNL     1      -5.279   2.260  -2.240  0.00  0.00    -0.166 F 
ENDBRANCH  11  12
BRANCH   9  16
ATOM     16  N   UNL     1      -0.016   1.210   0.053  0.00  0.00    +0.056 N 
ATOM     17  O   UNL     1       0.070   0.117  -0.477  0.00  0.00    -0.126 OA
ATOM     18  O   UNL     1       0.961   1.710   0.581  0.00  0.00    -0.126 OA
ENDBRANCH   9  16
ENDBRANCH   4   6
ENDBRANCH   1   2
BRANCH   1  19
ATOM     19  O   UNL     1      -6.033   7.468   0.383  0.00  0.00    -0.452 OA
BRANCH  19  20
ATOM     20  C   UNL     1      -7.112   8.265   0.501  0.00  0.00    +0.340 C 
ATOM     21  O   UNL     1      -8.226   7.782   0.517  0.00  0.00    -0.245 OA
BRANCH  20  25
ATOM     22  C   UNL     1      -6.619  12.472   0.816  0.00  0.00    +0.066 A 
ATOM     23  C   UNL     1      -7.895  11.920   0.835  0.00  0.00    +0.028 A 
ATOM     24  C   UNL     1      -8.059  10.556   0.732  0.00  0.00    +0.017 A 
ATOM     25  C   UNL     1      -6.941   9.727   0.610  0.00  0.00    +0.059 A 
ATOM     26  C   UNL     1      -5.659  10.285   0.597  0.00  0.00    +0.017 A 
ATOM     27  C   UNL     1      -5.503  11.649   0.695  0.00  0.00    +0.028 A 
BRANCH  22  32
ATOM     28  C   UNL     1      -7.441  17.333   0.314  0.00  0.00    +0.067 C 
ATOM     29  C   UNL     1      -6.831  16.008   0.691  0.00  0.00    +0.061 A 
ATOM     30  C   UNL     1      -5.653  15.828   1.425  0.00  0.00    +0.047 A 
ATOM     31  C   UNL     1      -5.444  14.498   1.558  0.00  0.00    +0.042 A 
ATOM     32  N   UNL     1      -6.456  13.856   0.919  0.00  0.00    -0.237 N 
ATOM     33  N   UNL     1      -7.312  14.830   0.388  0.00  0.00    -0.171 NA
ATOM     34  C   UNL     1      -4.293  13.846   2.281  0.00  0.00    +0.066 C 
ENDBRANCH  22  32
ENDBRANCH  20  25
ENDBRANCH  19  20
ENDBRANCH   1  19
TORSDOF 8
