REMARK  Name = ZINC10098619
REMARK  12 active torsions:
REMARK  status: ('A' for Active; 'I' for Inactive)
REMARK    1  A    between atoms: C_1  and  C_2
REMARK    2  A    between atoms: C_2  and  C_3
REMARK    3  A    between atoms: C_2  and  N_4
REMARK    4  A    between atoms: N_4  and  C_5
REMARK    5  A    between atoms: N_4  and  S_6
REMARK    6  A    between atoms: S_6  and  C_9
REMARK    7  A    between atoms: C_12  and  C_15
REMARK    8  A    between atoms: C_15  and  N_17
REMARK    9  A    between atoms: N_19  and  C_29
REMARK   10  A    between atoms: C_29  and  C_30
REMARK   11  A    between atoms: C_30  and  O_31
REMARK   12  A    between atoms: O_31  and  C_32
REMARK                            x       y       z     vdW  Elec       q    Type
REMARK                         _______ _______ _______ _____ _____    ______ ____
ROOT
ATOM      1  C   UNL     1      -3.195   3.107   4.828  0.00  0.00    +0.269 C 
ATOM      2  O   UNL     1      -4.001   2.340   5.325  0.00  0.00    -0.268 OA
ENDROOT
BRANCH   1   3
ATOM      3  N   UNL     1      -2.974   4.300   5.389  0.00  0.00    -0.152 NA
ATOM      4  C   UNL     1      -3.633   4.650   6.489  0.00  0.00    +0.167 A 
ATOM      5  N   UNL     1      -3.538   5.807   7.197  0.00  0.00    -0.318 N 
ATOM      6  C   UNL     1      -4.315   5.995   8.325  0.00  0.00    +0.078 A 
ATOM      7  C   UNL     1      -4.359   7.112   9.177  0.00  0.00    +0.066 A 
ATOM      8  C   UNL     1      -5.194   7.130  10.270  0.00  0.00    +0.023 A 
ATOM      9  C   UNL     1      -6.013   6.053  10.566  0.00  0.00    +0.022 A 
ATOM     10  C   UNL     1      -5.990   4.939   9.743  0.00  0.00    +0.057 A 
ATOM     11  C   UNL     1      -5.155   4.920   8.649  0.00  0.00    +0.059 A 
ATOM     12  S   UNL     1      -4.815   3.738   7.370  0.00  0.00    -0.051 S 
ATOM     13 CL   UNL     1      -7.007   3.576  10.089  0.00  0.00    -0.082 Cl
ATOM     14 CL   UNL     1      -3.349   8.484   8.846  0.00  0.00    -0.081 Cl
BRANCH   5  15
ATOM     15  C   UNL     1      -2.614   6.858   6.761  0.00  0.00    +0.152 C 
BRANCH  15  16
ATOM     16  C   UNL     1      -1.305   6.742   7.544  0.00  0.00    +0.181 C 
BRANCH  16  17
ATOM     17  O   UNL     1      -0.404   7.767   7.119  0.00  0.00    -0.381 OA
ATOM     18  C   UNL     1       0.857   7.749   7.792  0.00  0.00    +0.194 C 
ENDBRANCH  16  17
ENDBRANCH  15  16
ENDBRANCH   5  15
ENDBRANCH   1   3
BRANCH   1  22
ATOM     19  C   UNL     1      -1.087   1.988   1.311  0.00  0.00    +0.106 A 
ATOM     20  C   UNL     1      -0.852   3.221   1.893  0.00  0.00    +0.029 A 
ATOM     21  C   UNL     1      -1.537   3.593   3.031  0.00  0.00    +0.015 A 
ATOM     22  C   UNL     1      -2.461   2.717   3.602  0.00  0.00    +0.039 A 
ATOM     23  C   UNL     1      -2.690   1.473   3.015  0.00  0.00    +0.015 A 
ATOM     24  C   UNL     1      -2.002   1.115   1.873  0.00  0.00    +0.029 A 
BRANCH  19  25
ATOM     25  S   UNL     1      -0.213   1.524  -0.146  0.00  0.00    +0.061 S 
ATOM     26  O   UNL     1      -0.207   0.104  -0.182  0.00  0.00    -0.153 OA
ATOM     27  O   UNL     1       0.983   2.292  -0.165  0.00  0.00    -0.153 OA
BRANCH  25  28
ATOM     28  N   UNL     1      -1.117   2.026  -1.440  0.00  0.00    -0.177 NA
ATOM     29  C   UNL     1      -0.911   3.362  -2.004  0.00  0.00    +0.132 C 
BRANCH  28  31
ATOM     30  C   UNL     1      -3.502   1.790  -1.929  0.00  0.00    +0.025 C 
ATOM     31  C   UNL     1      -2.123   1.133  -2.021  0.00  0.00    +0.073 C 
ATOM     32  C   UNL     1      -1.782   0.867  -3.488  0.00  0.00    +0.025 C 
ENDBRANCH  28  31
ENDBRANCH  25  28
ENDBRANCH  19  25
ENDBRANCH   1  22
TORSDOF 8
