REMARK  Name = ZINC34693288
REMARK  12 active torsions:
REMARK  status: ('A' for Active; 'I' for Inactive)
REMARK    1  A    between atoms: C_1  and  C_2
REMARK    2  A    between atoms: C_2  and  C_3
REMARK    3  A    between atoms: C_2  and  C_4
REMARK    4  A    between atoms: C_7  and  N_10
REMARK    5  A    between atoms: N_15  and  C_18
REMARK    6  A    between atoms: C_18  and  C_19
REMARK    7  A    between atoms: N_26  and  C_29
REMARK    8  A    between atoms: C_29  and  C_30
REMARK    9  A    between atoms: C_33  and  C_36
REMARK   10  A    between atoms: C_36  and  C_37
REMARK   11  A    between atoms: C_36  and  C_38
REMARK   12  A    between atoms: C_36  and  C_39
REMARK                            x       y       z     vdW  Elec       q    Type
REMARK                         _______ _______ _______ _____ _____    ______ ____
ROOT
ATOM      1  N   UNL     1      -5.321  -1.968   0.042  0.00  0.00    -0.245 N 
ATOM      2  C   UNL     1      -5.802  -2.688  -1.041  0.00  0.00    +0.173 A 
ATOM      3  C   UNL     1      -7.109  -3.159  -1.006  0.00  0.00    +0.152 A 
ATOM      4  C   UNL     1      -7.906  -2.891   0.127  0.00  0.00    +0.283 A 
ATOM      5  O   UNL     1      -9.055  -3.293   0.181  0.00  0.00    -0.265 OA
ATOM      6  N   UNL     1      -7.382  -2.185   1.150  0.00  0.00    -0.254 N 
ATOM      7  C   UNL     1      -6.114  -1.740   1.106  0.00  0.00    +0.338 A 
ATOM      8  O   UNL     1      -5.674  -1.111   2.050  0.00  0.00    -0.246 OA
ATOM      9  N   UNL     1      -7.310  -3.827  -2.197  0.00  0.00    -0.320 N 
ATOM     10  C   UNL     1      -6.160  -3.745  -2.894  0.00  0.00    +0.202 A 
ATOM     11  N   UNL     1      -5.274  -3.071  -2.206  0.00  0.00    -0.217 NA
ENDROOT
BRANCH   1  15
ATOM     12  C   UNL     1      -1.412  -0.525   0.011  0.00  0.00    -0.045 A 
ATOM     13  C   UNL     1      -1.679  -1.783   0.520  0.00  0.00    +0.006 A 
ATOM     14  C   UNL     1      -2.974  -2.264   0.532  0.00  0.00    +0.026 A 
ATOM     15  C   UNL     1      -4.008  -1.483   0.032  0.00  0.00    +0.053 A 
ATOM     16  C   UNL     1      -3.736  -0.221  -0.478  0.00  0.00    +0.026 A 
ATOM     17  C   UNL     1      -2.440   0.257  -0.483  0.00  0.00    +0.006 A 
BRANCH  12  19
ATOM     18  C   UNL     1       0.537   0.050   1.432  0.00  0.00    +0.012 C 
ATOM     19  C   UNL     1       0.002  -0.003  -0.001  0.00  0.00    +0.013 C 
ATOM     20  C   UNL     1       0.881  -0.932  -0.840  0.00  0.00    +0.012 C 
ENDBRANCH  12  19
ENDBRANCH   1  15
BRANCH   6  21
ATOM     21  C   UNL     1      -8.204  -1.904   2.329  0.00  0.00    +0.165 C 
BRANCH  21  22
ATOM     22  C   UNL     1      -8.036  -3.013   3.335  0.00  0.00    -0.027 A 
ATOM     23  C   UNL     1      -8.870  -4.115   3.295  0.00  0.00    +0.008 A 
ATOM     24  C   UNL     1      -8.717  -5.133   4.216  0.00  0.00    +0.038 A 
ATOM     25  C   UNL     1      -7.727  -5.050   5.181  0.00  0.00    +0.123 A 
ATOM     26  C   UNL     1      -6.891  -3.946   5.220  0.00  0.00    +0.038 A 
ATOM     27  C   UNL     1      -7.044  -2.931   4.294  0.00  0.00    +0.008 A 
ATOM     28  F   UNL     1      -7.576  -6.044   6.082  0.00  0.00    -0.205 F 
ENDBRANCH  21  22
ENDBRANCH   6  21
BRANCH   9  29
ATOM     29  C   UNL     1      -8.540  -4.499  -2.622  0.00  0.00    +0.158 C 
BRANCH  29  30
ATOM     30  C   UNL     1      -9.466  -3.495  -3.260  0.00  0.00    -0.028 A 
ATOM     31  C   UNL     1     -10.378  -2.805  -2.485  0.00  0.00    +0.005 A 
ATOM     32  C   UNL     1     -11.227  -1.884  -3.070  0.00  0.00    +0.004 A 
ATOM     33  C   UNL     1     -11.163  -1.653  -4.431  0.00  0.00    -0.042 A 
ATOM     34  C   UNL     1     -10.250  -2.343  -5.207  0.00  0.00    +0.004 A 
ATOM     35  C   UNL     1      -9.398  -3.260  -4.621  0.00  0.00    +0.005 A 
BRANCH  33  36
ATOM     36  C   UNL     1     -12.089  -0.650  -5.070  0.00  0.00    -0.013 C 
ATOM     37  C   UNL     1     -11.853   0.728  -4.450  0.00  0.00    +0.015 C 
ATOM     38  C   UNL     1     -11.813  -0.587  -6.574  0.00  0.00    +0.015 C 
ATOM     39  C   UNL     1     -13.540  -1.074  -4.835  0.00  0.00    +0.015 C 
ENDBRANCH  33  36
ENDBRANCH  29  30
ENDBRANCH   9  29
TORSDOF 7
