REMARK  Name = ZINC05551168
REMARK  6 active torsions:
REMARK  status: ('A' for Active; 'I' for Inactive)
REMARK    1  A    between atoms: C_1  and  C_2
REMARK    2  A    between atoms: C_2  and  C_3
REMARK    3  A    between atoms: C_3  and  C_4
REMARK    4  A    between atoms: C_4  and  C_5
REMARK    5  A    between atoms: C_8  and  N_11
REMARK    6  A    between atoms: C_17  and  C_18
REMARK                            x       y       z     vdW  Elec       q    Type
REMARK                         _______ _______ _______ _____ _____    ______ ____
ROOT
ATOM      1  N   UNL     1      -6.448  -4.845  -1.103  0.00  0.00    -0.226 NA
ATOM      2  C   UNL     1      -7.409  -4.128  -1.642  0.00  0.00    +0.166 C 
ATOM      3  N   UNL     1      -8.751  -4.426  -1.734  0.00  0.00    -0.260 N 
ATOM      4  C   UNL     1      -9.590  -3.585  -2.314  0.00  0.00    +0.256 C 
ATOM      5  O   UNL     1     -10.778  -3.832  -2.404  0.00  0.00    -0.269 OA
ATOM      6  C   UNL     1      -9.019  -2.331  -2.847  0.00  0.00    +0.078 C 
ATOM      7  C   UNL     1      -9.638  -1.305  -3.481  0.00  0.00    +0.028 C 
ATOM      8  S   UNL     1      -7.294  -2.528  -2.425  0.00  0.00    -0.049 S 
ATOM      9  H   UNL     1      -9.084  -5.262  -1.370  0.00  0.00    +0.157 HD
ENDROOT
BRANCH   7  10
ATOM     10  C   UNL     1      -8.842  -0.222  -4.077  0.00  0.00    -0.024 A 
ATOM     11  C   UNL     1      -7.473  -0.399  -4.303  0.00  0.00    +0.009 A 
ATOM     12  C   UNL     1      -6.733   0.621  -4.863  0.00  0.00    +0.016 A 
ATOM     13  C   UNL     1      -7.342   1.818  -5.201  0.00  0.00    +0.018 A 
ATOM     14  C   UNL     1      -8.698   2.000  -4.981  0.00  0.00    +0.016 A 
ATOM     15  C   UNL     1      -9.452   0.988  -4.428  0.00  0.00    +0.009 A 
ATOM     16 BR   UNL     1      -6.318   3.211  -5.967  0.00  0.00    -0.050 Br
ENDBRANCH   7  10
BRANCH   1  20
ATOM     17  C   UNL     1      -2.561  -3.427  -1.098  0.00  0.00    -0.047 A 
ATOM     18  C   UNL     1      -3.091  -3.989   0.050  0.00  0.00    +0.006 A 
ATOM     19  C   UNL     1      -4.386  -4.464   0.056  0.00  0.00    +0.028 A 
ATOM     20  C   UNL     1      -5.163  -4.376  -1.101  0.00  0.00    +0.067 A 
ATOM     21  C   UNL     1      -4.622  -3.807  -2.257  0.00  0.00    +0.028 A 
ATOM     22  C   UNL     1      -3.328  -3.332  -2.247  0.00  0.00    +0.006 A 
BRANCH  17  23
ATOM     23  C   UNL     1      -1.146  -2.910  -1.096  0.00  0.00    +0.035 C 
BRANCH  23  24
ATOM     24  C   UNL     1      -1.140  -1.440  -0.672  0.00  0.00    +0.004 C 
BRANCH  24  26
ATOM     25  C   UNL     1       0.302   0.555  -0.246  0.00  0.00    +0.004 C 
ATOM     26  C   UNL     1       0.297  -0.915  -0.670  0.00  0.00    -0.003 C 
ENDBRANCH  24  26
ENDBRANCH  23  24
ENDBRANCH  17  23
ENDBRANCH   1  20
TORSDOF 5
