REMARK  Name = ZINC09112578
REMARK  15 active torsions:
REMARK  status: ('A' for Active; 'I' for Inactive)
REMARK    1  A    between atoms: C_1  and  N_66
REMARK    2  A    between atoms: C_2  and  N_66
REMARK    3  A    between atoms: C_3  and  C_5
REMARK    4  A    between atoms: C_3  and  C_26
REMARK    5  A    between atoms: C_3  and  N_66
REMARK    6  A    between atoms: C_5  and  N_6
REMARK    7  A    between atoms: C_7  and  C_9
REMARK    8  A    between atoms: C_12  and  S_15
REMARK    9  A    between atoms: S_15  and  N_18
REMARK   10  A    between atoms: N_18  and  C_19
REMARK   11  A    between atoms: N_18  and  C_20
REMARK   12  A    between atoms: C_29  and  O_34
REMARK   13  A    between atoms: C_30  and  O_32
REMARK   14  A    between atoms: O_32  and  C_33
REMARK   15  A    between atoms: O_34  and  C_35
REMARK                            x       y       z     vdW  Elec       q    Type
REMARK                         _______ _______ _______ _____ _____    ______ ____
ROOT
ATOM      1  N   UNL     1       7.340   4.190   4.012  0.00  0.00    -0.313 N 
ATOM      2  C   UNL     1       7.547   2.924   3.600  0.00  0.00    +0.244 C 
ATOM      3  O   UNL     1       8.533   2.318   3.972  0.00  0.00    -0.270 OA
ATOM      4  H   UNL     1       6.553   4.674   3.715  0.00  0.00    +0.149 HD
ENDROOT
BRANCH   2   5
ATOM      5  C   UNL     1       6.576   2.272   2.696  0.00  0.00    +0.037 A 
ATOM      6  C   UNL     1       6.788   0.960   2.268  0.00  0.00    +0.015 A 
ATOM      7  C   UNL     1       5.878   0.357   1.425  0.00  0.00    +0.029 A 
ATOM      8  C   UNL     1       4.756   1.050   1.004  0.00  0.00    +0.109 A 
ATOM      9  C   UNL     1       4.543   2.352   1.420  0.00  0.00    +0.029 A 
ATOM     10  C   UNL     1       5.443   2.965   2.268  0.00  0.00    +0.015 A 
BRANCH   8  11
ATOM     11  S   UNL     1       3.599   0.273  -0.074  0.00  0.00    +0.074 S 
ATOM     12  O   UNL     1       4.337  -0.644  -0.870  0.00  0.00    -0.150 OA
ATOM     13  O   UNL     1       2.811   1.311  -0.640  0.00  0.00    -0.150 OA
BRANCH  11  14
ATOM     14  N   UNL     1       2.582  -0.632   0.870  0.00  0.00    -0.206 N 
ATOM     15  C   UNL     1       2.927  -2.018   1.198  0.00  0.00    +0.157 C 
BRANCH  14  16
ATOM     16  C   UNL     1       1.397  -0.074   1.353  0.00  0.00    +0.051 A 
ATOM     17  C   UNL     1       0.313  -0.890   1.651  0.00  0.00    +0.025 A 
ATOM     18  C   UNL     1      -0.858  -0.335   2.128  0.00  0.00    +0.002 A 
ATOM     19  C   UNL     1      -0.952   1.032   2.311  0.00  0.00    +0.000 A 
ATOM     20  C   UNL     1       0.124   1.848   2.016  0.00  0.00    +0.002 A 
ATOM     21  C   UNL     1       1.298   1.300   1.538  0.00  0.00    +0.025 A 
ENDBRANCH  14  16
ENDBRANCH  11  14
ENDBRANCH   8  11
ENDBRANCH   2   5
BRANCH   1  22
ATOM     22  C   UNL     1       8.302   4.836   4.908  0.00  0.00    +0.094 C 
BRANCH  22  23
ATOM     23  C   UNL     1       7.905   6.300   5.113  0.00  0.00    -0.021 C 
BRANCH  23  24
ATOM     24  C   UNL     1       8.035   7.043   3.809  0.00  0.00    -0.056 A 
ATOM     25  C   UNL     1       9.276   7.480   3.385  0.00  0.00    +0.006 A 
ATOM     26  C   UNL     1       9.401   8.158   2.186  0.00  0.00    +0.049 A 
ATOM     27  C   UNL     1       8.280   8.410   1.413  0.00  0.00    +0.161 A 
ATOM     28  C   UNL     1       7.030   7.975   1.842  0.00  0.00    +0.162 A 
ATOM     29  C   UNL     1       6.912   7.292   3.042  0.00  0.00    +0.051 A 
BRANCH  28  30
ATOM     30  O   UNL     1       5.926   8.220   1.086  0.00  0.00    -0.491 OA
ATOM     31  C   UNL     1       4.676   7.744   1.589  0.00  0.00    +0.277 C 
ENDBRANCH  28  30
BRANCH  27  32
ATOM     32  O   UNL     1       8.401   9.082   0.236  0.00  0.00    -0.491 OA
ATOM     33  C   UNL     1       9.715   9.498  -0.141  0.00  0.00    +0.277 C 
ENDBRANCH  27  32
ENDBRANCH  23  24
BRANCH  23  36
ATOM     34  C   UNL     1       8.405   8.305   6.374  0.00  0.00    -0.096 C 
ATOM     35  C   UNL     1       8.795   6.128   7.358  0.00  0.00    -0.096 C 
ATOM     36  N   UNL     1       8.815   6.911   6.105  0.00  0.00    +0.382 N 
ATOM     37  H   UNL     1       9.769   6.910   5.726  0.00  0.00    -0.082 HD
ENDBRANCH  23  36
ENDBRANCH  22  23
ENDBRANCH   1  22
TORSDOF 10
