REMARK  Name = ZINC35862555
REMARK  12 active torsions:
REMARK  status: ('A' for Active; 'I' for Inactive)
REMARK    1  A    between atoms: C_1  and  C_2
REMARK    2  A    between atoms: C_5  and  C_8
REMARK    3  A    between atoms: C_12  and  O_26
REMARK    4  A    between atoms: C_19  and  C_21
REMARK    5  A    between atoms: O_26  and  C_27
REMARK    6  A    between atoms: C_27  and  C_28
REMARK    7  A    between atoms: C_30  and  C_33
REMARK    8  A    between atoms: N_35  and  C_36
REMARK    9  A    between atoms: C_36  and  C_37
REMARK   10  A    between atoms: C_37  and  N_38
REMARK   11  A    between atoms: N_38  and  C_39
REMARK   12  A    between atoms: N_38  and  C_40
REMARK                            x       y       z     vdW  Elec       q    Type
REMARK                         _______ _______ _______ _____ _____    ______ ____
ROOT
ATOM      1  C   UNL     1       0.059  -4.275  -0.021  0.00  0.00    +0.137 C 
ATOM      2  C   UNL     1       1.484  -4.759   0.090  0.00  0.00    -0.016 A 
ATOM      3  C   UNL     1       2.312  -4.588  -1.010  0.00  0.00    +0.051 A 
ATOM      4  C   UNL     1       3.632  -5.003  -0.966  0.00  0.00    +0.122 A 
ATOM      5  C   UNL     1       4.127  -5.592   0.189  0.00  0.00    +0.046 A 
ATOM      6  C   UNL     1       3.300  -5.764   1.278  0.00  0.00    +0.007 A 
ATOM      7  C   UNL     1       1.973  -5.353   1.232  0.00  0.00    -0.040 A 
ATOM      8  C   UNL     1       1.124  -5.599   2.452  0.00  0.00    +0.054 C 
ATOM      9  C   UNL     1      -0.110  -4.699   2.447  0.00  0.00    +0.113 C 
ATOM     10  N   UNL     1      -0.723  -4.780   1.112  0.00  0.00    -0.290 N 
ATOM     11  C   UNL     1      -1.956  -5.296   0.938  0.00  0.00    +0.219 C 
ATOM     12  O   UNL     1      -2.439  -5.351  -0.173  0.00  0.00    -0.275 OA
ENDROOT
BRANCH   1  17
ATOM     13  C   UNL     1      -0.012   1.503   0.009  0.00  0.00    +0.044 C 
ATOM     14  C   UNL     1       0.006  -0.004   0.001  0.00  0.00    -0.050 A 
ATOM     15  C   UNL     1       0.623  -0.693   1.029  0.00  0.00    +0.004 A 
ATOM     16  C   UNL     1       0.640  -2.075   1.022  0.00  0.00    +0.006 A 
ATOM     17  C   UNL     1       0.040  -2.768  -0.013  0.00  0.00    -0.023 A 
ATOM     18  C   UNL     1      -0.577  -2.079  -1.041  0.00  0.00    +0.006 A 
ATOM     19  C   UNL     1      -0.598  -0.697  -1.031  0.00  0.00    +0.004 A 
ENDBRANCH   1  17
BRANCH  11  20
ATOM     20  C   UNL     1      -2.733  -5.806   2.124  0.00  0.00    +0.075 C 
ATOM     21  C   UNL     1      -1.990  -6.992   2.773  0.00  0.00    +0.013 C 
ATOM     22  C   UNL     1      -3.121  -7.954   3.213  0.00  0.00    +0.001 C 
ATOM     23  C   UNL     1      -4.142  -7.834   2.054  0.00  0.00    +0.001 C 
ATOM     24  C   UNL     1      -4.101  -6.341   1.667  0.00  0.00    +0.013 C 
ENDBRANCH  11  20
BRANCH   4  25
ATOM     25  O   UNL     1       4.438  -4.834  -2.047  0.00  0.00    -0.483 OA
BRANCH  25  26
ATOM     26  C   UNL     1       5.788  -5.287  -1.926  0.00  0.00    +0.324 C 
BRANCH  26  27
ATOM     27  C   UNL     1       6.525  -5.019  -3.213  0.00  0.00    +0.234 A 
ATOM     28  N   UNL     1       7.184  -3.934  -3.491  0.00  0.00    -0.206 NA
ATOM     29  C   UNL     1       7.712  -4.058  -4.739  0.00  0.00    +0.164 A 
ATOM     30  C   UNL     1       7.341  -5.279  -5.211  0.00  0.00    +0.230 A 
ATOM     31  O   UNL     1       6.609  -5.865  -4.250  0.00  0.00    -0.444 OA
BRANCH  29  32
ATOM     32  C   UNL     1       8.532  -3.058  -5.446  0.00  0.00    +0.265 C 
ATOM     33  O   UNL     1       8.946  -3.292  -6.565  0.00  0.00    -0.268 OA
ATOM     34  N   UNL     1       8.824  -1.884  -4.852  0.00  0.00    -0.312 N 
ATOM     35  H   UNL     1       8.494  -1.697  -3.959  0.00  0.00    +0.149 HD
BRANCH  34  36
ATOM     36  C   UNL     1       9.639  -0.890  -5.555  0.00  0.00    +0.086 C 
BRANCH  36  37
ATOM     37  C   UNL     1       9.819   0.342  -4.666  0.00  0.00    -0.061 C 
BRANCH  37  38
ATOM     38  N   UNL     1      10.636   1.339  -5.371  0.00  0.00    +0.377 N 
ATOM     39  C   UNL     1       9.911   1.818  -6.555  0.00  0.00    -0.097 C 
ATOM     40  C   UNL     1      10.910   2.470  -4.474  0.00  0.00    -0.097 C 
ATOM     41  H   UNL     1      11.508   0.918  -5.657  0.00  0.00    -0.083 HD
ENDBRANCH  37  38
ENDBRANCH  36  37
ENDBRANCH  34  36
ENDBRANCH  29  32
ENDBRANCH  26  27
ENDBRANCH  25  26
ENDBRANCH   4  25
TORSDOF 9
