REMARK  Name = ZINC44425123
REMARK  4 active torsions:
REMARK  status: ('A' for Active; 'I' for Inactive)
REMARK    1  A    between atoms: C_3  and  C_6
REMARK    2  A    between atoms: C_8  and  C_12
REMARK    3  A    between atoms: C_14  and  C_17
REMARK    4  A    between atoms: N_22  and  C_24
REMARK                            x       y       z     vdW  Elec       q    Type
REMARK                         _______ _______ _______ _____ _____    ______ ____
ROOT
ATOM      1  C   UNL     1       7.394   1.456  -0.071  0.00  0.00    +0.276 A 
ATOM      2  N   UNL     1       8.433   2.265  -0.071  0.00  0.00    -0.190 NA
ATOM      3  C   UNL     1       9.563   1.555  -0.091  0.00  0.00    +0.177 A 
ATOM      4  N   UNL     1       9.270   0.285  -0.105  0.00  0.00    -0.060 NA
ATOM      5  O   UNL     1       7.853   0.192  -0.087  0.00  0.00    -0.331 OA
ENDROOT
BRANCH   1   8
ATOM      6  C   UNL     1       3.741   1.826  -0.025  0.00  0.00    +0.100 A 
ATOM      7  C   UNL     1       4.897   1.028  -0.045  0.00  0.00    +0.063 A 
ATOM      8  C   UNL     1       5.980   1.864  -0.051  0.00  0.00    +0.123 A 
ATOM      9  N   UNL     1       5.508   3.147  -0.034  0.00  0.00    -0.272 N 
ATOM     10  H   UNL     1       6.048   3.953  -0.033  0.00  0.00    +0.189 HD
ATOM     11  N   UNL     1       4.109   3.092  -0.022  0.00  0.00    -0.173 NA
BRANCH   6  14
ATOM     12  C   UNL     1      -0.016   1.353   0.009  0.00  0.00    +0.008 A 
ATOM     13  C   UNL     1       1.178   2.041   0.002  0.00  0.00    +0.018 A 
ATOM     14  C   UNL     1       2.347   1.329  -0.013  0.00  0.00    +0.039 A 
ATOM     15  S   UNL     1       1.752  -0.354  -0.017  0.00  0.00    -0.095 S 
ATOM     16  C   UNL     1       0.002  -0.004   0.002  0.00  0.00    +0.046 A 
ENDBRANCH   6  14
ENDBRANCH   1   8
BRANCH   3  17
ATOM     17  C   UNL     1      10.956   2.130  -0.098  0.00  0.00    +0.087 C 
ATOM     18  C   UNL     1      11.791   1.571   1.077  0.00  0.00    +0.109 C 
ATOM     19  C   UNL     1      13.180   1.410   0.500  0.00  0.00    +0.221 C 
ATOM     20  O   UNL     1      14.191   1.264   1.155  0.00  0.00    -0.275 OA
ATOM     21  N   UNL     1      13.131   1.451  -0.842  0.00  0.00    -0.268 N 
ATOM     22  C   UNL     1      11.755   1.629  -1.321  0.00  0.00    +0.125 C 
BRANCH  21  23
ATOM     23  C   UNL     1      14.250   1.339  -1.678  0.00  0.00    +0.073 A 
ATOM     24  C   UNL     1      14.659   0.092  -2.129  0.00  0.00    +0.046 A 
ATOM     25  C   UNL     1      15.764  -0.015  -2.953  0.00  0.00    +0.043 A 
ATOM     26  C   UNL     1      16.462   1.120  -3.329  0.00  0.00    +0.023 A 
ATOM     27  C   UNL     1      16.057   2.364  -2.882  0.00  0.00    +0.041 A 
ATOM     28  C   UNL     1      14.949   2.478  -2.061  0.00  0.00    +0.145 A 
ATOM     29  F   UNL     1      14.551   3.695  -1.629  0.00  0.00    -0.204 F 
ATOM     30 CL   UNL     1      16.276  -1.575  -3.518  0.00  0.00    -0.083 Cl
ENDBRANCH  21  23
ENDBRANCH   3  17
TORSDOF 4
