REMARK  Name = ZINC67258021
REMARK  13 active torsions:
REMARK  status: ('A' for Active; 'I' for Inactive)
REMARK    1  A    between atoms: C_1  and  C_2
REMARK    2  A    between atoms: C_2  and  N_3
REMARK    3  A    between atoms: N_3  and  C_4
REMARK    4  A    between atoms: C_4  and  C_5
REMARK    5  A    between atoms: C_8  and  C_11
REMARK    6  A    between atoms: C_11  and  N_12
REMARK    7  A    between atoms: N_12  and  C_13
REMARK    8  A    between atoms: N_12  and  C_14
REMARK    9  A    between atoms: N_17  and  C_18
REMARK   10  A    between atoms: C_22  and  N_24
REMARK   11  A    between atoms: C_25  and  C_27
REMARK   12  A    between atoms: C_27  and  C_28
REMARK   13  A    between atoms: C_27  and  C_29
REMARK                            x       y       z     vdW  Elec       q    Type
REMARK                         _______ _______ _______ _____ _____    ______ ____
ROOT
ATOM      1  N   UNL     1       0.642  -0.597  -1.162  0.00  0.00    -0.281 N 
ATOM      2  C   UNL     1      -0.064  -0.836  -2.285  0.00  0.00    +0.307 C 
ATOM      3  O   UNL     1       0.472  -1.366  -3.239  0.00  0.00    -0.252 OA
ATOM      4  N   UNL     1      -1.364  -0.486  -2.351  0.00  0.00    -0.269 N 
ATOM      5  H   UNL     1      -1.811  -0.132  -1.566  0.00  0.00    +0.156 HD
ENDROOT
BRANCH   4   6
ATOM      6  C   UNL     1      -2.068  -0.634  -3.551  0.00  0.00    +0.037 A 
ATOM      7  C   UNL     1      -3.420  -0.954  -3.528  0.00  0.00    +0.023 A 
ATOM      8  C   UNL     1      -4.116  -1.101  -4.712  0.00  0.00    +0.004 A 
ATOM      9  C   UNL     1      -3.471  -0.931  -5.922  0.00  0.00    +0.023 A 
ATOM     10  C   UNL     1      -2.120  -0.611  -5.952  0.00  0.00    +0.035 A 
ATOM     11  C   UNL     1      -1.419  -0.457  -4.764  0.00  0.00    +0.046 A 
BRANCH  10  12
ATOM     12  N   UNL     1      -1.467  -0.440  -7.177  0.00  0.00    -0.285 N 
ATOM     13  C   UNL     1      -2.119   0.120  -8.215  0.00  0.00    +0.220 C 
ATOM     14  O   UNL     1      -3.295   0.398  -8.114  0.00  0.00    -0.275 OA
ATOM     15  H   UNL     1      -0.545  -0.723  -7.279  0.00  0.00    +0.155 HD
BRANCH  13  16
ATOM     16  C   UNL     1      -1.387   0.401  -9.502  0.00  0.00    +0.069 C 
ATOM     17  C   UNL     1      -0.838  -0.909 -10.073  0.00  0.00    +0.017 C 
ATOM     18  C   UNL     1      -2.349   1.032 -10.510  0.00  0.00    +0.017 C 
ENDBRANCH  13  16
ENDBRANCH  10  12
ENDBRANCH   4   6
BRANCH   1  20
ATOM     19  C   UNL     1       0.146   1.561  -0.123  0.00  0.00    +0.024 C 
ATOM     20  C   UNL     1      -0.004   0.042  -0.013  0.00  0.00    +0.106 C 
ENDBRANCH   1  20
BRANCH   1  21
ATOM     21  C   UNL     1       2.055  -0.977  -1.090  0.00  0.00    +0.144 C 
BRANCH  21  22
ATOM     22  C   UNL     1       2.171  -2.384  -0.563  0.00  0.00    -0.030 A 
ATOM     23  C   UNL     1       2.276  -2.606   0.797  0.00  0.00    +0.005 A 
ATOM     24  C   UNL     1       2.382  -3.896   1.281  0.00  0.00    +0.002 A 
ATOM     25  C   UNL     1       2.383  -4.965   0.404  0.00  0.00    -0.064 A 
ATOM     26  C   UNL     1       2.278  -4.743  -0.956  0.00  0.00    +0.002 A 
ATOM     27  C   UNL     1       2.167  -3.453  -1.439  0.00  0.00    +0.005 A 
BRANCH  25  28
ATOM     28  C   UNL     1       2.500  -6.372   0.931  0.00  0.00    -0.044 C 
BRANCH  28  29
ATOM     29  N   UNL     1       1.159  -6.908   1.198  0.00  0.00    +0.379 N 
ATOM     30  C   UNL     1       0.419  -7.027  -0.066  0.00  0.00    -0.096 C 
ATOM     31  C   UNL     1       1.276  -8.233   1.823  0.00  0.00    -0.096 C 
ATOM     32  H   UNL     1       0.665  -6.286   1.819  0.00  0.00    -0.082 HD
ENDBRANCH  28  29
ENDBRANCH  25  28
ENDBRANCH  21  22
ENDBRANCH   1  21
TORSDOF 8
