REMARK  Name = ZINC40146933
REMARK  12 active torsions:
REMARK  status: ('A' for Active; 'I' for Inactive)
REMARK    1  A    between atoms: C_1  and  C_2
REMARK    2  A    between atoms: C_2  and  N_3
REMARK    3  A    between atoms: N_3  and  S_4
REMARK    4  A    between atoms: S_4  and  C_7
REMARK    5  A    between atoms: C_11  and  C_13
REMARK    6  A    between atoms: N_15  and  C_16
REMARK    7  A    between atoms: C_16  and  C_18
REMARK    8  A    between atoms: C_16  and  C_29
REMARK    9  A    between atoms: C_18  and  N_19
REMARK   10  A    between atoms: C_29  and  C_30
REMARK   11  A    between atoms: C_29  and  C_31
REMARK   12  A    between atoms: C_29  and  C_32
REMARK                            x       y       z     vdW  Elec       q    Type
REMARK                         _______ _______ _______ _____ _____    ______ ____
ROOT
ATOM      1  C   UNL     1      -2.860  -4.754  -3.285  0.00  0.00    +0.244 C 
ATOM      2  O   UNL     1      -2.104  -4.557  -4.216  0.00  0.00    -0.270 OA
ATOM      3  N   UNL     1      -4.073  -5.300  -3.506  0.00  0.00    -0.310 N 
ATOM      4  H   UNL     1      -4.676  -5.457  -2.763  0.00  0.00    +0.149 HD
ENDROOT
BRANCH   1   9
ATOM      5  C   UNL     1      -0.819  -3.497  -0.394  0.00  0.00    +0.106 A 
ATOM      6  C   UNL     1      -1.683  -3.723   0.664  0.00  0.00    +0.028 A 
ATOM      7  C   UNL     1      -2.928  -4.282   0.441  0.00  0.00    +0.003 A 
ATOM      8  C   UNL     1      -3.317  -4.620  -0.840  0.00  0.00    +0.013 A 
ATOM      9  C   UNL     1      -2.451  -4.395  -1.911  0.00  0.00    +0.039 A 
ATOM     10  C   UNL     1      -1.198  -3.825  -1.679  0.00  0.00    +0.041 A 
BRANCH   5  11
ATOM     11  S   UNL     1       0.765  -2.784  -0.098  0.00  0.00    +0.058 S 
ATOM     12  O   UNL     1       1.594  -3.173  -1.184  0.00  0.00    -0.153 OA
ATOM     13  O   UNL     1       1.094  -3.071   1.254  0.00  0.00    -0.153 OA
BRANCH  11  14
ATOM     14  N   UNL     1       0.588  -1.140  -0.203  0.00  0.00    -0.190 NA
ATOM     15  H   UNL     1       1.035  -0.649  -0.910  0.00  0.00    +0.148 HD
BRANCH  14  17
ATOM     16  C   UNL     1       0.051   1.070   0.695  0.00  0.00    +0.022 C 
ATOM     17  C   UNL     1      -0.243  -0.429   0.772  0.00  0.00    +0.102 C 
ENDBRANCH  14  17
ENDBRANCH  11  14
ENDBRANCH   5  11
ENDBRANCH   1   9
BRANCH   3  18
ATOM     18  C   UNL     1      -4.479  -5.657  -4.867  0.00  0.00    +0.062 C 
BRANCH  18  19
ATOM     19  C   UNL     1      -5.504  -4.641  -5.376  0.00  0.00    -0.021 C 
ATOM     20  C   UNL     1      -4.880  -3.244  -5.379  0.00  0.00    +0.012 C 
ATOM     21  C   UNL     1      -5.928  -5.013  -6.798  0.00  0.00    +0.012 C 
ATOM     22  C   UNL     1      -6.729  -4.651  -4.459  0.00  0.00    +0.012 C 
ENDBRANCH  18  19
BRANCH  18  23
ATOM     23  C   UNL     1      -5.102  -7.054  -4.865  0.00  0.00    -0.055 C 
BRANCH  23  24
ATOM     24  N   UNL     1      -4.147  -8.015  -4.299  0.00  0.00    +0.384 N 
ATOM     25  C   UNL     1      -2.990  -8.148  -5.198  0.00  0.00    -0.074 C 
ATOM     26  C   UNL     1      -1.883  -8.901  -4.460  0.00  0.00    +0.017 C 
ATOM     27  C   UNL     1      -2.437 -10.171  -3.867  0.00  0.00    -0.048 A 
ATOM     28  C   UNL     1      -1.552 -11.157  -3.462  0.00  0.00    +0.004 A 
ATOM     29  C   UNL     1      -2.023 -12.332  -2.911  0.00  0.00    +0.000 A 
ATOM     30  C   UNL     1      -3.384 -12.525  -2.762  0.00  0.00    +0.000 A 
ATOM     31  C   UNL     1      -4.266 -11.543  -3.166  0.00  0.00    +0.002 A 
ATOM     32  C   UNL     1      -3.795 -10.363  -3.722  0.00  0.00    -0.061 A 
ATOM     33  C   UNL     1      -4.793  -9.323  -4.157  0.00  0.00    -0.043 C 
ATOM     34  H   UNL     1      -3.838  -7.692  -3.394  0.00  0.00    -0.081 HD
ENDBRANCH  23  24
ENDBRANCH  18  23
ENDBRANCH   3  18
TORSDOF 8
