REMARK  Name = ZINC39678332
REMARK  6 active torsions:
REMARK  status: ('A' for Active; 'I' for Inactive)
REMARK    1  A    between atoms: C_1  and  C_2
REMARK    2  A    between atoms: C_7  and  C_8
REMARK    3  A    between atoms: C_12  and  C_21
REMARK    4  A    between atoms: N_23  and  C_24
REMARK    5  A    between atoms: C_24  and  C_25
REMARK    6  A    between atoms: C_30  and  N_31
REMARK                            x       y       z     vdW  Elec       q    Type
REMARK                         _______ _______ _______ _____ _____    ______ ____
ROOT
ATOM      1  C   UNL     1       0.016   0.741   3.029  0.00  0.00    +0.247 C 
ATOM      2  O   UNL     1       0.181   1.945   3.046  0.00  0.00    -0.270 OA
ATOM      3  N   UNL     1       0.386  -0.004   4.090  0.00  0.00    -0.296 N 
ATOM      4  C   UNL     1       0.362  -1.481   4.215  0.00  0.00    +0.121 C 
ATOM      5  C   UNL     1       1.656  -1.828   4.985  0.00  0.00    +0.100 C 
ATOM      6  C   UNL     1       2.009  -0.546   5.758  0.00  0.00    -0.004 C 
ATOM      7  C   UNL     1       0.915   0.468   5.392  0.00  0.00    +0.115 C 
ATOM      8  C   UNL     1       3.373  -0.024   5.319  0.00  0.00    -0.010 C 
ATOM      9  C   UNL     1       3.727   1.218   6.142  0.00  0.00    -0.082 C 
ATOM     10  N   UNL     1       3.749   0.873   7.568  0.00  0.00    +0.379 N 
ATOM     11  C   UNL     1       2.410   0.459   8.004  0.00  0.00    -0.082 C 
ATOM     12  C   UNL     1       2.000  -0.815   7.260  0.00  0.00    -0.010 C 
ATOM     13  H   UNL     1       4.399   0.116   7.720  0.00  0.00    -0.086 HD
ATOM     14  H   UNL     1       4.042   1.677   8.104  0.00  0.00    -0.086 HD
ENDROOT
BRANCH   1  21
ATOM     15  C   UNL     1      -2.491   1.735   1.985  0.00  0.00    +0.044 C 
ATOM     16  C   UNL     1      -1.800   0.565   1.333  0.00  0.00    -0.038 A 
ATOM     17  C   UNL     1      -2.359  -0.039   0.226  0.00  0.00    +0.007 A 
ATOM     18  C   UNL     1      -1.726  -1.113  -0.374  0.00  0.00    +0.038 A 
ATOM     19  C   UNL     1      -0.528  -1.590   0.133  0.00  0.00    +0.124 A 
ATOM     20  C   UNL     1       0.042  -0.994   1.242  0.00  0.00    +0.051 A 
ATOM     21  C   UNL     1      -0.590   0.094   1.847  0.00  0.00    +0.043 A 
ATOM     22  F   UNL     1       0.084  -2.639  -0.458  0.00  0.00    -0.205 F 
ENDBRANCH   1  21
BRANCH   5  23
ATOM     23  C   UNL     1       1.408  -2.968   5.939  0.00  0.00    +0.218 C 
ATOM     24  O   UNL     1       0.389  -2.999   6.595  0.00  0.00    -0.275 OA
ATOM     25  N   UNL     1       2.320  -3.953   6.064  0.00  0.00    -0.311 N 
ATOM     26  H   UNL     1       3.135  -3.928   5.539  0.00  0.00    +0.149 HD
BRANCH  25  27
ATOM     27  C   UNL     1       2.079  -5.061   6.992  0.00  0.00    +0.141 C 
BRANCH  27  28
ATOM     28  C   UNL     1       3.241  -6.019   6.942  0.00  0.00    -0.009 A 
ATOM     29  C   UNL     1       3.149  -7.179   6.197  0.00  0.00    +0.007 A 
ATOM     30  C   UNL     1       4.214  -8.059   6.152  0.00  0.00    +0.000 A 
ATOM     31  C   UNL     1       5.375  -7.782   6.850  0.00  0.00    +0.002 A 
ATOM     32  C   UNL     1       5.474  -6.624   7.596  0.00  0.00    +0.023 A 
ATOM     33  C   UNL     1       4.407  -5.734   7.640  0.00  0.00    +0.034 A 
BRANCH  33  34
ATOM     34  N   UNL     1       4.506  -4.560   8.389  0.00  0.00    -0.330 N 
ATOM     35  C   UNL     1       4.108  -4.538   9.803  0.00  0.00    +0.105 C 
ATOM     36  C   UNL     1       5.270  -3.986  10.634  0.00  0.00    +0.019 C 
ATOM     37  C   UNL     1       5.688  -2.623  10.078  0.00  0.00    +0.003 C 
ATOM     38  C   UNL     1       6.162  -2.784   8.631  0.00  0.00    +0.019 C 
ATOM     39  C   UNL     1       5.016  -3.324   7.779  0.00  0.00    +0.105 C 
ENDBRANCH  33  34
ENDBRANCH  27  28
ENDBRANCH  25  27
ENDBRANCH   5  23
TORSDOF 5
