REMARK  Name = ZINC34711104
REMARK  6 active torsions:
REMARK  status: ('A' for Active; 'I' for Inactive)
REMARK    1  A    between atoms: C_4  and  C_7
REMARK    2  A    between atoms: C_10  and  C_24
REMARK    3  A    between atoms: N_13  and  C_15
REMARK    4  A    between atoms: C_15  and  C_16
REMARK    5  A    between atoms: N_26  and  C_27
REMARK    6  A    between atoms: C_27  and  C_28
REMARK                            x       y       z     vdW  Elec       q    Type
REMARK                         _______ _______ _______ _____ _____    ______ ____
ROOT
ATOM      1  C   UNL     1       3.711  -0.707  -0.038  0.00  0.00    +0.034 C 
ATOM      2  C   UNL     1       3.791  -1.582  -1.292  0.00  0.00    +0.023 C 
ATOM      3  C   UNL     1       5.103  -2.371  -1.272  0.00  0.00    +0.090 C 
ATOM      4  C   UNL     1       5.168  -3.210   0.007  0.00  0.00    +0.097 C 
ATOM      5  N   UNL     1       5.089  -2.328   1.178  0.00  0.00    -0.297 NA
ATOM      6  C   UNL     1       3.817  -1.594   1.205  0.00  0.00    +0.093 C 
ENDROOT
BRANCH   1  10
ATOM      7  C   UNL     1      -0.017   1.378   0.010  0.00  0.00    +0.000 A 
ATOM      8  C   UNL     1       1.171   2.086   0.002  0.00  0.00    +0.000 A 
ATOM      9  C   UNL     1       2.377   1.411  -0.013  0.00  0.00    +0.004 A 
ATOM     10  C   UNL     1       2.396   0.029  -0.020  0.00  0.00    -0.043 A 
ATOM     11  C   UNL     1       1.208  -0.679  -0.012  0.00  0.00    +0.004 A 
ATOM     12  C   UNL     1       0.002  -0.004   0.002  0.00  0.00    +0.000 A 
ENDBRANCH   1  10
BRANCH   3  13
ATOM     13  C   UNL     1       5.163  -3.278  -2.474  0.00  0.00    +0.218 C 
ATOM     14  O   UNL     1       4.248  -3.292  -3.269  0.00  0.00    -0.275 OA
ATOM     15  N   UNL     1       6.235  -4.073  -2.665  0.00  0.00    -0.311 N 
ATOM     16  H   UNL     1       6.967  -4.061  -2.029  0.00  0.00    +0.149 HD
BRANCH  15  17
ATOM     17  C   UNL     1       6.293  -4.955  -3.833  0.00  0.00    +0.139 C 
BRANCH  17  18
ATOM     18  C   UNL     1       7.585  -5.731  -3.813  0.00  0.00    -0.027 A 
ATOM     19  C   UNL     1       8.710  -5.214  -4.428  0.00  0.00    +0.009 A 
ATOM     20  C   UNL     1       9.897  -5.922  -4.411  0.00  0.00    +0.050 A 
ATOM     21  C   UNL     1       9.962  -7.152  -3.778  0.00  0.00    +0.166 A 
ATOM     22  C   UNL     1       8.829  -7.673  -3.158  0.00  0.00    +0.167 A 
ATOM     23  C   UNL     1       7.644  -6.955  -3.174  0.00  0.00    +0.054 A 
ATOM     24  O   UNL     1       9.146  -8.883  -2.612  0.00  0.00    -0.453 OA
ATOM     25  C   UNL     1      10.372  -9.284  -3.254  0.00  0.00    +0.466 C 
ATOM     26  O   UNL     1      10.990  -8.036  -3.620  0.00  0.00    -0.453 OA
ENDBRANCH  17  18
ENDBRANCH  15  17
ENDBRANCH   3  13
BRANCH   5  27
ATOM     27  C   UNL     1       5.287  -3.084   2.421  0.00  0.00    +0.122 C 
BRANCH  27  28
ATOM     28  C   UNL     1       6.697  -3.614   2.467  0.00  0.00    +0.002 A 
ATOM     29  C   UNL     1       6.952  -4.929   2.124  0.00  0.00    +0.010 A 
ATOM     30  C   UNL     1       8.245  -5.417   2.165  0.00  0.00    +0.039 A 
ATOM     31  C   UNL     1       9.286  -4.589   2.550  0.00  0.00    +0.126 A 
ATOM     32  C   UNL     1       9.031  -3.272   2.894  0.00  0.00    +0.077 A 
ATOM     33  C   UNL     1       7.737  -2.783   2.847  0.00  0.00    +0.131 A 
ATOM     34  F   UNL     1       7.488  -1.497   3.177  0.00  0.00    -0.205 F 
ATOM     35  F   UNL     1      10.549  -5.066   2.591  0.00  0.00    -0.205 F 
ENDBRANCH  27  28
ENDBRANCH   5  27
TORSDOF 6
