REMARK  Name = ZINC02696291
REMARK  7 active torsions:
REMARK  status: ('A' for Active; 'I' for Inactive)
REMARK    1  A    between atoms: N_9  and  S_10
REMARK    2  A    between atoms: S_10  and  C_13
REMARK    3  A    between atoms: C_16  and  N_19
REMARK    4  A    between atoms: C_20  and  C_22
REMARK    5  A    between atoms: C_22  and  O_23
REMARK    6  A    between atoms: O_23  and  C_24
REMARK    7  A    between atoms: C_27  and  N_30
REMARK                            x       y       z     vdW  Elec       q    Type
REMARK                         _______ _______ _______ _____ _____    ______ ____
ROOT
ATOM      1  C   UNL     1       2.519  10.520   0.306  0.00  0.00    +0.109 A 
ATOM      2  C   UNL     1       3.820  10.064   0.196  0.00  0.00    +0.030 A 
ATOM      3  C   UNL     1       4.072   8.710   0.096  0.00  0.00    +0.025 A 
ATOM      4  C   UNL     1       3.018   7.806   0.107  0.00  0.00    +0.034 A 
ATOM      5  C   UNL     1       1.712   8.268   0.212  0.00  0.00    +0.025 A 
ATOM      6  C   UNL     1       1.467   9.623   0.317  0.00  0.00    +0.030 A 
ENDROOT
BRANCH   4   7
ATOM      7  N   UNL     1       3.270   6.433   0.006  0.00  0.00    -0.283 N 
ATOM      8  C   UNL     1       4.371   5.907   0.578  0.00  0.00    +0.255 C 
ATOM      9  O   UNL     1       5.186   6.633   1.107  0.00  0.00    -0.272 OA
ATOM     10  H   UNL     1       2.652   5.861  -0.475  0.00  0.00    +0.155 HD
BRANCH   8  11
ATOM     11  C   UNL     1       4.590   4.416   0.560  0.00  0.00    +0.324 C 
BRANCH  11  12
ATOM     12  O   UNL     1       5.818   4.107   1.223  0.00  0.00    -0.483 OA
BRANCH  12  13
ATOM     13  C   UNL     1       6.166   2.795   1.295  0.00  0.00    +0.121 A 
ATOM     14  C   UNL     1       7.345   2.423   1.925  0.00  0.00    +0.048 A 
ATOM     15  C   UNL     1       7.698   1.089   1.996  0.00  0.00    +0.036 A 
ATOM     16  C   UNL     1       6.877   0.125   1.441  0.00  0.00    +0.126 A 
ATOM     17  C   UNL     1       5.701   0.493   0.812  0.00  0.00    +0.036 A 
ATOM     18  C   UNL     1       5.345   1.826   0.738  0.00  0.00    +0.048 A 
BRANCH  16  19
ATOM     19  N   UNL     1       7.257  -1.303   1.519  0.00  0.00    +0.056 N 
ATOM     20  O   UNL     1       8.292  -1.628   2.073  0.00  0.00    -0.126 OA
ATOM     21  O   UNL     1       6.534  -2.153   1.030  0.00  0.00    -0.126 OA
ENDBRANCH  16  19
ENDBRANCH  12  13
ENDBRANCH  11  12
ENDBRANCH   8  11
ENDBRANCH   4   7
BRANCH   1  22
ATOM     22  S   UNL     1       2.202  12.249   0.433  0.00  0.00    +0.075 S 
ATOM     23  O   UNL     1       0.941  12.384   1.074  0.00  0.00    -0.150 OA
ATOM     24  O   UNL     1       3.385  12.843   0.947  0.00  0.00    -0.150 OA
BRANCH  22  33
ATOM     25  C   UNL     1       4.797  14.358  -3.799  0.00  0.00    +0.000 A 
ATOM     26  C   UNL     1       5.273  13.950  -2.566  0.00  0.00    +0.002 A 
ATOM     27  C   UNL     1       4.408  13.432  -1.626  0.00  0.00    +0.025 A 
ATOM     28  C   UNL     1       3.045  13.322  -1.908  0.00  0.00    +0.054 A 
ATOM     29  C   UNL     1       2.579  13.729  -3.148  0.00  0.00    -0.023 A 
ATOM     30  C   UNL     1       3.450  14.247  -4.088  0.00  0.00    +0.005 A 
ATOM     31  C   UNL     1       1.085  13.499  -3.200  0.00  0.00    +0.058 C 
ATOM     32  C   UNL     1       0.739  12.898  -1.828  0.00  0.00    +0.136 C 
ATOM     33  N   UNL     1       2.014  12.826  -1.108  0.00  0.00    -0.202 N 
ENDBRANCH  22  33
ENDBRANCH   1  22
TORSDOF 7
