REMARK  Name = ZINC64152444
REMARK  7 active torsions:
REMARK  status: ('A' for Active; 'I' for Inactive)
REMARK    1  A    between atoms: C_1  and  N_2
REMARK    2  A    between atoms: N_2  and  C_3
REMARK    3  A    between atoms: C_3  and  C_4
REMARK    4  A    between atoms: C_15  and  C_17
REMARK    5  A    between atoms: C_20  and  C_23
REMARK    6  A    between atoms: C_23  and  O_24
REMARK    7  A    between atoms: O_24  and  C_25
REMARK                            x       y       z     vdW  Elec       q    Type
REMARK                         _______ _______ _______ _____ _____    ______ ____
ROOT
ATOM      1  C   UNL     1      -0.018   1.461   0.010  0.00  0.00    +0.132 C 
ATOM      2  N   UNL     1       0.002  -0.004   0.002  0.00  0.00    -0.301 N 
ATOM      3  C   UNL     1       0.000  -0.672  -1.169  0.00  0.00    +0.240 C 
ATOM      4  O   UNL     1       0.017  -1.884  -1.175  0.00  0.00    -0.273 OA
ENDROOT
BRANCH   3   5
ATOM      5  C   UNL     1      -0.023   0.089  -2.470  0.00  0.00    +0.204 C 
ATOM      6  C   UNL     1       1.374   0.537  -2.855  0.00  0.00    +0.051 C 
ATOM      7  C   UNL     1       1.549   0.265  -4.130  0.00  0.00    +0.161 C 
ATOM      8  O   UNL     1       0.455  -0.306  -4.689  0.00  0.00    -0.407 OA
ATOM      9  N   UNL     1      -0.404  -0.803  -3.595  0.00  0.00    -0.140 NA
ATOM     10  H   UNL     1      -0.195  -1.767  -3.380  0.00  0.00    +0.168 HD
BRANCH   7  11
ATOM     11  C   UNL     1       2.821   0.557  -4.884  0.00  0.00    +0.304 C 
BRANCH  11  12
ATOM     12  O   UNL     1       3.420  -0.672  -5.301  0.00  0.00    -0.483 OA
BRANCH  12  13
ATOM     13  C   UNL     1       4.583  -0.586  -5.998  0.00  0.00    +0.141 A 
ATOM     14  C   UNL     1       5.225  -1.737  -6.445  0.00  0.00    +0.068 A 
ATOM     15  C   UNL     1       6.409  -1.599  -7.153  0.00  0.00    +0.062 A 
ATOM     16  C   UNL     1       6.909  -0.330  -7.390  0.00  0.00    +0.131 A 
ATOM     17  N   UNL     1       6.276   0.740  -6.952  0.00  0.00    -0.258 NA
ATOM     18  C   UNL     1       5.145   0.651  -6.280  0.00  0.00    +0.156 A 
ATOM     19 CL   UNL     1       7.254  -2.999  -7.734  0.00  0.00    -0.082 Cl
ENDBRANCH  12  13
ENDBRANCH  11  12
ENDBRANCH   7  11
ENDBRANCH   3   5
BRANCH   2  20
ATOM     20  C   UNL     1       0.024  -0.743   1.267  0.00  0.00    +0.136 C 
BRANCH  20  21
ATOM     21  C   UNL     1      -1.411  -1.020   1.720  0.00  0.00    +0.120 C 
ATOM     22  C   UNL     1      -1.411  -1.620   3.109  0.00  0.00    +0.009 C 
ATOM     23  C   UNL     1      -2.102  -0.757   3.889  0.00  0.00    -0.001 A 
ATOM     24  C   UNL     1      -2.451  -0.768   5.315  0.00  0.00    +0.048 A 
ATOM     25  C   UNL     1      -3.169   0.262   5.822  0.00  0.00    +0.124 A 
ATOM     26  C   UNL     1      -3.587   1.335   5.020  0.00  0.00    +0.040 A 
ATOM     27  C   UNL     1      -3.304   1.414   3.703  0.00  0.00    +0.029 A 
ATOM     28  C   UNL     1      -2.555   0.387   3.066  0.00  0.00    +0.043 A 
ATOM     29  N   UNL     1      -2.160   0.237   1.823  0.00  0.00    -0.376 N 
ATOM     30  F   UNL     1      -3.493   0.255   7.134  0.00  0.00    -0.205 F 
ATOM     31  H   UNL     1      -2.334   0.853   1.094  0.00  0.00    +0.160 HD
ENDBRANCH  20  21
ENDBRANCH   2  20
TORSDOF 6
