REMARK  Name = ZINC19296651
REMARK  8 active torsions:
REMARK  status: ('A' for Active; 'I' for Inactive)
REMARK    1  A    between atoms: C_1  and  C_2
REMARK    2  A    between atoms: C_2  and  C_4
REMARK    3  A    between atoms: C_2  and  S_8
REMARK    4  A    between atoms: N_6  and  C_7
REMARK    5  A    between atoms: S_8  and  C_9
REMARK    6  A    between atoms: N_23  and  C_24
REMARK    7  A    between atoms: C_27  and  O_30
REMARK    8  A    between atoms: O_30  and  C_31
REMARK                            x       y       z     vdW  Elec       q    Type
REMARK                         _______ _______ _______ _____ _____    ______ ____
ROOT
ATOM      1  C   UNL     1      -2.682   1.178   1.117  0.00  0.00    +0.178 A 
ATOM      2  N   UNL     1      -2.884   0.400   0.073  0.00  0.00    -0.215 NA
ATOM      3  C   UNL     1      -3.754  -0.601   0.130  0.00  0.00    +0.117 A 
ATOM      4  C   UNL     1      -4.497  -0.880   1.288  0.00  0.00    +0.076 A 
ATOM      5  C   UNL     1      -5.424  -2.015   1.202  0.00  0.00    -0.023 A 
ATOM      6  C   UNL     1      -5.462  -2.678   0.029  0.00  0.00    -0.004 A 
ATOM      7  S   UNL     1      -4.297  -1.842  -1.016  0.00  0.00    -0.073 S 
ATOM      8  C   UNL     1      -6.293  -3.873  -0.322  0.00  0.00    +0.043 C 
ATOM      9  C   UNL     1      -7.750  -3.617   0.087  0.00  0.00    +0.005 C 
ATOM     10  C   UNL     1      -7.936  -4.097   1.523  0.00  0.00    +0.001 C 
ATOM     11  C   UNL     1      -6.646  -3.890   2.315  0.00  0.00    +0.005 C 
ATOM     12  C   UNL     1      -6.298  -2.409   2.389  0.00  0.00    +0.037 C 
ATOM     13  C   UNL     1      -4.258  -0.021   2.406  0.00  0.00    +0.268 A 
ATOM     14  O   UNL     1      -4.856  -0.190   3.455  0.00  0.00    -0.267 OA
ATOM     15  N   UNL     1      -3.358   0.972   2.287  0.00  0.00    -0.255 N 
ENDROOT
BRANCH  15  16
ATOM     16  C   UNL     1      -3.113   1.815   3.381  0.00  0.00    +0.052 A 
ATOM     17  C   UNL     1      -3.861   2.973   3.545  0.00  0.00    +0.030 A 
ATOM     18  C   UNL     1      -3.623   3.801   4.625  0.00  0.00    +0.047 A 
ATOM     19  C   UNL     1      -2.630   3.480   5.539  0.00  0.00    +0.120 A 
ATOM     20  C   UNL     1      -1.879   2.326   5.372  0.00  0.00    +0.047 A 
ATOM     21  C   UNL     1      -2.120   1.495   4.296  0.00  0.00    +0.030 A 
BRANCH  19  22
ATOM     22  O   UNL     1      -2.393   4.298   6.599  0.00  0.00    -0.495 OA
ATOM     23  C   UNL     1      -3.204   5.470   6.709  0.00  0.00    +0.277 C 
ENDBRANCH  19  22
ENDBRANCH  15  16
BRANCH   1  24
ATOM     24  S   UNL     1      -1.519   2.498   1.006  0.00  0.00    -0.075 S 
BRANCH  24  26
ATOM     25  C   UNL     1      -2.123   2.543  -1.658  0.00  0.00    +0.029 C 
ATOM     26  C   UNL     1      -0.958   2.280  -0.701  0.00  0.00    +0.137 C 
BRANCH  26  27
ATOM     27  C   UNL     1       0.158   3.250  -0.991  0.00  0.00    +0.226 C 
ATOM     28  O   UNL     1       0.302   4.234  -0.297  0.00  0.00    -0.275 OA
ATOM     29  N   UNL     1       0.997   3.023  -2.021  0.00  0.00    -0.317 N 
ATOM     30  C   UNL     1       2.082   3.966  -2.303  0.00  0.00    +0.128 C 
ATOM     31  H   UNL     1       0.867   2.131  -2.651  0.00  0.00    +0.148 HD
ENDBRANCH  26  27
ENDBRANCH  24  26
ENDBRANCH   1  24
TORSDOF 5
