REMARK  Name = ZINC01778529
REMARK  9 active torsions:
REMARK  status: ('A' for Active; 'I' for Inactive)
REMARK    1  A    between atoms: C_1  and  C_2
REMARK    2  A    between atoms: C_2  and  O_3
REMARK    3  A    between atoms: O_3  and  C_4
REMARK    4  A    between atoms: C_4  and  C_6
REMARK    5  A    between atoms: C_7  and  N_17
REMARK    6  A    between atoms: C_12  and  C_16
REMARK    7  A    between atoms: C_18  and  C_20
REMARK    8  A    between atoms: C_20  and  S_21
REMARK    9  A    between atoms: S_21  and  C_22
REMARK                            x       y       z     vdW  Elec       q    Type
REMARK                         _______ _______ _______ _____ _____    ______ ____
ROOT
ATOM      1  N   UNL     1      -1.151   2.193  -0.119  0.00  0.00    -0.283 N 
ATOM      2  C   UNL     1      -2.348   1.607   0.080  0.00  0.00    +0.227 C 
ATOM      3  O   UNL     1      -2.405   0.440   0.406  0.00  0.00    -0.275 OA
ATOM      4  H   UNL     1      -1.101   3.143  -0.308  0.00  0.00    +0.155 HD
ENDROOT
BRANCH   1   6
ATOM      5  C   UNL     1       0.598   0.908  -1.204  0.00  0.00    +0.118 A 
ATOM      6  C   UNL     1       0.018   1.433  -0.054  0.00  0.00    +0.058 A 
ATOM      7  C   UNL     1       0.643   1.180   1.163  0.00  0.00    -0.015 A 
ATOM      8  C   UNL     1       1.782   0.432   1.125  0.00  0.00    -0.004 A 
ATOM      9  S   UNL     1       2.023   0.063  -0.540  0.00  0.00    -0.085 S 
ATOM     10  C   UNL     1       2.634   0.024   2.288  0.00  0.00    +0.046 C 
ATOM     11  C   UNL     1       1.837   0.259   3.579  0.00  0.00    -0.009 C 
ATOM     12  C   UNL     1       1.224   1.662   3.531  0.00  0.00    +0.008 C 
ATOM     13  C   UNL     1       0.103   1.705   2.491  0.00  0.00    +0.038 C 
ATOM     14  C   UNL     1       2.769   0.145   4.787  0.00  0.00    +0.008 C 
BRANCH   5  15
ATOM     15  C   UNL     1       0.171   1.015  -2.548  0.00  0.00    +0.348 C 
ATOM     16  O   UNL     1      -0.826   1.659  -2.820  0.00  0.00    -0.244 OA
BRANCH  15  17
ATOM     17  O   UNL     1       0.868   0.404  -3.529  0.00  0.00    -0.461 OA
BRANCH  17  19
ATOM     18  C   UNL     1       1.293  -0.202  -5.830  0.00  0.00    +0.048 C 
ATOM     19  C   UNL     1       0.379   0.554  -4.863  0.00  0.00    +0.229 C 
ENDBRANCH  17  19
ENDBRANCH  15  17
ENDBRANCH   5  15
ENDBRANCH   1   6
BRANCH   2  20
ATOM     20  C   UNL     1      -3.615   2.401  -0.103  0.00  0.00    +0.171 C 
BRANCH  20  21
ATOM     21  S   UNL     1      -5.045   1.343   0.235  0.00  0.00    -0.096 S 
BRANCH  21  22
ATOM     22  C   UNL     1      -6.350   2.493  -0.045  0.00  0.00    +0.109 A 
ATOM     23  C   UNL     1      -7.708   2.094   0.107  0.00  0.00    +0.043 A 
ATOM     24  C   UNL     1      -8.242   0.785   0.486  0.00  0.00    -0.025 A 
ATOM     25  C   UNL     1      -9.583   0.670   0.559  0.00  0.00    -0.004 A 
ATOM     26  S   UNL     1     -10.209   2.273   0.134  0.00  0.00    -0.073 S 
ATOM     27  C   UNL     1      -8.664   3.098  -0.143  0.00  0.00    +0.113 A 
ATOM     28  N   UNL     1      -8.307   4.319  -0.493  0.00  0.00    -0.228 NA
ATOM     29  C   UNL     1      -7.032   4.630  -0.618  0.00  0.00    +0.223 A 
ATOM     30  N   UNL     1      -6.080   3.741  -0.395  0.00  0.00    -0.229 NA
ATOM     31  C   UNL     1     -10.371  -0.553   0.921  0.00  0.00    +0.043 C 
ATOM     32  C   UNL     1      -9.440  -1.771   0.839  0.00  0.00    +0.005 C 
ATOM     33  C   UNL     1      -8.139  -1.444   1.579  0.00  0.00    +0.005 C 
ATOM     34  C   UNL     1      -7.339  -0.407   0.789  0.00  0.00    +0.037 C 
ENDBRANCH  21  22
ENDBRANCH  20  21
ENDBRANCH   2  20
TORSDOF 7
