REMARK  Name = ZINC09692995
REMARK  8 active torsions:
REMARK  status: ('A' for Active; 'I' for Inactive)
REMARK    1  A    between atoms: C_1  and  C_2
REMARK    2  A    between atoms: C_5  and  C_37
REMARK    3  A    between atoms: C_6  and  C_8
REMARK    4  A    between atoms: C_8  and  N_9
REMARK    5  A    between atoms: C_17  and  C_21
REMARK    6  A    between atoms: C_21  and  C_23
REMARK    7  A    between atoms: C_21  and  C_24
REMARK    8  A    between atoms: N_29  and  C_32
REMARK                            x       y       z     vdW  Elec       q    Type
REMARK                         _______ _______ _______ _____ _____    ______ ____
ROOT
ATOM      1  N   UNL     1      -2.030   1.090   6.645  0.00  0.00    -0.265 N 
ATOM      2  C   UNL     1      -0.642   1.115   6.750  0.00  0.00    +0.050 A 
ATOM      3  C   UNL     1      -0.042   1.931   7.702  0.00  0.00    +0.024 A 
ATOM      4  C   UNL     1       1.334   1.964   7.823  0.00  0.00    +0.002 A 
ATOM      5  C   UNL     1       2.129   1.187   7.001  0.00  0.00    +0.001 A 
ATOM      6  C   UNL     1       1.546   0.371   6.048  0.00  0.00    +0.016 A 
ATOM      7  C   UNL     1       0.167   0.336   5.921  0.00  0.00    +0.030 A 
ATOM      8  S   UNL     1      -0.589  -0.693   4.702  0.00  0.00    -0.110 S 
ATOM      9  C   UNL     1      -2.108   0.223   4.302  0.00  0.00    +0.149 C 
ATOM     10  C   UNL     1      -2.732   0.709   5.582  0.00  0.00    +0.234 C 
ATOM     11  O   UNL     1      -3.943   0.755   5.648  0.00  0.00    -0.274 OA
ENDROOT
BRANCH   9  12
ATOM     12  C   UNL     1      -1.767   1.419   3.411  0.00  0.00    +0.094 C 
ATOM     13  C   UNL     1      -0.689   2.268   4.088  0.00  0.00    +0.019 C 
BRANCH  12  14
ATOM     14  C   UNL     1      -1.256   0.926   2.082  0.00  0.00    +0.220 C 
ATOM     15  O   UNL     1      -1.053  -0.257   1.911  0.00  0.00    -0.275 OA
ATOM     16  N   UNL     1      -1.025   1.800   1.082  0.00  0.00    -0.298 N 
ATOM     17  C   UNL     1      -0.453   1.352  -0.196  0.00  0.00    +0.126 C 
ATOM     18  C   UNL     1      -1.332   1.873  -1.338  0.00  0.00    +0.125 C 
ATOM     19  N   UNL     1      -1.490   3.328  -1.204  0.00  0.00    -0.314 N 
ATOM     20  C   UNL     1      -2.188   3.676   0.040  0.00  0.00    +0.125 C 
ATOM     21  C   UNL     1      -1.344   3.229   1.238  0.00  0.00    +0.126 C 
BRANCH  19  22
ATOM     22  C   UNL     1      -2.144   3.861  -2.309  0.00  0.00    +0.099 A 
ATOM     23  C   UNL     1      -2.389   5.229  -2.371  0.00  0.00    +0.042 A 
ATOM     24  C   UNL     1      -3.041   5.747  -3.476  0.00  0.00    +0.005 A 
ATOM     25  C   UNL     1      -3.427   4.875  -4.485  0.00  0.00    +0.018 A 
ATOM     26  C   UNL     1      -3.152   3.529  -4.358  0.00  0.00    +0.084 A 
ATOM     27  N   UNL     1      -2.508   2.986  -3.290  0.00  0.00    -0.350 N 
ATOM     28  H   UNL     1      -2.308   1.981  -3.226  0.00  0.00    +0.166 HD
ENDBRANCH  19  22
ENDBRANCH  12  14
ENDBRANCH   9  12
BRANCH   1  29
ATOM     29  C   UNL     1      -2.790   1.528   7.818  0.00  0.00    +0.149 C 
BRANCH  29  35
ATOM     30  C   UNL     1      -1.705  -3.173   9.151  0.00  0.00    +0.044 C 
ATOM     31  C   UNL     1      -2.425  -1.875   9.413  0.00  0.00    -0.050 A 
ATOM     32  C   UNL     1      -3.226  -1.742  10.532  0.00  0.00    +0.003 A 
ATOM     33  C   UNL     1      -3.885  -0.552  10.773  0.00  0.00    +0.004 A 
ATOM     34  C   UNL     1      -3.744   0.507   9.895  0.00  0.00    -0.046 A 
ATOM     35  C   UNL     1      -2.943   0.374   8.776  0.00  0.00    -0.027 A 
ATOM     36  C   UNL     1      -2.288  -0.819   8.532  0.00  0.00    +0.008 A 
ATOM     37  C   UNL     1      -4.463   1.805  10.157  0.00  0.00    +0.044 C 
ENDBRANCH  29  35
ENDBRANCH   1  29
TORSDOF 5
