REMARK  Name = ZINC39685094
REMARK  7 active torsions:
REMARK  status: ('A' for Active; 'I' for Inactive)
REMARK    1  A    between atoms: C_5  and  O_7
REMARK    2  A    between atoms: O_7  and  C_8
REMARK    3  A    between atoms: C_8  and  C_9
REMARK    4  A    between atoms: C_9  and  N_10
REMARK    5  A    between atoms: C_11  and  C_13
REMARK    6  A    between atoms: C_24  and  C_26
REMARK    7  A    between atoms: C_26  and  C_27
REMARK                            x       y       z     vdW  Elec       q    Type
REMARK                         _______ _______ _______ _____ _____    ______ ____
ROOT
ATOM      1  C   UNL     1       1.834  -6.340   2.711  0.00  0.00    +0.100 C 
ATOM      2  C   UNL     1       0.985  -5.923   3.932  0.00  0.00    +0.121 C 
ATOM      3  N   UNL     1       0.184  -7.126   4.260  0.00  0.00    -0.300 N 
ATOM      4  C   UNL     1       1.118  -8.258   4.053  0.00  0.00    +0.115 C 
ATOM      5  C   UNL     1       1.922  -7.873   2.795  0.00  0.00    -0.004 C 
ATOM      6  C   UNL     1       3.376  -8.311   2.943  0.00  0.00    -0.010 C 
ATOM      7  C   UNL     1       3.443  -9.841   2.966  0.00  0.00    -0.082 C 
ATOM      8  N   UNL     1       2.873 -10.377   1.724  0.00  0.00    +0.379 N 
ATOM      9  C   UNL     1       1.450 -10.029   1.636  0.00  0.00    -0.082 C 
ATOM     10  C   UNL     1       1.298  -8.507   1.556  0.00  0.00    -0.010 C 
ATOM     11  C   UNL     1      -1.103  -7.178   4.656  0.00  0.00    +0.220 C 
ATOM     12  O   UNL     1      -1.623  -8.249   4.888  0.00  0.00    -0.275 OA
ATOM     13  H   UNL     1       3.364  -9.985   0.934  0.00  0.00    -0.086 HD
ATOM     14  H   UNL     1       2.974 -11.381   1.715  0.00  0.00    -0.086 HD
ENDROOT
BRANCH   1  16
ATOM     15  N   UNL     1       1.888  -5.654   0.335  0.00  0.00    -0.312 N 
ATOM     16  C   UNL     1       1.154  -5.923   1.432  0.00  0.00    +0.218 C 
ATOM     17  O   UNL     1      -0.055  -5.830   1.391  0.00  0.00    -0.275 OA
ATOM     18  H   UNL     1       2.855  -5.728   0.368  0.00  0.00    +0.149 HD
BRANCH  15  19
ATOM     19  C   UNL     1       1.227  -5.249  -0.908  0.00  0.00    +0.145 C 
BRANCH  19  20
ATOM     20  C   UNL     1       2.280  -5.005  -1.991  0.00  0.00    +0.248 C 
BRANCH  20  21
ATOM     21  O   UNL     1       2.941  -6.234  -2.297  0.00  0.00    -0.488 OA
BRANCH  21  26
ATOM     22  C   UNL     1       5.212  -4.953  -4.836  0.00  0.00    +0.004 A 
ATOM     23  C   UNL     1       5.892  -6.106  -5.180  0.00  0.00    +0.003 A 
ATOM     24  C   UNL     1       5.585  -7.304  -4.561  0.00  0.00    +0.042 A 
ATOM     25  C   UNL     1       4.597  -7.351  -3.595  0.00  0.00    +0.165 A 
ATOM     26  C   UNL     1       3.913  -6.192  -3.247  0.00  0.00    +0.156 A 
ATOM     27  C   UNL     1       4.224  -4.994  -3.870  0.00  0.00    +0.048 A 
ATOM     28  F   UNL     1       4.296  -8.521  -2.990  0.00  0.00    -0.202 F 
ENDBRANCH  21  26
ENDBRANCH  20  21
ENDBRANCH  19  20
ENDBRANCH  15  19
ENDBRANCH   1  16
BRANCH  11  29
ATOM     29  C   UNL     1      -1.897  -5.906   4.810  0.00  0.00    +0.131 C 
BRANCH  29  30
ATOM     30  C   UNL     1      -3.296  -6.239   5.260  0.00  0.00    -0.039 A 
ATOM     31  C   UNL     1      -4.285  -6.476   4.324  0.00  0.00    +0.005 A 
ATOM     32  C   UNL     1      -5.569  -6.781   4.736  0.00  0.00    +0.020 A 
ATOM     33  C   UNL     1      -5.864  -6.849   6.085  0.00  0.00    +0.041 A 
ATOM     34  C   UNL     1      -4.873  -6.611   7.022  0.00  0.00    +0.020 A 
ATOM     35  C   UNL     1      -3.589  -6.312   6.609  0.00  0.00    +0.005 A 
ATOM     36 CL   UNL     1      -7.476  -7.231   6.604  0.00  0.00    -0.084 Cl
ENDBRANCH  29  30
ENDBRANCH  11  29
TORSDOF 7
