REMARK  Name = ZINC44931265
REMARK  6 active torsions:
REMARK  status: ('A' for Active; 'I' for Inactive)
REMARK    1  A    between atoms: C_1  and  C_2
REMARK    2  A    between atoms: C_2  and  C_4
REMARK    3  A    between atoms: C_2  and  N_9
REMARK    4  A    between atoms: C_12  and  C_16
REMARK    5  A    between atoms: C_16  and  C_17
REMARK    6  A    between atoms: C_16  and  C_18
REMARK                            x       y       z     vdW  Elec       q    Type
REMARK                         _______ _______ _______ _____ _____    ______ ____
ROOT
ATOM      1  N   UNL     1       0.688  -0.476  -1.203  0.00  0.00    -0.319 N 
ATOM      2  C   UNL     1      -0.013  -0.612  -2.391  0.00  0.00    +0.123 A 
ATOM      3  C   UNL     1      -1.372  -0.295  -2.453  0.00  0.00    +0.067 A 
ATOM      4  C   UNL     1      -2.026  -0.447  -3.659  0.00  0.00    +0.049 A 
ATOM      5  N   UNL     1      -1.348  -0.885  -4.712  0.00  0.00    -0.240 NA
ATOM      6  C   UNL     1      -0.066  -1.175  -4.621  0.00  0.00    +0.223 A 
ATOM      7  N   UNL     1       0.599  -1.040  -3.491  0.00  0.00    -0.221 NA
ATOM      8  H   UNL     1       1.632  -0.695  -1.170  0.00  0.00    +0.148 HD
ENDROOT
BRANCH   4   9
ATOM      9  C   UNL     1      -3.492  -0.120  -3.779  0.00  0.00    +0.032 C 
ATOM     10  C   UNL     1      -4.321  -1.331  -3.348  0.00  0.00    +0.014 C 
ATOM     11  C   UNL     1      -3.823   1.071  -2.878  0.00  0.00    +0.014 C 
ENDBRANCH   4   9
BRANCH   1  13
ATOM     12  C   UNL     1      -0.019   1.526   0.010  0.00  0.00    +0.036 C 
ATOM     13  C   UNL     1       0.002  -0.004   0.002  0.00  0.00    +0.140 C 
BRANCH  13  14
ATOM     14  C   UNL     1       0.731  -0.503   1.223  0.00  0.00    +0.196 A 
ATOM     15  N   UNL     1       0.185  -1.040   2.305  0.00  0.00    -0.109 NA
ATOM     16  N   UNL     1       1.141  -1.335   3.118  0.00  0.00    -0.021 NA
ATOM     17  N   UNL     1       2.264  -1.003   2.583  0.00  0.00    -0.021 NA
ATOM     18  N   UNL     1       2.041  -0.496   1.419  0.00  0.00    -0.109 NA
ENDBRANCH  13  14
ENDBRANCH   1  13
TORSDOF 3
