REMARK  Name = ZINC64713472
REMARK  8 active torsions:
REMARK  status: ('A' for Active; 'I' for Inactive)
REMARK    1  A    between atoms: C_1  and  C_2
REMARK    2  A    between atoms: C_4  and  S_9
REMARK    3  A    between atoms: C_5  and  C_8
REMARK    4  A    between atoms: S_9  and  N_12
REMARK    5  A    between atoms: N_12  and  C_13
REMARK    6  A    between atoms: C_13  and  C_14
REMARK    7  A    between atoms: C_14  and  C_16
REMARK    8  A    between atoms: C_14  and  C_23
REMARK                            x       y       z     vdW  Elec       q    Type
REMARK                         _______ _______ _______ _____ _____    ______ ____
ROOT
ATOM      1  C   UNL     1       2.239   3.101  -3.955  0.00  0.00    +0.064 C 
ENDROOT
BRANCH   1   2
ATOM      2  C   UNL     1       3.698   3.463  -4.061  0.00  0.00    -0.033 C 
ATOM      3  C   UNL     1       4.400   3.686  -5.196  0.00  0.00    -0.000 A 
ATOM      4  C   UNL     1       4.029   3.658  -6.616  0.00  0.00    +0.010 A 
ATOM      5  C   UNL     1       4.973   3.931  -7.545  0.00  0.00    +0.001 A 
ATOM      6  C   UNL     1       6.293   4.239  -7.187  0.00  0.00    +0.002 A 
ATOM      7  C   UNL     1       6.709   4.284  -5.904  0.00  0.00    +0.026 A 
ATOM      8  C   UNL     1       5.800   4.014  -4.844  0.00  0.00    +0.043 A 
ATOM      9  N   UNL     1       5.957   3.995  -3.543  0.00  0.00    -0.380 N 
ATOM     10  C   UNL     1       4.671   3.658  -2.921  0.00  0.00    +0.145 C 
ATOM     11  H   UNL     1       6.784   4.177  -3.070  0.00  0.00    +0.160 HD
ENDBRANCH   1   2
BRANCH   1  12
ATOM     12  C   UNL     1       1.514   4.159  -3.164  0.00  0.00    -0.021 A 
ATOM     13  C   UNL     1       1.892   4.429  -1.862  0.00  0.00    +0.006 A 
ATOM     14  C   UNL     1       1.227   5.400  -1.137  0.00  0.00    +0.000 A 
ATOM     15  C   UNL     1       0.185   6.102  -1.713  0.00  0.00    +0.001 A 
ATOM     16  C   UNL     1      -0.193   5.833  -3.014  0.00  0.00    +0.020 A 
ATOM     17  C   UNL     1       0.475   4.865  -3.743  0.00  0.00    +0.045 A 
ATOM     18 CL   UNL     1       0.005   4.532  -5.381  0.00  0.00    -0.083 Cl
ENDBRANCH   1  12
BRANCH   1  19
ATOM     19  C   UNL     1       2.099   1.751  -3.249  0.00  0.00    +0.118 C 
BRANCH  19  20
ATOM     20  N   UNL     1       0.692   1.342  -3.251  0.00  0.00    -0.189 NA
ATOM     21  H   UNL     1      -0.001   1.988  -3.461  0.00  0.00    +0.148 HD
BRANCH  20  22
ATOM     22  S   UNL     1       0.284  -0.224  -2.897  0.00  0.00    +0.059 S 
ATOM     23  O   UNL     1       1.123  -1.052  -3.691  0.00  0.00    -0.153 OA
ATOM     24  O   UNL     1      -1.134  -0.297  -2.954  0.00  0.00    -0.153 OA
BRANCH  22  27
ATOM     25  C   UNL     1      -0.019   1.526   0.010  0.00  0.00    +0.047 C 
ATOM     26  C   UNL     1       0.002  -0.004   0.002  0.00  0.00    +0.196 C 
ATOM     27  C   UNL     1       0.735  -0.512  -1.218  0.00  0.00    +0.134 C 
ATOM     28  C   UNL     1       1.772  -1.208  -0.801  0.00  0.00    +0.061 C 
ATOM     29  N   UNL     1       1.832  -1.235   0.581  0.00  0.00    -0.268 N 
ATOM     30  O   UNL     1       0.748  -0.498   1.124  0.00  0.00    -0.265 OA
ATOM     31  C   UNL     1       2.763  -1.888  -1.710  0.00  0.00    +0.067 C 
ATOM     32  H   UNL     1       2.513  -1.690   1.100  0.00  0.00    +0.194 HD
ENDBRANCH  22  27
ENDBRANCH  20  22
ENDBRANCH  19  20
ENDBRANCH   1  19
TORSDOF 6
