REMARK  Name = ZINC33517451
REMARK  9 active torsions:
REMARK  status: ('A' for Active; 'I' for Inactive)
REMARK    1  A    between atoms: C_1  and  C_2
REMARK    2  A    between atoms: C_2  and  O_3
REMARK    3  A    between atoms: O_3  and  C_4
REMARK    4  A    between atoms: C_7  and  C_13
REMARK    5  A    between atoms: C_9  and  O_10
REMARK    6  A    between atoms: O_10  and  C_11
REMARK    7  A    between atoms: C_11  and  C_12
REMARK    8  A    between atoms: C_15  and  C_16
REMARK    9  A    between atoms: C_16  and  C_17
REMARK                            x       y       z     vdW  Elec       q    Type
REMARK                         _______ _______ _______ _____ _____    ______ ____
ROOT
ATOM      1  C   UNL     1      -1.244  -5.057   0.258  0.00  0.00    +0.152 C 
ATOM      2  C   UNL     1      -2.068  -3.907   0.789  0.00  0.00    +0.077 C 
ATOM      3  C   UNL     1      -3.348  -4.425   1.038  0.00  0.00    +0.250 C 
ATOM      4  O   UNL     1      -4.298  -3.801   1.476  0.00  0.00    -0.282 OA
ATOM      5  C   UNL     1      -3.343  -5.867   0.675  0.00  0.00    +0.293 C 
ATOM      6  O   UNL     1      -4.298  -6.611   0.771  0.00  0.00    -0.266 OA
ATOM      7  N   UNL     1      -2.126  -6.228   0.235  0.00  0.00    -0.232 N 
ATOM      8  C   UNL     1      -1.766  -7.501  -0.184  0.00  0.00    +0.168 A 
ATOM      9  N   UNL     1      -0.602  -7.926  -0.638  0.00  0.00    -0.233 NA
ATOM     10  C   UNL     1      -0.425  -9.182  -0.994  0.00  0.00    +0.120 A 
ATOM     11  C   UNL     1      -1.474 -10.036  -0.895  0.00  0.00    +0.068 A 
ATOM     12  S   UNL     1      -2.733  -8.941  -0.254  0.00  0.00    -0.060 S 
ENDROOT
BRANCH   1  16
ATOM     13  C   UNL     1       0.137  -4.174  -3.692  0.00  0.00    +0.162 A 
ATOM     14  C   UNL     1       1.024  -4.169  -2.627  0.00  0.00    +0.050 A 
ATOM     15  C   UNL     1       0.574  -4.455  -1.352  0.00  0.00    +0.009 A 
ATOM     16  C   UNL     1      -0.760  -4.746  -1.135  0.00  0.00    -0.018 A 
ATOM     17  C   UNL     1      -1.649  -4.757  -2.193  0.00  0.00    +0.055 A 
ATOM     18  C   UNL     1      -1.206  -4.466  -3.473  0.00  0.00    +0.162 A 
BRANCH  13  19
ATOM     19  O   UNL     1       0.577  -3.893  -4.947  0.00  0.00    -0.489 OA
BRANCH  19  21
ATOM     20  C   UNL     1       2.274  -3.312  -6.568  0.00  0.00    +0.048 C 
ATOM     21  C   UNL     1       1.968  -3.601  -5.097  0.00  0.00    +0.226 C 
ENDBRANCH  19  21
ENDBRANCH  13  19
BRANCH  18  22
ATOM     22  O   UNL     1      -2.080  -4.472  -4.515  0.00  0.00    -0.489 OA
BRANCH  22  23
ATOM     23  C   UNL     1      -3.415  -4.903  -4.239  0.00  0.00    +0.226 C 
ATOM     24  C   UNL     1      -4.215  -4.951  -5.543  0.00  0.00    +0.048 C 
ENDBRANCH  22  23
ENDBRANCH  18  22
ENDBRANCH   1  16
BRANCH   2  25
ATOM     25  C   UNL     1      -1.645  -2.607   0.989  0.00  0.00    +0.195 C 
ATOM     26  O   UNL     1      -2.535  -1.655   1.343  0.00  0.00    -0.287 OA
BRANCH  25  27
ATOM     27  C   UNL     1      -0.226  -2.260   0.817  0.00  0.00    +0.026 A 
ATOM     28  C   UNL     1       0.147  -1.248  -0.076  0.00  0.00    +0.015 A 
ATOM     29  C   UNL     1       1.475  -0.927  -0.235  0.00  0.00    +0.050 A 
ATOM     30  C   UNL     1       2.452  -1.603   0.489  0.00  0.00    +0.162 A 
ATOM     31  C   UNL     1       2.088  -2.610   1.382  0.00  0.00    +0.163 A 
ATOM     32  C   UNL     1       0.756  -2.939   1.547  0.00  0.00    +0.061 A 
ATOM     33  O   UNL     1       3.032  -3.277   2.101  0.00  0.00    -0.485 OA
ATOM     34  C   UNL     1       4.384  -3.176   1.639  0.00  0.00    +0.270 C 
ATOM     35  C   UNL     1       4.675  -1.703   1.325  0.00  0.00    +0.270 C 
ATOM     36  O   UNL     1       3.758  -1.270   0.313  0.00  0.00    -0.485 OA
ENDBRANCH  25  27
ENDBRANCH   2  25
TORSDOF 7
