REMARK  Name = ZINC01024954
REMARK  6 active torsions:
REMARK  status: ('A' for Active; 'I' for Inactive)
REMARK    1  A    between atoms: C_1  and  O_2
REMARK    2  A    between atoms: O_2  and  C_3
REMARK    3  A    between atoms: C_6  and  C_11
REMARK    4  A    between atoms: C_8  and  O_9
REMARK    5  A    between atoms: O_9  and  C_10
REMARK    6  A    between atoms: C_13  and  C_35
REMARK                            x       y       z     vdW  Elec       q    Type
REMARK                         _______ _______ _______ _____ _____    ______ ____
ROOT
ATOM      1  C   UNL     1       0.177   0.550   0.482  0.00  0.00    +0.098 C 
ATOM      2  C   UNL     1       1.605   1.051   0.458  0.00  0.00    +0.082 C 
ATOM      3  C   UNL     1       1.928   2.138   1.268  0.00  0.00    +0.147 C 
ATOM      4  N   UNL     1       3.192   2.582   1.249  0.00  0.00    -0.215 NA
ATOM      5  C   UNL     1       3.604   3.599   1.976  0.00  0.00    +0.128 C 
ATOM      6  C   UNL     1       2.648   4.299   2.861  0.00  0.00    +0.047 A 
ATOM      7  C   UNL     1       2.893   5.439   3.746  0.00  0.00    -0.025 A 
ATOM      8  C   UNL     1       1.842   5.899   4.456  0.00  0.00    -0.005 A 
ATOM      9  S   UNL     1       0.487   4.854   3.991  0.00  0.00    -0.077 S 
ATOM     10  C   UNL     1       1.345   3.805   2.847  0.00  0.00    +0.089 A 
ATOM     11  N   UNL     1       0.977   2.739   2.065  0.00  0.00    -0.250 N 
ATOM     12  C   UNL     1      -0.332   2.323   2.120  0.00  0.00    +0.025 C 
ATOM     13  C   UNL     1      -0.786   1.280   1.396  0.00  0.00    +0.025 C 
ATOM     14  C   UNL     1      -2.119   0.850   1.463  0.00  0.00    +0.162 C 
ATOM     15  O   UNL     1      -2.482  -0.086   0.778  0.00  0.00    -0.292 OA
ATOM     16  C   UNL     1      -3.106   1.534   2.372  0.00  0.00    +0.080 C 
ATOM     17  C   UNL     1      -2.349   2.133   3.562  0.00  0.00    +0.014 C 
ATOM     18  C   UNL     1      -1.272   3.081   3.030  0.00  0.00    +0.052 C 
ATOM     19  C   UNL     1       1.830   7.042   5.423  0.00  0.00    +0.043 C 
ATOM     20  C   UNL     1       3.282   7.392   5.777  0.00  0.00    +0.005 C 
ATOM     21  C   UNL     1       4.095   7.485   4.483  0.00  0.00    +0.005 C 
ATOM     22  C   UNL     1       4.266   6.092   3.875  0.00  0.00    +0.037 C 
ATOM     23  N   UNL     1       4.916   4.008   1.913  0.00  0.00    -0.343 N 
ATOM     24  H   UNL     1       5.259   4.638   2.567  0.00  0.00    +0.144 HD
ATOM     25  H   UNL     1       5.497   3.667   1.216  0.00  0.00    +0.144 HD
ENDROOT
BRANCH   1  29
ATOM     26  C   UNL     1      -1.365   0.766  -3.501  0.00  0.00    +0.162 A 
ATOM     27  C   UNL     1      -0.994   1.923  -2.834  0.00  0.00    +0.050 A 
ATOM     28  C   UNL     1      -0.495   1.850  -1.547  0.00  0.00    +0.008 A 
ATOM     29  C   UNL     1      -0.367   0.624  -0.921  0.00  0.00    -0.031 A 
ATOM     30  C   UNL     1      -0.730  -0.534  -1.582  0.00  0.00    +0.054 A 
ATOM     31  C   UNL     1      -1.235  -0.468  -2.871  0.00  0.00    +0.162 A 
BRANCH  26  33
ATOM     32  C   UNL     1      -1.962   2.137  -5.350  0.00  0.00    +0.277 C 
ATOM     33  O   UNL     1      -1.856   0.837  -4.767  0.00  0.00    -0.491 OA
ENDBRANCH  26  33
BRANCH  31  34
ATOM     34  O   UNL     1      -1.598  -1.606  -3.520  0.00  0.00    -0.491 OA
ATOM     35  C   UNL     1      -1.437  -2.837  -2.812  0.00  0.00    +0.277 C 
ENDBRANCH  31  34
ENDBRANCH   1  29
BRANCH   2  36
ATOM     36  C   UNL     1       2.592   0.429  -0.371  0.00  0.00    +0.099 C 
ATOM     37  N   UNL     1       3.376  -0.066  -1.029  0.00  0.00    -0.191 NA
ENDBRANCH   2  36
TORSDOF 4
