REMARK  Name = ZINC39687490
REMARK  3 active torsions:
REMARK  status: ('A' for Active; 'I' for Inactive)
REMARK    1  A    between atoms: C_10  and  N_13
REMARK    2  A    between atoms: C_14  and  C_16
REMARK    3  A    between atoms: C_27  and  C_29
REMARK                            x       y       z     vdW  Elec       q    Type
REMARK                         _______ _______ _______ _____ _____    ______ ____
ROOT
ATOM      1  C   UNL     1       1.691  -8.102  -4.013  0.00  0.00    +0.100 C 
ATOM      2  C   UNL     1       0.566  -7.276  -4.676  0.00  0.00    +0.121 C 
ATOM      3  N   UNL     1      -0.270  -8.277  -5.379  0.00  0.00    -0.300 N 
ATOM      4  C   UNL     1      -0.316  -9.434  -4.453  0.00  0.00    +0.115 C 
ATOM      5  C   UNL     1       1.108  -9.518  -3.868  0.00  0.00    -0.004 C 
ATOM      6  C   UNL     1       1.051  -9.918  -2.397  0.00  0.00    -0.010 C 
ATOM      7  C   UNL     1       0.523 -11.350  -2.282  0.00  0.00    -0.082 C 
ATOM      8  N   UNL     1       1.405 -12.260  -3.023  0.00  0.00    +0.379 N 
ATOM      9  C   UNL     1       1.382 -11.926  -4.452  0.00  0.00    -0.082 C 
ATOM     10  C   UNL     1       1.946 -10.518  -4.659  0.00  0.00    -0.010 C 
ATOM     11  C   UNL     1      -0.856  -8.162  -6.587  0.00  0.00    +0.219 C 
ATOM     12  O   UNL     1      -0.667  -7.171  -7.261  0.00  0.00    -0.275 OA
ATOM     13  H   UNL     1       2.348 -12.171  -2.674  0.00  0.00    -0.086 HD
ATOM     14  H   UNL     1       1.090 -13.210  -2.895  0.00  0.00    -0.086 HD
ENDROOT
BRANCH  11  15
ATOM     15  C   UNL     1      -1.745  -9.265  -7.101  0.00  0.00    +0.079 C 
ATOM     16  C   UNL     1      -1.817  -9.197  -8.632  0.00  0.00    +0.017 C 
ATOM     17  C   UNL     1      -2.576 -10.427  -9.135  0.00  0.00    +0.027 C 
ATOM     18  C   UNL     1      -3.860 -10.589  -8.374  0.00  0.00    -0.031 C 
ATOM     19  C   UNL     1      -4.111 -10.011  -7.244  0.00  0.00    -0.030 C 
ATOM     20  C   UNL     1      -3.157  -9.092  -6.537  0.00  0.00    +0.039 C 
ENDBRANCH  11  15
BRANCH   1  22
ATOM     21  N   UNL     1       3.284  -7.654  -2.175  0.00  0.00    -0.312 N 
ATOM     22  C   UNL     1       2.033  -7.534  -2.660  0.00  0.00    +0.218 C 
ATOM     23  O   UNL     1       1.181  -6.968  -2.007  0.00  0.00    -0.275 OA
ATOM     24  H   UNL     1       3.966  -8.106  -2.697  0.00  0.00    +0.149 HD
BRANCH  21  34
ATOM     25  C   UNL     1       8.594  -5.431   2.620  0.00  0.00    +0.005 A 
ATOM     26  C   UNL     1       8.752  -4.063   2.433  0.00  0.00    +0.018 A 
ATOM     27  C   UNL     1       7.765  -3.352   1.780  0.00  0.00    +0.084 A 
ATOM     28  N   UNL     1       6.679  -3.955   1.334  0.00  0.00    -0.350 N 
ATOM     29  C   UNL     1       6.492  -5.256   1.493  0.00  0.00    +0.099 A 
ATOM     30  C   UNL     1       7.446  -6.034   2.142  0.00  0.00    +0.042 A 
ATOM     31  N   UNL     1       5.333  -5.849   1.008  0.00  0.00    -0.317 N 
ATOM     32  C   UNL     1       5.134  -7.301   1.115  0.00  0.00    +0.108 C 
ATOM     33  C   UNL     1       4.811  -7.858  -0.275  0.00  0.00    +0.041 C 
ATOM     34  C   UNL     1       3.616  -7.101  -0.859  0.00  0.00    +0.076 C 
ATOM     35  C   UNL     1       3.970  -5.619  -1.003  0.00  0.00    +0.041 C 
ATOM     36  C   UNL     1       4.280  -5.036   0.384  0.00  0.00    +0.108 C 
ATOM     37  H   UNL     1       6.001  -3.432   0.878  0.00  0.00    +0.166 HD
ENDBRANCH  21  34
ENDBRANCH   1  22
TORSDOF 3
