REMARK  Name = ZINC08718698
REMARK  11 active torsions:
REMARK  status: ('A' for Active; 'I' for Inactive)
REMARK    1  A    between atoms: C_1  and  C_2
REMARK    2  A    between atoms: C_3  and  N_15
REMARK    3  A    between atoms: N_6  and  C_9
REMARK    4  A    between atoms: N_7  and  C_8
REMARK    5  A    between atoms: C_16  and  C_18
REMARK    6  A    between atoms: C_18  and  N_55
REMARK    7  A    between atoms: C_19  and  N_55
REMARK    8  A    between atoms: C_20  and  C_21
REMARK    9  A    between atoms: C_20  and  N_55
REMARK   10  A    between atoms: C_26  and  O_27
REMARK   11  A    between atoms: O_27  and  C_28
REMARK                            x       y       z     vdW  Elec       q    Type
REMARK                         _______ _______ _______ _____ _____    ______ ____
ROOT
ATOM      1  N   UNL     1      -0.906  -0.521   1.958  0.00  0.00    -0.281 N 
ATOM      2  C   UNL     1      -0.956  -1.237   3.099  0.00  0.00    +0.201 C 
ATOM      3  O   UNL     1      -1.242  -0.693   4.145  0.00  0.00    -0.278 OA
ATOM      4  H   UNL     1      -0.751  -0.968   1.112  0.00  0.00    +0.155 HD
ENDROOT
BRANCH   1   7
ATOM      5  C   UNL     1      -3.089   1.009   0.438  0.00  0.00    +0.067 C 
ATOM      6  C   UNL     1      -2.028   1.584   1.341  0.00  0.00    +0.059 A 
ATOM      7  C   UNL     1      -1.081   0.876   1.996  0.00  0.00    +0.121 A 
ATOM      8  C   UNL     1      -0.269   1.832   2.750  0.00  0.00    +0.293 A 
ATOM      9  O   UNL     1       0.683   1.571   3.464  0.00  0.00    -0.264 OA
ATOM     10  N   UNL     1      -0.776   3.058   2.504  0.00  0.00    -0.216 N 
ATOM     11  N   UNL     1      -1.860   2.912   1.631  0.00  0.00    -0.282 N 
ATOM     12  C   UNL     1      -2.685   4.006   1.111  0.00  0.00    +0.171 C 
BRANCH  10  13
ATOM     13  C   UNL     1      -0.299   4.264   3.026  0.00  0.00    +0.067 A 
ATOM     14  C   UNL     1       1.062   4.541   3.006  0.00  0.00    +0.028 A 
ATOM     15  C   UNL     1       1.530   5.737   3.516  0.00  0.00    +0.002 A 
ATOM     16  C   UNL     1       0.646   6.651   4.059  0.00  0.00    +0.000 A 
ATOM     17  C   UNL     1      -0.709   6.376   4.087  0.00  0.00    +0.002 A 
ATOM     18  C   UNL     1      -1.184   5.185   3.572  0.00  0.00    +0.028 A 
ENDBRANCH  10  13
ENDBRANCH   1   7
BRANCH   2  19
ATOM     19  C   UNL     1      -0.658  -2.714   3.076  0.00  0.00    +0.019 C 
BRANCH  19  21
ATOM     20  C   UNL     1      -2.167  -3.192   4.907  0.00  0.00    -0.095 C 
ATOM     21  N   UNL     1      -0.762  -3.244   4.451  0.00  0.00    +0.386 N 
ATOM     22  H   UNL     1      -0.188  -2.666   5.076  0.00  0.00    -0.081 HD
BRANCH  21  23
ATOM     23  C   UNL     1      -0.268  -4.636   4.496  0.00  0.00    -0.039 C 
BRANCH  23  24
ATOM     24  C   UNL     1      -0.178  -5.075   5.935  0.00  0.00    -0.021 A 
ATOM     25  C   UNL     1       1.038  -5.055   6.589  0.00  0.00    +0.020 A 
ATOM     26  C   UNL     1       1.120  -5.453   7.911  0.00  0.00    +0.018 A 
ATOM     27  C   UNL     1      -0.014  -5.881   8.578  0.00  0.00    +0.019 A 
ATOM     28  C   UNL     1      -1.231  -5.908   7.926  0.00  0.00    +0.047 A 
ATOM     29  C   UNL     1      -1.316  -5.504   6.601  0.00  0.00    +0.121 A 
ATOM     30 BR   UNL     1       2.786  -5.418   8.806  0.00  0.00    -0.050 Br
BRANCH  29  31
ATOM     31  O   UNL     1      -2.513  -5.529   5.958  0.00  0.00    -0.495 OA
ATOM     32  C   UNL     1      -3.643  -5.982   6.707  0.00  0.00    +0.277 C 
ENDBRANCH  29  31
ENDBRANCH  23  24
ENDBRANCH  21  23
ENDBRANCH  19  21
ENDBRANCH   2  19
TORSDOF 7
