REMARK  Name = ZINC22525792
REMARK  12 active torsions:
REMARK  status: ('A' for Active; 'I' for Inactive)
REMARK    1  A    between atoms: C_1  and  C_2
REMARK    2  A    between atoms: C_2  and  C_3
REMARK    3  A    between atoms: C_3  and  C_4
REMARK    4  A    between atoms: C_4  and  N_5
REMARK    5  A    between atoms: C_10  and  C_12
REMARK    6  A    between atoms: C_12  and  O_14
REMARK    7  A    between atoms: O_14  and  C_15
REMARK    8  A    between atoms: C_15  and  C_16
REMARK    9  A    between atoms: C_18  and  O_19
REMARK   10  A    between atoms: C_28  and  O_30
REMARK   11  A    between atoms: O_30  and  C_31
REMARK   12  A    between atoms: C_31  and  C_32
REMARK                            x       y       z     vdW  Elec       q    Type
REMARK                         _______ _______ _______ _____ _____    ______ ____
ROOT
ATOM      1  C   UNL     1      -5.891  -1.200   0.387  0.00  0.00    +0.007 A 
ATOM      2  C   UNL     1      -7.078  -0.538   0.386  0.00  0.00    +0.095 A 
ATOM      3  C   UNL     1      -7.096   0.869   0.295  0.00  0.00    +0.285 A 
ATOM      4  O   UNL     1      -5.963   1.584   0.207  0.00  0.00    -0.425 OA
ATOM      5  C   UNL     1      -4.752   0.988   0.203  0.00  0.00    +0.141 A 
ATOM      6  C   UNL     1      -4.660  -0.414   0.290  0.00  0.00    +0.024 A 
ATOM      7  C   UNL     1      -3.406  -1.036   0.286  0.00  0.00    +0.014 A 
ATOM      8  C   UNL     1      -2.274  -0.280   0.191  0.00  0.00    +0.024 A 
ATOM      9  C   UNL     1      -2.358   1.109   0.109  0.00  0.00    +0.040 A 
ATOM     10  C   UNL     1      -3.592   1.742   0.112  0.00  0.00    +0.070 A 
ATOM     11  N   UNL     1      -1.191   1.869   0.018  0.00  0.00    -0.251 N 
ATOM     12  C   UNL     1      -1.125   3.077   0.611  0.00  0.00    +0.405 C 
ATOM     13  O   UNL     1      -2.107   3.542   1.155  0.00  0.00    -0.226 OA
ATOM     14  H   UNL     1      -0.324   1.481  -0.538  0.00  0.00    +0.158 HD
ENDROOT
BRANCH   3  15
ATOM     15  O   UNL     1      -8.166   1.450   0.295  0.00  0.00    -0.480 OA
ATOM     16  H   UNL     1      -8.196   2.547   0.225  0.00  0.00    +0.295 HD
ENDBRANCH   3  15
BRANCH   1  17
ATOM     17  C   UNL     1      -5.844  -2.703   0.483  0.00  0.00    +0.269 C 
BRANCH  17  18
ATOM     18  O   UNL     1      -7.196  -3.226   0.565  0.00  0.00    -0.455 OA
BRANCH  18  19
ATOM     19  C   UNL     1      -7.330  -4.563   0.657  0.00  0.00    +0.360 C 
ATOM     20  O   UNL     1      -6.345  -5.273   0.668  0.00  0.00    -0.243 OA
BRANCH  19  26
ATOM     21  N   UNL     1     -10.932  -4.871   0.807  0.00  0.00    -0.229 N 
ATOM     22  C   UNL     1     -11.163  -6.194   0.901  0.00  0.00    +0.267 A 
ATOM     23  O   UNL     1     -12.306  -6.614   0.970  0.00  0.00    -0.266 OA
ATOM     24  C   UNL     1     -10.073  -7.092   0.921  0.00  0.00    +0.074 A 
ATOM     25  C   UNL     1      -8.815  -6.572   0.842  0.00  0.00    +0.042 A 
ATOM     26  C   UNL     1      -8.677  -5.166   0.745  0.00  0.00    +0.168 A 
ATOM     27  N   UNL     1      -9.742  -4.396   0.739  0.00  0.00    -0.162 NA
BRANCH  21  28
ATOM     28  C   UNL     1     -12.070  -3.949   0.788  0.00  0.00    +0.147 C 
BRANCH  28  29
ATOM     29  C   UNL     1     -12.414  -3.534   2.220  0.00  0.00    +0.023 C 
BRANCH  29  31
ATOM     30  C   UNL     1     -13.947  -2.156   3.632  0.00  0.00    +0.004 C 
ATOM     31  C   UNL     1     -13.603  -2.571   2.200  0.00  0.00    -0.002 C 
ENDBRANCH  29  31
ENDBRANCH  28  29
ENDBRANCH  21  28
ENDBRANCH  19  26
ENDBRANCH  18  19
ENDBRANCH  17  18
ENDBRANCH   1  17
BRANCH  12  32
ATOM     32  O   UNL     1       0.031   3.768   0.606  0.00  0.00    -0.450 OA
BRANCH  32  33
ATOM     33  C   UNL     1       0.031   5.059   1.269  0.00  0.00    +0.230 C 
ATOM     34  C   UNL     1       1.421   5.689   1.161  0.00  0.00    +0.048 C 
ENDBRANCH  32  33
ENDBRANCH  12  32
TORSDOF 10
