REMARK  Name = ZINC33812658
REMARK  16 active torsions:
REMARK  status: ('A' for Active; 'I' for Inactive)
REMARK    1  A    between atoms: C_1  and  C_2
REMARK    2  A    between atoms: C_2  and  C_3
REMARK    3  A    between atoms: C_3  and  C_4
REMARK    4  A    between atoms: C_4  and  C_5
REMARK    5  A    between atoms: C_5  and  C_6
REMARK    6  A    between atoms: C_6  and  N_7
REMARK    7  A    between atoms: C_11  and  C_12
REMARK    8  A    between atoms: C_13  and  C_33
REMARK    9  A    between atoms: C_14  and  C_31
REMARK   10  A    between atoms: N_17  and  C_27
REMARK   11  A    between atoms: C_18  and  N_19
REMARK   12  A    between atoms: N_22  and  C_25
REMARK   13  A    between atoms: C_25  and  C_26
REMARK   14  A    between atoms: C_27  and  C_28
REMARK   15  A    between atoms: C_28  and  C_29
REMARK   16  A    between atoms: C_29  and  C_30
REMARK                            x       y       z     vdW  Elec       q    Type
REMARK                         _______ _______ _______ _____ _____    ______ ____
ROOT
ATOM      1  C   UNL     1       5.897  -5.859   6.346  0.00  0.00    +0.019 A 
ATOM      2  C   UNL     1       4.910  -6.027   7.332  0.00  0.00    -0.017 A 
ATOM      3  C   UNL     1       5.285  -6.498   8.587  0.00  0.00    +0.120 A 
ATOM      4  C   UNL     1       6.648  -6.797   8.840  0.00  0.00    +0.270 A 
ATOM      5  O   UNL     1       6.983  -7.211   9.937  0.00  0.00    -0.266 OA
ATOM      6  N   UNL     1       7.574  -6.628   7.880  0.00  0.00    -0.295 N 
ATOM      7  C   UNL     1       7.232  -6.175   6.646  0.00  0.00    +0.112 A 
ATOM      8  C   UNL     1       3.469  -5.701   7.036  0.00  0.00    +0.046 C 
ENDROOT
BRANCH   1  13
ATOM      9  N   UNL     1       3.440  -6.709   2.330  0.00  0.00    -0.255 N 
ATOM     10  C   UNL     1       4.184  -5.796   2.930  0.00  0.00    +0.258 C 
ATOM     11  O   UNL     1       4.385  -4.712   2.412  0.00  0.00    -0.269 OA
ATOM     12  C   UNL     1       4.746  -6.118   4.203  0.00  0.00    +0.077 C 
ATOM     13  C   UNL     1       5.535  -5.366   5.016  0.00  0.00    +0.032 C 
ATOM     14  S   UNL     1       4.128  -7.779   4.437  0.00  0.00    -0.061 S 
ATOM     15  C   UNL     1       3.213  -7.910   2.908  0.00  0.00    +0.121 C 
ATOM     16  S   UNL     1       2.287  -9.224   2.321  0.00  0.00    -0.027 S 
BRANCH   9  17
ATOM     17  C   UNL     1       2.848  -6.413   1.024  0.00  0.00    +0.115 C 
BRANCH  17  18
ATOM     18  C   UNL     1       1.471  -5.777   1.220  0.00  0.00    +0.019 C 
BRANCH  18  19
ATOM     19  C   UNL     1       0.853  -5.468  -0.145  0.00  0.00    +0.002 C 
BRANCH  19  20
ATOM     20  C   UNL     1      -0.525  -4.831   0.052  0.00  0.00    -0.000 C 
BRANCH  20  22
ATOM     21  C   UNL     1      -2.520  -3.885  -1.117  0.00  0.00    +0.004 C 
ATOM     22  C   UNL     1      -1.143  -4.522  -1.313  0.00  0.00    -0.003 C 
ENDBRANCH  20  22
ENDBRANCH  19  20
ENDBRANCH  18  19
ENDBRANCH  17  18
ENDBRANCH   9  17
ENDBRANCH   1  13
BRANCH   7  23
ATOM     23  N   UNL     1       8.195  -6.020   5.691  0.00  0.00    -0.320 N 
ATOM     24  C   UNL     1       8.518  -7.111   4.759  0.00  0.00    +0.088 C 
ATOM     25  C   UNL     1       8.492  -6.553   3.332  0.00  0.00    -0.060 C 
ATOM     26  N   UNL     1       9.390  -5.395   3.244  0.00  0.00    +0.382 N 
ATOM     27  C   UNL     1       8.893  -4.311   4.100  0.00  0.00    -0.060 C 
ATOM     28  C   UNL     1       8.935  -4.755   5.562  0.00  0.00    +0.088 C 
ATOM     29  H   UNL     1      10.314  -5.664   3.546  0.00  0.00    -0.082 HD
BRANCH  26  30
ATOM     30  C   UNL     1       9.450  -4.929   1.852  0.00  0.00    -0.082 C 
ATOM     31  C   UNL     1      10.478  -3.802   1.735  0.00  0.00    -0.017 C 
ENDBRANCH  26  30
ENDBRANCH   7  23
BRANCH   3  32
ATOM     32  C   UNL     1       4.303  -6.679   9.614  0.00  0.00    +0.105 C 
ATOM     33  N   UNL     1       3.524  -6.823  10.428  0.00  0.00    -0.191 NA
ENDBRANCH   3  32
BRANCH   6  34
ATOM     34  C   UNL     1       8.975  -6.944   8.167  0.00  0.00    +0.126 C 
BRANCH  34  35
ATOM     35  C   UNL     1       9.216  -8.440   7.952  0.00  0.00    +0.021 C 
BRANCH  35  36
ATOM     36  C   UNL     1      10.679  -8.770   8.252  0.00  0.00    -0.002 C 
ATOM     37  C   UNL     1      10.919 -10.265   8.037  0.00  0.00    +0.004 C 
ENDBRANCH  35  36
ENDBRANCH  34  35
ENDBRANCH   6  34
TORSDOF 12
