REMARK  Name = ZINC08923126
REMARK  8 active torsions:
REMARK  status: ('A' for Active; 'I' for Inactive)
REMARK    1  A    between atoms: C_1  and  C_2
REMARK    2  A    between atoms: C_2  and  C_3
REMARK    3  A    between atoms: C_2  and  N_63
REMARK    4  A    between atoms: C_11  and  O_35
REMARK    5  A    between atoms: C_13  and  C_16
REMARK    6  A    between atoms: C_19  and  O_22
REMARK    7  A    between atoms: O_22  and  C_23
REMARK    8  A    between atoms: C_23  and  C_25
REMARK                            x       y       z     vdW  Elec       q    Type
REMARK                         _______ _______ _______ _____ _____    ______ ____
ROOT
ATOM      1  C   UNL     1      -2.795   7.042   0.326  0.00  0.00    -0.073 C 
ATOM      2  C   UNL     1      -2.687   5.608   0.852  0.00  0.00    +0.018 C 
ATOM      3  C   UNL     1      -2.185   4.721  -0.283  0.00  0.00    -0.027 A 
ATOM      4  C   UNL     1      -2.261   5.156  -1.564  0.00  0.00    -0.021 A 
ATOM      5  S   UNL     1      -1.581   3.837  -2.532  0.00  0.00    -0.080 S 
ATOM      6  C   UNL     1      -1.214   2.742  -1.269  0.00  0.00    +0.080 A 
ATOM      7  C   UNL     1      -1.609   3.404  -0.099  0.00  0.00    +0.067 A 
ATOM      8  C   UNL     1      -1.411   2.686   1.187  0.00  0.00    +0.220 C 
ATOM      9  N   UNL     1      -0.700   1.592   1.170  0.00  0.00    -0.223 NA
ATOM     10  C   UNL     1      -0.005   1.072  -0.001  0.00  0.00    +0.224 C 
ATOM     11  N   UNL     1      -0.670   1.481  -1.252  0.00  0.00    -0.313 N 
ATOM     12  C   UNL     1      -2.809   6.469  -2.028  0.00  0.00    -0.035 C 
ATOM     13  H   UNL     1      -0.718   0.893  -2.022  0.00  0.00    +0.149 HD
ATOM     14  N   UNL     1      -3.597   7.051  -0.914  0.00  0.00    +0.384 N 
ATOM     15  H   UNL     1      -4.441   6.485  -0.770  0.00  0.00    -0.081 HD
ENDROOT
BRANCH  10  16
ATOM     16  C   UNL     1       1.410   1.589  -0.003  0.00  0.00    -0.005 A 
ATOM     17  C   UNL     1       2.079   1.763  -1.201  0.00  0.00    +0.011 A 
ATOM     18  C   UNL     1       3.375   2.241  -1.206  0.00  0.00    +0.047 A 
ATOM     19  C   UNL     1       4.009   2.537  -0.008  0.00  0.00    +0.132 A 
ATOM     20  C   UNL     1       3.337   2.357   1.193  0.00  0.00    +0.047 A 
ATOM     21  C   UNL     1       2.039   1.883   1.192  0.00  0.00    +0.011 A 
BRANCH  19  22
ATOM     22  O   UNL     1       5.286   3.002  -0.010  0.00  0.00    -0.422 OA
BRANCH  22  23
ATOM     23  C   UNL     1       5.490   4.227  -0.535  0.00  0.00    +0.345 C 
ATOM     24  O   UNL     1       4.544   4.902  -0.889  0.00  0.00    -0.245 OA
BRANCH  23  25
ATOM     25  C   UNL     1       6.861   4.747  -0.680  0.00  0.00    +0.067 A 
ATOM     26  C   UNL     1       7.958   3.942  -0.400  0.00  0.00    +0.015 A 
ATOM     27  C   UNL     1       9.248   4.433  -0.541  0.00  0.00    +0.001 A 
ATOM     28  C   UNL     1       9.490   5.711  -0.945  0.00  0.00    +0.008 A 
ATOM     29  C   UNL     1       8.429   6.582  -1.240  0.00  0.00    -0.017 A 
ATOM     30  C   UNL     1       7.095   6.122  -1.114  0.00  0.00    -0.004 A 
ATOM     31  C   UNL     1       6.034   6.988  -1.406  0.00  0.00    +0.009 A 
ATOM     32  C   UNL     1       6.297   8.264  -1.808  0.00  0.00    +0.001 A 
ATOM     33  C   UNL     1       7.607   8.719  -1.932  0.00  0.00    +0.001 A 
ATOM     34  C   UNL     1       8.662   7.904  -1.656  0.00  0.00    +0.008 A 
ENDBRANCH  23  25
ENDBRANCH  22  23
ENDBRANCH  19  22
ENDBRANCH  10  16
BRANCH  14  36
ATOM     35  C   UNL     1      -2.763   9.306  -1.488  0.00  0.00    -0.014 C 
ATOM     36  C   UNL     1      -3.998   8.435  -1.248  0.00  0.00    -0.074 C 
ATOM     37  C   UNL     1      -4.859   8.412  -2.512  0.00  0.00    -0.014 C 
ENDBRANCH  14  36
BRANCH   8  38
ATOM     38  O   UNL     1      -1.951   3.151   2.337  0.00  0.00    -0.492 OA
ATOM     39  H   UNL     1      -1.758   2.604   3.111  0.00  0.00    +0.294 HD
ENDBRANCH   8  38
TORSDOF 6
