REMARK  Name = ZINC09345282
REMARK  9 active torsions:
REMARK  status: ('A' for Active; 'I' for Inactive)
REMARK    1  A    between atoms: C_1  and  C_2
REMARK    2  A    between atoms: C_5  and  C_8
REMARK    3  A    between atoms: C_19  and  C_21
REMARK    4  A    between atoms: C_23  and  O_29
REMARK    5  A    between atoms: C_26  and  O_27
REMARK    6  A    between atoms: O_27  and  C_28
REMARK    7  A    between atoms: O_29  and  C_30
REMARK    8  A    between atoms: C_35  and  S_37
REMARK    9  A    between atoms: S_37  and  C_38
REMARK                            x       y       z     vdW  Elec       q    Type
REMARK                         _______ _______ _______ _____ _____    ______ ____
ROOT
ATOM      1  C   UNL     1       0.126  -4.458   0.151  0.00  0.00    +0.159 C 
ATOM      2  C   UNL     1       1.598  -4.801   0.213  0.00  0.00    +0.025 C 
ATOM      3  C   UNL     1       2.030  -5.560   1.242  0.00  0.00    +0.058 C 
ATOM      4  C   UNL     1       3.479  -5.880   1.294  0.00  0.00    +0.040 A 
ATOM      5  C   UNL     1       3.969  -6.894   2.106  0.00  0.00    +0.013 A 
ATOM      6  C   UNL     1       5.325  -7.159   2.124  0.00  0.00    +0.001 A 
ATOM      7  C   UNL     1       6.190  -6.419   1.337  0.00  0.00    +0.004 A 
ATOM      8  C   UNL     1       5.710  -5.407   0.526  0.00  0.00    +0.046 A 
ATOM      9  C   UNL     1       4.355  -5.130   0.499  0.00  0.00    +0.131 A 
ATOM     10  O   UNL     1       3.857  -4.138  -0.282  0.00  0.00    -0.479 OA
ATOM     11  C   UNL     1       2.555  -4.324  -0.840  0.00  0.00    +0.238 C 
ATOM     12  N   UNL     1       1.180  -6.014   2.194  0.00  0.00    -0.326 N 
ATOM     13  C   UNL     1      -0.112  -5.764   2.216  0.00  0.00    +0.216 C 
ATOM     14  N   UNL     1      -0.703  -4.996   1.237  0.00  0.00    -0.209 N 
ATOM     15  N   UNL     1      -2.062  -4.918   1.552  0.00  0.00    -0.239 N 
ATOM     16  C   UNL     1      -2.233  -5.640   2.703  0.00  0.00    +0.174 C 
ATOM     17  N   UNL     1      -1.079  -6.132   3.076  0.00  0.00    -0.192 NA
ATOM     18  H   UNL     1       1.548  -6.560   2.906  0.00  0.00    +0.169 HD
ATOM     19  H   UNL     1      -2.748  -4.446   1.054  0.00  0.00    +0.172 HD
ENDROOT
BRANCH   1  24
ATOM     20  C   UNL     1      -0.388   1.298   0.175  0.00  0.00    +0.044 C 
ATOM     21  C   UNL     1      -0.254  -0.203   0.169  0.00  0.00    -0.050 A 
ATOM     22  C   UNL     1      -0.282  -0.895  -1.028  0.00  0.00    +0.004 A 
ATOM     23  C   UNL     1      -0.159  -2.272  -1.034  0.00  0.00    +0.006 A 
ATOM     24  C   UNL     1      -0.007  -2.957   0.157  0.00  0.00    -0.021 A 
ATOM     25  C   UNL     1       0.022  -2.265   1.354  0.00  0.00    +0.006 A 
ATOM     26  C   UNL     1      -0.097  -0.888   1.359  0.00  0.00    +0.004 A 
ENDBRANCH   1  24
BRANCH  11  27
ATOM     27  C   UNL     1       2.627  -5.343  -1.947  0.00  0.00    +0.042 A 
ATOM     28  C   UNL     1       3.613  -6.312  -1.930  0.00  0.00    +0.056 A 
ATOM     29  C   UNL     1       3.679  -7.250  -2.949  0.00  0.00    +0.121 A 
ATOM     30  C   UNL     1       2.756  -7.217  -3.984  0.00  0.00    +0.049 A 
ATOM     31  C   UNL     1       1.771  -6.249  -4.000  0.00  0.00    +0.049 A 
ATOM     32  C   UNL     1       1.702  -5.314  -2.979  0.00  0.00    +0.127 A 
BRANCH  32  33
ATOM     33  O   UNL     1       0.728  -4.364  -2.992  0.00  0.00    -0.495 OA
ATOM     34  C   UNL     1      -0.191  -4.393  -4.085  0.00  0.00    +0.277 C 
ENDBRANCH  32  33
BRANCH  29  35
ATOM     35  O   UNL     1       4.649  -8.203  -2.933  0.00  0.00    -0.495 OA
ATOM     36  C   UNL     1       4.658  -9.138  -4.014  0.00  0.00    +0.277 C 
ENDBRANCH  29  35
ENDBRANCH  11  27
BRANCH  16  37
ATOM     37  S   UNL     1      -3.763  -5.875   3.545  0.00  0.00    -0.092 S 
ATOM     38  C   UNL     1      -3.325  -6.905   4.972  0.00  0.00    +0.093 C 
ENDBRANCH  16  37
TORSDOF 5
