REMARK  Name = ZINC35568101
REMARK  13 active torsions:
REMARK  status: ('A' for Active; 'I' for Inactive)
REMARK    1  A    between atoms: C_1  and  C_2
REMARK    2  A    between atoms: C_3  and  C_8
REMARK    3  A    between atoms: C_5  and  C_7
REMARK    4  A    between atoms: C_8  and  C_10
REMARK    5  A    between atoms: N_14  and  C_29
REMARK    6  A    between atoms: C_15  and  C_17
REMARK    7  A    between atoms: C_20  and  O_25
REMARK    8  A    between atoms: C_21  and  O_23
REMARK    9  A    between atoms: O_23  and  C_24
REMARK   10  A    between atoms: O_25  and  C_26
REMARK   11  A    between atoms: C_26  and  C_27
REMARK   12  A    between atoms: C_29  and  C_30
REMARK   13  A    between atoms: C_30  and  C_31
REMARK                            x       y       z     vdW  Elec       q    Type
REMARK                         _______ _______ _______ _____ _____    ______ ____
ROOT
ATOM      1  C   UNL     1       0.040  -1.126  -3.456  0.00  0.00    +0.077 C 
ATOM      2  C   UNL     1       0.119  -0.771  -4.758  0.00  0.00    +0.249 C 
ATOM      3  C   UNL     1       0.220  -1.988  -5.589  0.00  0.00    +0.288 C 
ATOM      4  O   UNL     1       0.306  -2.000  -6.801  0.00  0.00    -0.266 OA
ATOM      5  N   UNL     1       0.203  -3.082  -4.805  0.00  0.00    -0.283 N 
ATOM      6  C   UNL     1       0.095  -2.636  -3.411  0.00  0.00    +0.145 C 
ATOM      7  O   UNL     1       0.107   0.499  -5.227  0.00  0.00    -0.282 OA
ENDROOT
BRANCH   6   8
ATOM      8  C   UNL     1       1.299  -3.087  -2.625  0.00  0.00    -0.019 A 
ATOM      9  C   UNL     1       1.209  -4.192  -1.799  0.00  0.00    +0.009 A 
ATOM     10  C   UNL     1       2.310  -4.610  -1.075  0.00  0.00    +0.050 A 
ATOM     11  C   UNL     1       3.508  -3.921  -1.177  0.00  0.00    +0.162 A 
ATOM     12  C   UNL     1       3.599  -2.809  -2.009  0.00  0.00    +0.162 A 
ATOM     13  C   UNL     1       2.493  -2.398  -2.735  0.00  0.00    +0.055 A 
BRANCH  12  14
ATOM     14  O   UNL     1       4.773  -2.130  -2.113  0.00  0.00    -0.491 OA
ATOM     15  C   UNL     1       4.766  -0.940  -2.905  0.00  0.00    +0.277 C 
ENDBRANCH  12  14
BRANCH  11  16
ATOM     16  O   UNL     1       4.593  -4.330  -0.466  0.00  0.00    -0.484 OA
BRANCH  16  17
ATOM     17  C   UNL     1       4.426  -5.479   0.367  0.00  0.00    +0.256 C 
BRANCH  17  18
ATOM     18  C   UNL     1       5.723  -5.781   1.072  0.00  0.00    +0.006 C 
ATOM     19  C   UNL     1       5.723  -6.066   2.351  0.00  0.00    +0.007 C 
ENDBRANCH  17  18
ENDBRANCH  16  17
ENDBRANCH  11  16
ENDBRANCH   6   8
BRANCH   1  20
ATOM     20  C   UNL     1      -0.072  -0.220  -2.306  0.00  0.00    +0.203 C 
ATOM     21  O   UNL     1       0.045   0.982  -2.465  0.00  0.00    -0.286 OA
BRANCH  20  24
ATOM     22  C   UNL     1      -0.008   1.347   0.400  0.00  0.00    +0.067 C 
ATOM     23  C   UNL     1      -0.313  -0.123   0.267  0.00  0.00    +0.057 A 
ATOM     24  C   UNL     1      -0.325  -0.762  -0.967  0.00  0.00    +0.082 A 
ATOM     25  S   UNL     1      -0.736  -2.426  -0.467  0.00  0.00    -0.069 S 
ATOM     26  C   UNL     1      -0.845  -2.152   1.189  0.00  0.00    +0.076 A 
ATOM     27  N   UNL     1      -0.575  -0.871   1.309  0.00  0.00    -0.249 NA
ATOM     28  C   UNL     1      -1.170  -3.141   2.279  0.00  0.00    +0.073 C 
ENDBRANCH  20  24
ENDBRANCH   1  20
BRANCH   5  29
ATOM     29  C   UNL     1       0.284  -4.472  -5.262  0.00  0.00    +0.114 C 
BRANCH  29  30
ATOM     30  C   UNL     1       1.750  -4.905  -5.319  0.00  0.00    +0.054 C 
BRANCH  30  31
ATOM     31  C   UNL     1       1.833  -6.335  -5.789  0.00  0.00    -0.046 A 
ATOM     32  C   UNL     1       1.798  -7.367  -4.871  0.00  0.00    +0.004 A 
ATOM     33  C   UNL     1       1.874  -8.678  -5.302  0.00  0.00    +0.000 A 
ATOM     34  C   UNL     1       1.984  -8.957  -6.652  0.00  0.00    +0.000 A 
ATOM     35  C   UNL     1       2.018  -7.925  -7.570  0.00  0.00    +0.000 A 
ATOM     36  C   UNL     1       1.938  -6.614  -7.139  0.00  0.00    +0.004 A 
ENDBRANCH  30  31
ENDBRANCH  29  30
ENDBRANCH   5  29
TORSDOF 10
