REMARK  Name = ZINC61718590
REMARK  4 active torsions:
REMARK  status: ('A' for Active; 'I' for Inactive)
REMARK    1  A    between atoms: C_3  and  C_6
REMARK    2  A    between atoms: C_9  and  O_27
REMARK    3  A    between atoms: N_13  and  C_19
REMARK    4  A    between atoms: C_15  and  C_16
REMARK                            x       y       z     vdW  Elec       q    Type
REMARK                         _______ _______ _______ _____ _____    ______ ____
ROOT
ATOM      1  C   UNL     1       3.761   1.845  -0.024  0.00  0.00    +0.084 C 
ATOM      2  C   UNL     1       4.487   1.333  -1.273  0.00  0.00    +0.110 C 
ATOM      3  C   UNL     1       4.899  -0.102  -1.122  0.00  0.00    +0.189 C 
ATOM      4  N   UNL     1       5.238  -0.630   0.016  0.00  0.00    -0.215 NA
ATOM      5  C   UNL     1       5.187   0.146   1.142  0.00  0.00    +0.103 A 
ATOM      6  C   UNL     1       4.500   1.328   1.186  0.00  0.00    +0.058 A 
ATOM      7  N   UNL     1       4.625   1.863   2.427  0.00  0.00    -0.316 N 
ATOM      8  C   UNL     1       5.385   1.066   3.210  0.00  0.00    +0.109 A 
ATOM      9  C   UNL     1       5.778  -0.038   2.467  0.00  0.00    +0.107 A 
ENDROOT
BRANCH   7  10
ATOM     10  C   UNL     1       4.048   3.072   2.838  0.00  0.00    +0.052 A 
ATOM     11  C   UNL     1       4.203   4.214   2.065  0.00  0.00    +0.064 A 
ATOM     12  C   UNL     1       3.633   5.407   2.472  0.00  0.00    +0.128 A 
ATOM     13  C   UNL     1       2.907   5.462   3.650  0.00  0.00    +0.076 A 
ATOM     14  C   UNL     1       2.751   4.323   4.423  0.00  0.00    +0.128 A 
ATOM     15  C   UNL     1       3.314   3.127   4.015  0.00  0.00    +0.064 A 
ATOM     16  F   UNL     1       2.043   4.379   5.572  0.00  0.00    -0.205 F 
ATOM     17  F   UNL     1       3.784   6.519   1.721  0.00  0.00    -0.205 F 
ENDBRANCH   7  10
BRANCH   1  20
ATOM     18  C   UNL     1      -0.016   1.351   0.009  0.00  0.00    +0.008 A 
ATOM     19  C   UNL     1       1.183   2.038   0.002  0.00  0.00    +0.012 A 
ATOM     20  C   UNL     1       2.343   1.336  -0.013  0.00  0.00    -0.001 A 
ATOM     21  S   UNL     1       1.754  -0.349  -0.017  0.00  0.00    -0.101 S 
ATOM     22  C   UNL     1       0.002  -0.004   0.002  0.00  0.00    +0.045 A 
ENDBRANCH   1  20
BRANCH   9  23
ATOM     23  C   UNL     1       6.611  -1.157   2.916  0.00  0.00    +0.390 C 
ATOM     24  O   UNL     1       7.040  -1.179   4.063  0.00  0.00    -0.240 OA
ATOM     25  O   UNL     1       6.878  -2.070   2.146  0.00  0.00    -0.240 OA
ENDBRANCH   9  23
BRANCH   3  26
ATOM     26  O   UNL     1       4.918  -0.884  -2.223  0.00  0.00    -0.495 OA
ATOM     27  H   UNL     1       5.192  -1.796  -2.054  0.00  0.00    +0.293 HD
ENDBRANCH   3  26
TORSDOF 4
