REMARK  Name = ZINC09358925
REMARK  12 active torsions:
REMARK  status: ('A' for Active; 'I' for Inactive)
REMARK    1  A    between atoms: C_1  and  C_2
REMARK    2  A    between atoms: C_5  and  C_43
REMARK    3  A    between atoms: C_9  and  C_10
REMARK    4  A    between atoms: C_9  and  N_87
REMARK    5  A    between atoms: C_10  and  C_11
REMARK    6  A    between atoms: C_11  and  O_13
REMARK    7  A    between atoms: O_13  and  C_14
REMARK    8  A    between atoms: C_18  and  C_42
REMARK    9  A    between atoms: C_23  and  C_41
REMARK   10  A    between atoms: C_33  and  C_40
REMARK   11  A    between atoms: C_35  and  C_37
REMARK   12  A    between atoms: C_37  and  C_39
REMARK                            x       y       z     vdW  Elec       q    Type
REMARK                         _______ _______ _______ _____ _____    ______ ____
ROOT
ATOM      1  C   UNL     1       7.549  -3.099  -1.996  0.00  0.00    +0.180 C 
ATOM      2  C   UNL     1       6.253  -3.752  -2.476  0.00  0.00    +0.046 C 
ATOM      3  C   UNL     1       5.080  -2.786  -2.326  0.00  0.00    +0.015 C 
ATOM      4  C   UNL     1       4.900  -2.366  -0.865  0.00  0.00    -0.008 C 
ATOM      5  C   UNL     1       3.767  -1.371  -0.737  0.00  0.00    +0.003 C 
ATOM      6  C   UNL     1       3.521  -0.584  -2.016  0.00  0.00    +0.005 C 
ATOM      7  C   UNL     1       2.231   0.252  -1.882  0.00  0.00    +0.008 C 
ATOM      8  C   UNL     1       2.394   1.208  -0.728  0.00  0.00    -0.019 C 
ATOM      9  C   UNL     1       2.725   0.439   0.564  0.00  0.00    -0.000 C 
ATOM     10  C   UNL     1       3.932  -0.446   0.473  0.00  0.00    +0.000 C 
ATOM     11  C   UNL     1       5.267   0.277   0.400  0.00  0.00    +0.031 C 
ATOM     12  C   UNL     1       6.370  -0.747   0.298  0.00  0.00    -0.027 C 
ATOM     13  C   UNL     1       6.208  -1.882  -0.315  0.00  0.00    -0.064 C 
ATOM     14  C   UNL     1       7.432  -2.763  -0.506  0.00  0.00    +0.075 C 
ATOM     15  C   UNL     1       2.708   1.559   1.610  0.00  0.00    +0.008 C 
ATOM     16  C   UNL     1       1.472   2.401   1.179  0.00  0.00    -0.003 C 
ATOM     17  C   UNL     1       1.150   1.998  -0.285  0.00  0.00    +0.064 C 
ATOM     18  C   UNL     1       0.280   2.084   2.084  0.00  0.00    +0.008 C 
ATOM     19  C   UNL     1       3.446   2.267  -1.081  0.00  0.00    +0.012 C 
ATOM     20  C   UNL     1       4.491  -3.614  -0.066  0.00  0.00    +0.016 C 
ENDROOT
BRANCH  17  21
ATOM     21  C   UNL     1      -0.095   1.165  -0.346  0.00  0.00    +0.134 C 
ATOM     22  O   UNL     1      -0.032  -0.028  -0.172  0.00  0.00    -0.297 OA
ATOM     23  C   UNL     1      -1.424   1.816  -0.630  0.00  0.00    +0.086 C 
ENDBRANCH  17  21
BRANCH   1  24
ATOM     24  O   UNL     1       7.791  -1.882  -2.750  0.00  0.00    -0.461 OA
BRANCH  24  25
ATOM     25  C   UNL     1       9.072  -1.527  -2.940  0.00  0.00    +0.306 C 
ATOM     26  O   UNL     1       9.961  -2.210  -2.490  0.00  0.00    -0.251 OA
BRANCH  25  27
ATOM     27  C   UNL     1       9.400  -0.276  -3.713  0.00  0.00    +0.102 C 
BRANCH  27  28
ATOM     28  C   UNL     1      10.919  -0.103  -3.783  0.00  0.00    -0.068 C 
BRANCH  28  36
ATOM     29  C   UNL     1      14.473   2.986  -5.202  0.00  0.00    +0.005 C 
ATOM     30  C   UNL     1      12.991   2.631  -5.336  0.00  0.00    -0.031 C 
ATOM     31  C   UNL     1      12.137   3.833  -4.924  0.00  0.00    +0.003 C 
ATOM     32  C   UNL     1      10.657   3.450  -5.003  0.00  0.00    -0.031 C 
ATOM     33  C   UNL     1      10.400   2.240  -4.101  0.00  0.00    -0.076 C 
ATOM     34  C   UNL     1      12.666   1.445  -4.425  0.00  0.00    -0.076 C 
ATOM     35  C   UNL     1       9.798   4.627  -4.536  0.00  0.00    +0.005 C 
ATOM     36  N   UNL     1      11.232   1.110  -4.565  0.00  0.00    +0.380 N 
ATOM     37  H   UNL     1      11.028   0.930  -5.555  0.00  0.00    -0.082 HD
ENDBRANCH  28  36
ENDBRANCH  27  28
ENDBRANCH  25  27
ENDBRANCH  24  25
ENDBRANCH   1  24
TORSDOF 6
