REMARK  Name = ZINC38597613
REMARK  8 active torsions:
REMARK  status: ('A' for Active; 'I' for Inactive)
REMARK    1  A    between atoms: C_3  and  C_6
REMARK    2  A    between atoms: C_6  and  C_8
REMARK    3  A    between atoms: C_6  and  N_22
REMARK    4  A    between atoms: C_8  and  N_9
REMARK    5  A    between atoms: C_10  and  C_12
REMARK    6  A    between atoms: C_12  and  C_13
REMARK    7  A    between atoms: C_16  and  N_19
REMARK    8  A    between atoms: N_25  and  C_28
REMARK                            x       y       z     vdW  Elec       q    Type
REMARK                         _______ _______ _______ _____ _____    ______ ____
ROOT
ATOM      1  C   UNL     1       3.637   0.583   0.019  0.00  0.00    +0.017 C 
ENDROOT
BRANCH   1   2
ATOM      2  N   UNL     1       3.979  -0.575  -0.819  0.00  0.00    +0.389 N 
ATOM      3  C   UNL     1       3.627  -0.288  -2.215  0.00  0.00    -0.059 C 
ATOM      4  C   UNL     1       3.877  -1.534  -3.070  0.00  0.00    +0.086 C 
ATOM      5  N   UNL     1       5.269  -1.966  -2.871  0.00  0.00    -0.333 N 
ATOM      6  C   UNL     1       5.756  -2.121  -1.492  0.00  0.00    +0.086 C 
ATOM      7  C   UNL     1       5.418  -0.847  -0.711  0.00  0.00    -0.059 C 
ATOM      8  H   UNL     1       3.461  -1.381  -0.503  0.00  0.00    -0.081 HD
BRANCH   5   9
ATOM      9  C   UNL     1       6.106  -2.221  -3.962  0.00  0.00    +0.030 A 
ATOM     10  C   UNL     1       7.448  -2.509  -3.756  0.00  0.00    +0.026 A 
ATOM     11  C   UNL     1       8.273  -2.761  -4.835  0.00  0.00    +0.040 A 
ATOM     12  C   UNL     1       7.762  -2.726  -6.121  0.00  0.00    +0.124 A 
ATOM     13  C   UNL     1       6.423  -2.439  -6.329  0.00  0.00    +0.040 A 
ATOM     14  C   UNL     1       5.594  -2.192  -5.253  0.00  0.00    +0.026 A 
ATOM     15  F   UNL     1       8.570  -2.972  -7.175  0.00  0.00    -0.205 F 
ENDBRANCH   5   9
ENDBRANCH   1   2
BRANCH   1  18
ATOM     16  C   UNL     1       0.175   1.828  -0.194  0.00  0.00    +0.041 A 
ATOM     17  C   UNL     1       1.570   2.051  -0.132  0.00  0.00    +0.043 A 
ATOM     18  C   UNL     1       2.155   0.842  -0.063  0.00  0.00    +0.093 A 
ATOM     19  O   UNL     1       1.193  -0.096  -0.081  0.00  0.00    -0.469 OA
ATOM     20  C   UNL     1      -0.009   0.496  -0.160  0.00  0.00    +0.195 A 
ENDBRANCH   1  18
BRANCH   1  21
ATOM     21  C   UNL     1       4.025   0.295   1.470  0.00  0.00    +0.096 C 
BRANCH  21  22
ATOM     22  N   UNL     1       3.398  -0.957   1.904  0.00  0.00    -0.316 N 
ATOM     23  C   UNL     1       3.525  -1.366   3.182  0.00  0.00    +0.217 C 
ATOM     24  O   UNL     1       4.158  -0.699   3.972  0.00  0.00    -0.275 OA
ATOM     25  H   UNL     1       2.892  -1.490   1.272  0.00  0.00    +0.149 HD
BRANCH  23  26
ATOM     26  C   UNL     1       2.881  -2.653   3.628  0.00  0.00    +0.130 C 
BRANCH  26  27
ATOM     27  C   UNL     1       3.171  -2.880   5.089  0.00  0.00    -0.038 A 
ATOM     28  C   UNL     1       4.302  -3.579   5.469  0.00  0.00    +0.006 A 
ATOM     29  C   UNL     1       4.569  -3.787   6.809  0.00  0.00    +0.033 A 
ATOM     30  C   UNL     1       3.705  -3.296   7.770  0.00  0.00    +0.126 A 
ATOM     31  C   UNL     1       2.574  -2.597   7.391  0.00  0.00    +0.033 A 
ATOM     32  C   UNL     1       2.310  -2.385   6.050  0.00  0.00    +0.006 A 
BRANCH  30  33
ATOM     33  N   UNL     1       3.990  -3.520   9.205  0.00  0.00    +0.056 N 
ATOM     34  O   UNL     1       4.978  -4.132   9.537  0.00  0.00    -0.126 OA
ATOM     35  O   UNL     1       3.234  -3.091  10.046  0.00  0.00    -0.126 OA
ENDBRANCH  30  33
ENDBRANCH  26  27
ENDBRANCH  23  26
ENDBRANCH  21  22
ENDBRANCH   1  21
TORSDOF 8
