REMARK  Name = ZINC39942793
REMARK  11 active torsions:
REMARK  status: ('A' for Active; 'I' for Inactive)
REMARK    1  A    between atoms: C_1  and  C_2
REMARK    2  A    between atoms: C_2  and  C_3
REMARK    3  A    between atoms: C_2  and  C_4
REMARK    4  A    between atoms: C_2  and  C_5
REMARK    5  A    between atoms: C_5  and  C_6
REMARK    6  A    between atoms: C_13  and  C_16
REMARK    7  A    between atoms: N_18  and  N_19
REMARK    8  A    between atoms: C_20  and  C_21
REMARK    9  A    between atoms: C_24  and  N_27
REMARK   10  A    between atoms: N_27  and  C_28
REMARK   11  A    between atoms: N_27  and  C_29
REMARK                            x       y       z     vdW  Elec       q    Type
REMARK                         _______ _______ _______ _____ _____    ______ ____
ROOT
ATOM      1  C   UNL     1       1.807  -3.186   1.944  0.00  0.00    +0.283 C 
ATOM      2  O   UNL     1       1.608  -2.139   2.530  0.00  0.00    -0.267 OA
ATOM      3  N   UNL     1       1.443  -4.354   2.509  0.00  0.00    -0.202 N 
ATOM      4  H   UNL     1       1.601  -5.189   2.042  0.00  0.00    +0.178 HD
ENDROOT
BRANCH   1  10
ATOM      5  C   UNL     1       2.022  -0.037  -1.069  0.00  0.00    -0.006 C 
ATOM      6  C   UNL     1       2.861  -0.447  -2.278  0.00  0.00    +0.006 C 
ATOM      7  C   UNL     1       2.850  -1.966  -2.477  0.00  0.00    +0.033 C 
ATOM      8  C   UNL     1       3.553  -2.615  -1.282  0.00  0.00    +0.156 C 
ATOM      9  C   UNL     1       2.849  -2.086  -0.037  0.00  0.00    -0.011 C 
ATOM     10  C   UNL     1       2.449  -3.178   0.614  0.00  0.00    +0.150 C 
ATOM     11  N   UNL     1       2.721  -4.287  -0.134  0.00  0.00    -0.149 NA
ATOM     12  N   UNL     1       3.322  -4.059  -1.215  0.00  0.00    -0.179 NA
ATOM     13  C   UNL     1       2.633  -0.623   0.217  0.00  0.00    +0.039 C 
BRANCH   5  14
ATOM     14  C   UNL     1       0.596  -0.563  -1.240  0.00  0.00    +0.010 C 
BRANCH  14  16
ATOM     15  C   UNL     1       0.479   0.388  -3.547  0.00  0.00    +0.010 C 
ATOM     16  C   UNL     1      -0.184   0.370  -2.168  0.00  0.00    -0.037 C 
ATOM     17  C   UNL     1      -0.187   1.784  -1.586  0.00  0.00    +0.010 C 
ATOM     18  C   UNL     1      -1.624  -0.130  -2.301  0.00  0.00    +0.010 C 
ENDBRANCH  14  16
ENDBRANCH   5  14
ENDBRANCH   1  10
BRANCH   3  19
ATOM     19  N   UNL     1       0.834  -4.362   3.771  0.00  0.00    -0.187 NA
ATOM     20  C   UNL     1       0.483  -5.488   4.315  0.00  0.00    +0.138 C 
BRANCH  20  21
ATOM     21  C   UNL     1      -0.157  -5.496   5.643  0.00  0.00    -0.005 A 
ATOM     22  C   UNL     1      -0.392  -4.293   6.315  0.00  0.00    +0.011 A 
ATOM     23  C   UNL     1      -0.990  -4.305   7.556  0.00  0.00    +0.024 A 
ATOM     24  C   UNL     1      -1.361  -5.512   8.139  0.00  0.00    +0.029 A 
ATOM     25  C   UNL     1      -1.129  -6.711   7.473  0.00  0.00    +0.024 A 
ATOM     26  C   UNL     1      -0.536  -6.707   6.230  0.00  0.00    +0.011 A 
BRANCH  24  27
ATOM     27  N   UNL     1      -1.966  -5.520   9.396  0.00  0.00    -0.336 N 
ATOM     28  C   UNL     1      -2.210  -4.258  10.099  0.00  0.00    +0.129 C 
ATOM     29  C   UNL     1      -2.357  -6.790  10.013  0.00  0.00    +0.129 C 
ENDBRANCH  24  27
ENDBRANCH  20  21
ENDBRANCH   3  19
TORSDOF 6
