REMARK  Name = ZINC33517487
REMARK  8 active torsions:
REMARK  status: ('A' for Active; 'I' for Inactive)
REMARK    1  A    between atoms: C_1  and  C_2
REMARK    2  A    between atoms: C_7  and  N_29
REMARK    3  A    between atoms: C_8  and  C_13
REMARK    4  A    between atoms: N_17  and  C_21
REMARK    5  A    between atoms: C_21  and  C_22
REMARK    6  A    between atoms: C_22  and  C_23
REMARK    7  A    between atoms: N_29  and  C_30
REMARK    8  A    between atoms: C_33  and  C_36
REMARK                            x       y       z     vdW  Elec       q    Type
REMARK                         _______ _______ _______ _____ _____    ______ ____
ROOT
ATOM      1  C   UNL     1      -4.252   8.713   0.390  0.00  0.00    +0.045 C 
ATOM      2  C   UNL     1      -3.396   7.480   0.245  0.00  0.00    -0.034 A 
ATOM      3  C   UNL     1      -2.520   7.112   1.275  0.00  0.00    +0.008 A 
ATOM      4  C   UNL     1      -1.751   5.995   1.135  0.00  0.00    +0.047 A 
ATOM      5  C   UNL     1      -1.847   5.228  -0.040  0.00  0.00    +0.142 A 
ATOM      6  N   UNL     1      -1.092   4.137  -0.166  0.00  0.00    -0.214 NA
ATOM      7  C   UNL     1      -1.142   3.378  -1.251  0.00  0.00    +0.134 A 
ATOM      8  C   UNL     1      -2.013   3.731  -2.309  0.00  0.00    +0.081 A 
ATOM      9  C   UNL     1      -2.815   4.888  -2.161  0.00  0.00    +0.267 A 
ATOM     10  O   UNL     1      -3.584   5.226  -3.045  0.00  0.00    -0.267 OA
ATOM     11  N   UNL     1      -2.711   5.613  -1.027  0.00  0.00    -0.267 N 
ATOM     12  C   UNL     1      -3.476   6.732  -0.878  0.00  0.00    +0.099 A 
ENDROOT
BRANCH   8  13
ATOM     13  C   UNL     1      -2.085   2.944  -3.482  0.00  0.00    +0.037 C 
ATOM     14  C   UNL     1      -1.659   3.455  -4.674  0.00  0.00    +0.077 C 
ATOM     15  C   UNL     1      -1.021   4.697  -4.950  0.00  0.00    +0.258 C 
ATOM     16  O   UNL     1      -0.776   5.489  -4.056  0.00  0.00    -0.269 OA
ATOM     17  N   UNL     1      -0.701   4.968  -6.204  0.00  0.00    -0.255 N 
ATOM     18  C   UNL     1      -0.971   4.090  -7.195  0.00  0.00    +0.121 C 
ATOM     19  S   UNL     1      -0.649   4.230  -8.871  0.00  0.00    -0.027 S 
ATOM     20  S   UNL     1      -1.744   2.743  -6.311  0.00  0.00    -0.061 S 
BRANCH  17  21
ATOM     21  C   UNL     1      -0.042   6.237  -6.523  0.00  0.00    +0.119 C 
BRANCH  21  22
ATOM     22  C   UNL     1       1.475   6.060  -6.439  0.00  0.00    +0.054 C 
BRANCH  22  23
ATOM     23  C   UNL     1       2.152   7.366  -6.767  0.00  0.00    -0.046 A 
ATOM     24  C   UNL     1       2.496   7.656  -8.074  0.00  0.00    +0.004 A 
ATOM     25  C   UNL     1       3.113   8.856  -8.376  0.00  0.00    +0.000 A 
ATOM     26  C   UNL     1       3.395   9.761  -7.370  0.00  0.00    +0.000 A 
ATOM     27  C   UNL     1       3.055   9.468  -6.062  0.00  0.00    +0.000 A 
ATOM     28  C   UNL     1       2.434   8.271  -5.761  0.00  0.00    +0.004 A 
ENDBRANCH  22  23
ENDBRANCH  21  22
ENDBRANCH  17  21
ENDBRANCH   8  13
BRANCH   7  29
ATOM     29  N   UNL     1      -0.349   2.256  -1.351  0.00  0.00    -0.326 N 
ATOM     30  H   UNL     1      -0.394   1.629  -2.253  0.00  0.00    +0.148 HD
BRANCH  29  31
ATOM     31  C   UNL     1       0.555   1.899  -0.255  0.00  0.00    +0.072 C 
ATOM     32  C   UNL     1       1.871   2.664  -0.409  0.00  0.00    +0.022 C 
ATOM     33  C   UNL     1       2.520   2.299  -1.745  0.00  0.00    +0.005 C 
ATOM     34  C   UNL     1       2.798   0.794  -1.783  0.00  0.00    -0.014 C 
ATOM     35  C   UNL     1       1.482   0.029  -1.629  0.00  0.00    +0.005 C 
ATOM     36  C   UNL     1       0.833   0.395  -0.292  0.00  0.00    +0.022 C 
ATOM     37  C   UNL     1       3.447   0.429  -3.119  0.00  0.00    +0.007 C 
ENDBRANCH  29  31
ENDBRANCH   7  29
TORSDOF 6
