REMARK  Name = ZINC21237207
REMARK  8 active torsions:
REMARK  status: ('A' for Active; 'I' for Inactive)
REMARK    1  A    between atoms: C_1  and  C_2
REMARK    2  A    between atoms: C_2  and  C_4
REMARK    3  A    between atoms: C_2  and  N_12
REMARK    4  A    between atoms: C_13  and  C_15
REMARK    5  A    between atoms: C_15  and  S_16
REMARK    6  A    between atoms: S_16  and  C_17
REMARK    7  A    between atoms: C_20  and  C_23
REMARK    8  A    between atoms: N_21  and  N_22
REMARK                            x       y       z     vdW  Elec       q    Type
REMARK                         _______ _______ _______ _____ _____    ______ ____
ROOT
ATOM      1  C   UNL     1       3.781   0.895   0.481  0.00  0.00    +0.173 C 
ENDROOT
BRANCH   1   3
ATOM      2  N   UNL     1       1.425   1.335  -0.127  0.00  0.00    -0.308 N 
ATOM      3  C   UNL     1       2.303   0.638   0.621  0.00  0.00    +0.224 C 
ATOM      4  O   UNL     1       1.903  -0.196   1.405  0.00  0.00    -0.275 OA
ATOM      5  H   UNL     1       1.787   2.091  -0.839  0.00  0.00    +0.149 HD
BRANCH   2   7
ATOM      6  C   UNL     1      -0.578   1.957   1.132  0.00  0.00    +0.033 C 
ATOM      7  C   UNL     1      -0.013   1.086   0.008  0.00  0.00    +0.102 C 
BRANCH   7   8
ATOM      8  C   UNL     1      -0.705   1.424  -1.287  0.00  0.00    -0.009 A 
ATOM      9  C   UNL     1      -0.160   2.369  -2.136  0.00  0.00    +0.008 A 
ATOM     10  C   UNL     1      -0.795   2.680  -3.324  0.00  0.00    +0.020 A 
ATOM     11  C   UNL     1      -1.977   2.046  -3.663  0.00  0.00    +0.042 A 
ATOM     12  C   UNL     1      -2.523   1.100  -2.814  0.00  0.00    +0.040 A 
ATOM     13  C   UNL     1      -1.884   0.785  -1.628  0.00  0.00    +0.047 A 
ATOM     14 CL   UNL     1      -2.564  -0.407  -0.566  0.00  0.00    -0.083 Cl
ATOM     15 CL   UNL     1      -2.774   2.436  -5.155  0.00  0.00    -0.083 Cl
ENDBRANCH   7   8
ENDBRANCH   2   7
ENDBRANCH   1   3
BRANCH   1  16
ATOM     16  S   UNL     1       4.691  -0.189   1.610  0.00  0.00    -0.075 S 
BRANCH  16  17
ATOM     17  C   UNL     1       6.342   0.308   1.248  0.00  0.00    +0.209 A 
ATOM     18  N   UNL     1       6.709   1.224   0.382  0.00  0.00    -0.121 NA
ATOM     19  N   UNL     1       7.990   1.329   0.375  0.00  0.00    -0.132 NA
ATOM     20  C   UNL     1       8.512   0.495   1.229  0.00  0.00    +0.154 A 
ATOM     21  N   UNL     1       7.481  -0.181   1.820  0.00  0.00    -0.228 N 
BRANCH  20  22
ATOM     22  C   UNL     1       9.980   0.314   1.517  0.00  0.00    +0.059 C 
ATOM     23  C   UNL     1      10.568   1.634   2.020  0.00  0.00    +0.011 C 
ATOM     24  C   UNL     1      12.059   1.450   2.312  0.00  0.00    +0.001 C 
ATOM     25  C   UNL     1      12.781   1.025   1.032  0.00  0.00    +0.000 C 
ATOM     26  C   UNL     1      12.193  -0.294   0.528  0.00  0.00    +0.001 C 
ATOM     27  C   UNL     1      10.702  -0.110   0.236  0.00  0.00    +0.011 C 
ENDBRANCH  20  22
BRANCH  21  28
ATOM     28  N   UNL     1       7.572  -1.147   2.781  0.00  0.00    -0.295 N 
ATOM     29  H   UNL     1       8.557  -1.454   3.161  0.00  0.00    +0.163 HD
ATOM     30  H   UNL     1       6.660  -1.619   3.175  0.00  0.00    +0.163 HD
ENDBRANCH  21  28
ENDBRANCH  16  17
ENDBRANCH   1  16
TORSDOF 7
