REMARK  Name = ZINC08927148
REMARK  11 active torsions:
REMARK  status: ('A' for Active; 'I' for Inactive)
REMARK    1  A    between atoms: C_1  and  C_2
REMARK    2  A    between atoms: C_2  and  N_3
REMARK    3  A    between atoms: N_3  and  C_4
REMARK    4  A    between atoms: C_7  and  C_33
REMARK    5  A    between atoms: C_9  and  N_10
REMARK    6  A    between atoms: N_12  and  C_30
REMARK    7  A    between atoms: N_17  and  C_27
REMARK    8  A    between atoms: C_20  and  O_25
REMARK    9  A    between atoms: O_25  and  C_26
REMARK   10  A    between atoms: C_27  and  C_28
REMARK   11  A    between atoms: C_30  and  C_31
REMARK                            x       y       z     vdW  Elec       q    Type
REMARK                         _______ _______ _______ _____ _____    ______ ____
ROOT
ATOM      1  N   UNL     1      -3.586  -4.145  -0.982  0.00  0.00    -0.224 NA
ATOM      2  C   UNL     1      -3.238  -2.885  -0.829  0.00  0.00    +0.169 C 
ATOM      3  N   UNL     1      -2.396  -2.323   0.111  0.00  0.00    -0.242 N 
ATOM      4  C   UNL     1      -2.165  -1.022   0.096  0.00  0.00    +0.262 C 
ATOM      5  O   UNL     1      -1.419  -0.515   0.918  0.00  0.00    -0.269 OA
ATOM      6  C   UNL     1      -2.797  -0.231  -0.880  0.00  0.00    +0.106 C 
ATOM      7  C   UNL     1      -2.713   1.138  -1.090  0.00  0.00    +0.092 C 
ATOM      8  N   UNL     1      -2.371   2.123  -0.202  0.00  0.00    -0.293 N 
ATOM      9  C   UNL     1      -2.339   3.445  -0.609  0.00  0.00    +0.052 A 
ATOM     10  C   UNL     1      -2.007   4.570   0.165  0.00  0.00    +0.070 A 
ATOM     11  C   UNL     1      -2.018   5.835  -0.383  0.00  0.00    +0.122 A 
ATOM     12  C   UNL     1      -2.358   6.037  -1.714  0.00  0.00    +0.047 A 
ATOM     13  C   UNL     1      -2.689   4.945  -2.497  0.00  0.00    +0.020 A 
ATOM     14  C   UNL     1      -2.677   3.685  -1.949  0.00  0.00    +0.036 A 
ATOM     15  S   UNL     1      -3.025   2.062  -2.585  0.00  0.00    -0.071 S 
ATOM     16  S   UNL     1      -3.731  -1.458  -1.784  0.00  0.00    -0.046 S 
ENDROOT
BRANCH   1  22
ATOM     17  C   UNL     1      -5.510  -5.292  -1.853  0.00  0.00    +0.053 A 
ATOM     18  C   UNL     1      -6.289  -5.669  -2.938  0.00  0.00    +0.026 A 
ATOM     19  C   UNL     1      -5.934  -5.286  -4.214  0.00  0.00    +0.021 A 
ATOM     20  C   UNL     1      -4.786  -4.515  -4.424  0.00  0.00    +0.054 A 
ATOM     21  C   UNL     1      -4.000  -4.125  -3.337  0.00  0.00    +0.048 A 
ATOM     22  C   UNL     1      -4.356  -4.518  -2.051  0.00  0.00    +0.088 A 
BRANCH  17  23
ATOM     23  N   UNL     1      -5.874  -5.683  -0.565  0.00  0.00    -0.342 N 
ATOM     24  H   UNL     1      -5.330  -5.420   0.193  0.00  0.00    +0.146 HD
BRANCH  23  26
ATOM     25  C   UNL     1      -7.247  -6.780   1.135  0.00  0.00    +0.024 C 
ATOM     26  C   UNL     1      -7.078  -6.491  -0.358  0.00  0.00    +0.098 C 
ENDBRANCH  23  26
ENDBRANCH  17  23
BRANCH  20  27
ATOM     27  C   UNL     1      -4.421  -4.120  -5.751  0.00  0.00    +0.099 C 
ATOM     28  N   UNL     1      -4.132  -3.806  -6.804  0.00  0.00    -0.191 NA
ENDBRANCH  20  27
ENDBRANCH   1  22
BRANCH  11  29
ATOM     29  O   UNL     1      -1.691   6.902   0.393  0.00  0.00    -0.495 OA
ATOM     30  C   UNL     1      -1.720   8.189  -0.228  0.00  0.00    +0.277 C 
ENDBRANCH  11  29
BRANCH   8  31
ATOM     31  C   UNL     1      -2.032   1.776   1.181  0.00  0.00    +0.108 C 
ATOM     32  C   UNL     1      -3.224   1.078   1.838  0.00  0.00    +0.025 C 
ENDBRANCH   8  31
BRANCH   3  33
ATOM     33  C   UNL     1      -1.755  -3.170   1.120  0.00  0.00    +0.142 C 
BRANCH  33  34
ATOM     34  C   UNL     1      -0.430  -3.661   0.596  0.00  0.00    -0.015 C 
ATOM     35  C   UNL     1       0.665  -3.451   1.284  0.00  0.00    +0.005 C 
ENDBRANCH  33  34
ENDBRANCH   3  33
TORSDOF 8
