REMARK  Name = ZINC14991626
REMARK  4 active torsions:
REMARK  status: ('A' for Active; 'I' for Inactive)
REMARK    1  A    between atoms: C_8  and  C_10
REMARK    2  A    between atoms: C_10  and  N_11
REMARK    3  A    between atoms: C_18  and  N_22
REMARK    4  A    between atoms: C_27  and  N_63
REMARK                            x       y       z     vdW  Elec       q    Type
REMARK                         _______ _______ _______ _____ _____    ______ ____
ROOT
ATOM      1  N   UNL     1      -0.750   5.510  -1.545  0.00  0.00    -0.229 N 
ATOM      2  C   UNL     1       0.203   6.166  -2.232  0.00  0.00    +0.254 C 
ATOM      3  O   UNL     1       1.350   6.335  -1.870  0.00  0.00    -0.270 OA
ATOM      4  C   UNL     1      -0.381   6.645  -3.502  0.00  0.00    +0.051 A 
ATOM      5  C   UNL     1       0.108   7.359  -4.582  0.00  0.00    +0.014 A 
ATOM      6  C   UNL     1      -0.729   7.660  -5.649  0.00  0.00    +0.003 A 
ATOM      7  C   UNL     1      -2.046   7.255  -5.645  0.00  0.00    +0.024 A 
ATOM      8  C   UNL     1      -2.559   6.533  -4.565  0.00  0.00    +0.043 A 
ATOM      9  C   UNL     1      -1.728   6.226  -3.488  0.00  0.00    +0.070 A 
ATOM     10  C   UNL     1      -1.915   5.505  -2.218  0.00  0.00    +0.256 C 
ATOM     11  O   UNL     1      -2.949   4.991  -1.840  0.00  0.00    -0.269 OA
ENDROOT
BRANCH   8  12
ATOM     12  N   UNL     1      -3.885   6.126  -4.563  0.00  0.00    -0.333 N 
ATOM     13  C   UNL     1      -4.146   5.177  -5.655  0.00  0.00    +0.086 C 
ATOM     14  C   UNL     1      -5.595   4.692  -5.570  0.00  0.00    -0.059 C 
ATOM     15  C   UNL     1      -6.240   6.796  -4.561  0.00  0.00    -0.059 C 
ATOM     16  C   UNL     1      -4.790   7.281  -4.646  0.00  0.00    +0.086 C 
ATOM     17  N   UNL     1      -6.495   5.860  -5.676  0.00  0.00    +0.384 N 
ATOM     18  H   UNL     1      -6.313   6.342  -6.565  0.00  0.00    -0.081 HD
BRANCH  17  19
ATOM     19  C   UNL     1      -7.905   5.415  -5.651  0.00  0.00    -0.060 C 
ATOM     20  C   UNL     1      -8.207   4.526  -6.876  0.00  0.00    +0.020 C 
ATOM     21  C   UNL     1      -9.625   4.872  -7.276  0.00  0.00    -0.046 A 
ATOM     22  C   UNL     1     -10.522   4.190  -8.082  0.00  0.00    +0.004 A 
ATOM     23  C   UNL     1     -11.782   4.706  -8.310  0.00  0.00    +0.000 A 
ATOM     24  C   UNL     1     -12.150   5.908  -7.734  0.00  0.00    +0.000 A 
ATOM     25  C   UNL     1     -11.257   6.590  -6.931  0.00  0.00    +0.004 A 
ATOM     26  C   UNL     1      -9.993   6.074  -6.700  0.00  0.00    -0.046 A 
ATOM     27  C   UNL     1      -8.848   6.617  -5.873  0.00  0.00    +0.020 C 
ENDBRANCH  17  19
ENDBRANCH   8  12
BRANCH   1  28
ATOM     28  C   UNL     1      -0.547   4.888  -0.234  0.00  0.00    +0.159 C 
BRANCH  28  36
ATOM     29  C   UNL     1       2.567  -0.507  -0.996  0.00  0.00    +0.001 A 
ATOM     30  C   UNL     1       1.386  -1.236  -1.030  0.00  0.00    +0.001 A 
ATOM     31  C   UNL     1       0.178  -0.580  -0.900  0.00  0.00    +0.015 A 
ATOM     32  C   UNL     1       0.162   0.789  -0.740  0.00  0.00    +0.020 A 
ATOM     33  C   UNL     1       1.348   1.554  -0.703  0.00  0.00    -0.011 A 
ATOM     34  C   UNL     1       2.565   0.844  -0.839  0.00  0.00    +0.009 A 
ATOM     35  C   UNL     1       1.143   2.984  -0.528  0.00  0.00    +0.021 A 
ATOM     36  C   UNL     1      -0.106   3.459  -0.419  0.00  0.00    +0.009 A 
ATOM     37  S   UNL     1      -1.121   2.000  -0.551  0.00  0.00    -0.092 S 
ENDBRANCH  28  36
ENDBRANCH   1  28
TORSDOF 4
