REMARK  Name = ZINC33059052
REMARK  8 active torsions:
REMARK  status: ('A' for Active; 'I' for Inactive)
REMARK    1  A    between atoms: C_1  and  C_2
REMARK    2  A    between atoms: C_3  and  S_17
REMARK    3  A    between atoms: C_4  and  C_7
REMARK    4  A    between atoms: C_8  and  C_9
REMARK    5  A    between atoms: S_17  and  N_20
REMARK    6  A    between atoms: C_23  and  C_26
REMARK    7  A    between atoms: N_28  and  C_29
REMARK    8  A    between atoms: C_29  and  C_30
REMARK                            x       y       z     vdW  Elec       q    Type
REMARK                         _______ _______ _______ _____ _____    ______ ____
ROOT
ATOM      1  S   UNL     1      -0.927  -6.884  -6.084  0.00  0.00    +0.066 S 
ATOM      2  O   UNL     1      -1.515  -6.068  -7.087  0.00  0.00    -0.153 OA
ATOM      3  O   UNL     1      -0.239  -8.090  -6.389  0.00  0.00    -0.153 OA
ENDROOT
BRANCH   1   6
ATOM      4  C   UNL     1      -1.256  -9.512  -3.950  0.00  0.00    +0.071 C 
ATOM      5  C   UNL     1      -2.287  -8.422  -4.100  0.00  0.00    +0.107 A 
ATOM      6  C   UNL     1      -2.216  -7.310  -4.960  0.00  0.00    +0.174 A 
ATOM      7  C   UNL     1      -3.399  -6.633  -4.720  0.00  0.00    +0.187 A 
ATOM      8  O   UNL     1      -4.049  -7.350  -3.783  0.00  0.00    -0.353 OA
ATOM      9  N   UNL     1      -3.416  -8.326  -3.456  0.00  0.00    -0.081 NA
BRANCH   7  10
ATOM     10  C   UNL     1      -3.851  -5.393  -5.355  0.00  0.00    +0.052 C 
ATOM     11  C   UNL     1      -5.037  -4.854  -5.011  0.00  0.00    +0.014 C 
BRANCH  11  12
ATOM     12  C   UNL     1      -5.492  -3.607  -5.649  0.00  0.00    +0.010 A 
ATOM     13  C   UNL     1      -4.692  -2.977  -6.608  0.00  0.00    +0.013 A 
ATOM     14  C   UNL     1      -5.126  -1.814  -7.206  0.00  0.00    +0.039 A 
ATOM     15  C   UNL     1      -6.347  -1.260  -6.850  0.00  0.00    +0.126 A 
ATOM     16  C   UNL     1      -7.143  -1.875  -5.897  0.00  0.00    +0.077 A 
ATOM     17  C   UNL     1      -6.724  -3.044  -5.294  0.00  0.00    +0.133 A 
ATOM     18  F   UNL     1      -7.500  -3.643  -4.365  0.00  0.00    -0.205 F 
ATOM     19  F   UNL     1      -6.763  -0.116  -7.437  0.00  0.00    -0.205 F 
ENDBRANCH  11  12
ENDBRANCH   7  10
ENDBRANCH   1   6
BRANCH   1  20
ATOM     20  N   UNL     1       0.143  -5.925  -5.261  0.00  0.00    -0.176 NA
ATOM     21  C   UNL     1       1.275  -6.517  -4.534  0.00  0.00    +0.110 C 
ATOM     22  C   UNL     1       1.247  -6.018  -3.086  0.00  0.00    +0.030 C 
ATOM     23  C   UNL     1       1.228  -4.487  -3.079  0.00  0.00    +0.077 C 
ATOM     24  C   UNL     1      -0.034  -3.988  -3.787  0.00  0.00    +0.030 C 
ATOM     25  C   UNL     1      -0.021  -4.465  -5.242  0.00  0.00    +0.110 C 
BRANCH  23  26
ATOM     26  C   UNL     1       1.235  -3.992  -1.656  0.00  0.00    +0.216 C 
ATOM     27  O   UNL     1       1.254  -4.784  -0.738  0.00  0.00    -0.276 OA
ATOM     28  N   UNL     1       1.220  -2.668  -1.403  0.00  0.00    -0.311 N 
ATOM     29  H   UNL     1       1.203  -1.949  -2.236  0.00  0.00    +0.149 HD
BRANCH  28  30
ATOM     30  C   UNL     1       1.227  -2.186  -0.020  0.00  0.00    +0.139 C 
BRANCH  30  31
ATOM     31  C   UNL     1       1.208  -0.679  -0.013  0.00  0.00    -0.030 A 
ATOM     32  C   UNL     1       0.002  -0.004   0.002  0.00  0.00    +0.008 A 
ATOM     33  C   UNL     1      -0.017   1.378   0.010  0.00  0.00    +0.038 A 
ATOM     34  C   UNL     1       1.173   2.086   0.002  0.00  0.00    +0.123 A 
ATOM     35  C   UNL     1       2.381   1.408  -0.013  0.00  0.00    +0.038 A 
ATOM     36  C   UNL     1       2.397   0.026  -0.020  0.00  0.00    +0.008 A 
ATOM     37  F   UNL     1       1.156   3.437   0.009  0.00  0.00    -0.205 F 
ENDBRANCH  30  31
ENDBRANCH  28  30
ENDBRANCH  23  26
ENDBRANCH   1  20
TORSDOF 7
