REMARK  Name = ZINC01461891
REMARK  8 active torsions:
REMARK  status: ('A' for Active; 'I' for Inactive)
REMARK    1  A    between atoms: C_1  and  C_2
REMARK    2  A    between atoms: C_5  and  O_35
REMARK    3  A    between atoms: C_15  and  C_18
REMARK    4  A    between atoms: C_21  and  O_24
REMARK    5  A    between atoms: O_24  and  C_25
REMARK    6  A    between atoms: C_25  and  C_26
REMARK    7  A    between atoms: C_29  and  N_32
REMARK    8  A    between atoms: O_35  and  C_36
REMARK                            x       y       z     vdW  Elec       q    Type
REMARK                         _______ _______ _______ _____ _____    ______ ____
ROOT
ATOM      1  C   UNL     1      -4.722   4.845  -2.563  0.00  0.00    +0.044 C 
ATOM      2  C   UNL     1      -4.819   4.319  -1.154  0.00  0.00    -0.045 A 
ATOM      3  C   UNL     1      -5.465   5.066  -0.188  0.00  0.00    +0.007 A 
ATOM      4  C   UNL     1      -5.553   4.583   1.105  0.00  0.00    +0.048 A 
ATOM      5  C   UNL     1      -5.004   3.357   1.427  0.00  0.00    +0.141 A 
ATOM      6  C   UNL     1      -4.353   2.587   0.456  0.00  0.00    +0.074 A 
ATOM      7  C   UNL     1      -4.262   3.096  -0.841  0.00  0.00    -0.013 A 
ATOM      8  C   UNL     1      -3.551   2.283  -1.852  0.00  0.00    +0.049 C 
ATOM      9  C   UNL     1      -3.854   2.325  -3.313  0.00  0.00    -0.023 C 
ATOM     10  C   UNL     1      -3.652   1.120  -3.834  0.00  0.00    -0.030 C 
ATOM     11  C   UNL     1      -3.199   0.148  -2.742  0.00  0.00    +0.033 C 
ATOM     12  C   UNL     1      -3.813   0.788  -1.491  0.00  0.00    +0.029 C 
ATOM     13  C   UNL     1      -3.104   0.584  -0.168  0.00  0.00    +0.105 C 
ATOM     14  N   UNL     1      -3.854   1.343   0.845  0.00  0.00    -0.334 N 
ATOM     15  H   UNL     1      -4.580   0.776   1.258  0.00  0.00    +0.147 HD
ENDROOT
BRANCH  13  16
ATOM     16  C   UNL     1      -1.692   1.103  -0.257  0.00  0.00    -0.027 A 
ATOM     17  C   UNL     1      -0.692   0.298  -0.770  0.00  0.00    +0.009 A 
ATOM     18  C   UNL     1       0.603   0.773  -0.857  0.00  0.00    +0.046 A 
ATOM     19  C   UNL     1       0.899   2.058  -0.425  0.00  0.00    +0.121 A 
ATOM     20  C   UNL     1      -0.105   2.861   0.094  0.00  0.00    +0.046 A 
ATOM     21  C   UNL     1      -1.397   2.381   0.180  0.00  0.00    +0.009 A 
BRANCH  19  22
ATOM     22  O   UNL     1       2.172   2.527  -0.510  0.00  0.00    -0.487 OA
BRANCH  22  23
ATOM     23  C   UNL     1       2.404   3.859  -0.046  0.00  0.00    +0.264 C 
BRANCH  23  24
ATOM     24  C   UNL     1       3.861   4.203  -0.217  0.00  0.00    -0.010 A 
ATOM     25  C   UNL     1       4.757   3.944   0.803  0.00  0.00    +0.009 A 
ATOM     26  C   UNL     1       6.095   4.256   0.644  0.00  0.00    +0.033 A 
ATOM     27  C   UNL     1       6.534   4.836  -0.531  0.00  0.00    +0.126 A 
ATOM     28  C   UNL     1       5.637   5.100  -1.550  0.00  0.00    +0.033 A 
ATOM     29  C   UNL     1       4.301   4.783  -1.393  0.00  0.00    +0.009 A 
BRANCH  27  30
ATOM     30  N   UNL     1       7.965   5.175  -0.699  0.00  0.00    +0.056 N 
ATOM     31  O   UNL     1       8.352   5.687  -1.735  0.00  0.00    -0.126 OA
ATOM     32  O   UNL     1       8.755   4.943   0.198  0.00  0.00    -0.126 OA
ENDBRANCH  27  30
ENDBRANCH  23  24
ENDBRANCH  22  23
ENDBRANCH  19  22
ENDBRANCH  13  16
BRANCH   5  33
ATOM     33  O   UNL     1      -5.095   2.893   2.703  0.00  0.00    -0.493 OA
ATOM     34  C   UNL     1      -5.771   3.725   3.648  0.00  0.00    +0.277 C 
ENDBRANCH   5  33
TORSDOF 6
