REMARK  Name = ZINC34759764
REMARK  11 active torsions:
REMARK  status: ('A' for Active; 'I' for Inactive)
REMARK    1  A    between atoms: C_1  and  C_2
REMARK    2  A    between atoms: C_2  and  N_3
REMARK    3  A    between atoms: N_3  and  C_4
REMARK    4  A    between atoms: C_4  and  C_5
REMARK    5  A    between atoms: C_6  and  C_8
REMARK    6  A    between atoms: C_8  and  S_9
REMARK    7  A    between atoms: S_9  and  C_10
REMARK    8  A    between atoms: C_14  and  C_20
REMARK    9  A    between atoms: C_15  and  C_19
REMARK   10  A    between atoms: N_24  and  C_27
REMARK   11  A    between atoms: C_27  and  C_28
REMARK                            x       y       z     vdW  Elec       q    Type
REMARK                         _______ _______ _______ _____ _____    ______ ____
ROOT
ATOM      1  C   UNL     1       5.226  -0.832  -1.488  0.00  0.00    +0.191 A 
ATOM      2  N   UNL     1       6.526  -1.052  -1.650  0.00  0.00    -0.206 NA
ATOM      3  C   UNL     1       7.134  -0.845  -2.805  0.00  0.00    +0.134 A 
ATOM      4  C   UNL     1       6.381  -0.371  -3.915  0.00  0.00    +0.051 A 
ATOM      5  C   UNL     1       6.813  -0.071  -5.269  0.00  0.00    -0.028 A 
ATOM      6  C   UNL     1       5.915   0.369  -6.161  0.00  0.00    -0.008 A 
ATOM      7  S   UNL     1       4.394   0.415  -5.232  0.00  0.00    -0.073 S 
ATOM      8  C   UNL     1       5.007  -0.159  -3.670  0.00  0.00    +0.115 A 
ATOM      9  N   UNL     1       4.472  -0.395  -2.488  0.00  0.00    -0.214 NA
ATOM     10  C   UNL     1       6.137   0.739  -7.605  0.00  0.00    +0.052 C 
ATOM     11  C   UNL     1       8.256  -0.253  -5.667  0.00  0.00    +0.045 C 
ATOM     12  N   UNL     1       8.490  -1.086  -2.933  0.00  0.00    -0.318 N 
ATOM     13  C   UNL     1       9.480  -0.082  -2.513  0.00  0.00    +0.088 C 
ATOM     14  C   UNL     1      10.509  -0.764  -1.605  0.00  0.00    -0.059 C 
ATOM     15  N   UNL     1      11.080  -1.924  -2.300  0.00  0.00    +0.387 N 
ATOM     16  C   UNL     1      10.036  -2.929  -2.538  0.00  0.00    -0.059 C 
ATOM     17  C   UNL     1       8.984  -2.356  -3.487  0.00  0.00    +0.088 C 
ATOM     18  H   UNL     1      11.468  -1.628  -3.184  0.00  0.00    -0.081 HD
ENDROOT
BRANCH   1  19
ATOM     19  S   UNL     1       4.487  -1.132   0.084  0.00  0.00    -0.077 S 
BRANCH  19  20
ATOM     20  C   UNL     1       2.741  -0.711  -0.165  0.00  0.00    +0.173 C 
BRANCH  20  22
ATOM     21  N   UNL     1       0.661  -0.675   1.174  0.00  0.00    -0.301 N 
ATOM     22  C   UNL     1       1.984  -0.925   1.121  0.00  0.00    +0.226 C 
ATOM     23  O   UNL     1       2.567  -1.324   2.108  0.00  0.00    -0.275 OA
BRANCH  21  25
ATOM     24  C   UNL     1      -0.014   1.335  -0.044  0.00  0.00    +0.024 C 
ATOM     25  C   UNL     1      -0.042  -0.194  -0.017  0.00  0.00    +0.104 C 
ENDBRANCH  21  25
BRANCH  21  26
ATOM     26  C   UNL     1      -0.074  -0.884   2.424  0.00  0.00    +0.104 C 
ATOM     27  C   UNL     1      -0.603  -2.319   2.471  0.00  0.00    +0.024 C 
ENDBRANCH  21  26
ENDBRANCH  20  22
ENDBRANCH  19  20
ENDBRANCH   1  19
BRANCH  15  28
ATOM     28  C   UNL     1      12.144  -2.512  -1.475  0.00  0.00    +0.019 C 
BRANCH  28  29
ATOM     29  C   UNL     1      12.814  -3.626  -2.238  0.00  0.00    +0.199 C 
ATOM     30  O   UNL     1      12.442  -3.903  -3.358  0.00  0.00    -0.278 OA
ATOM     31  N   UNL     1      13.826  -4.315  -1.675  0.00  0.00    -0.303 N 
ATOM     32  C   UNL     1      14.284  -3.995  -0.316  0.00  0.00    +0.107 C 
ATOM     33  C   UNL     1      14.265  -5.276   0.525  0.00  0.00    +0.019 C 
ATOM     34  C   UNL     1      15.091  -6.355  -0.179  0.00  0.00    +0.003 C 
ATOM     35  C   UNL     1      14.472  -6.664  -1.544  0.00  0.00    +0.019 C 
ATOM     36  C   UNL     1      14.489  -5.403  -2.406  0.00  0.00    +0.107 C 
ENDBRANCH  28  29
ENDBRANCH  15  28
TORSDOF 7
