REMARK  Name = ZINC02652241
REMARK  13 active torsions:
REMARK  status: ('A' for Active; 'I' for Inactive)
REMARK    1  A    between atoms: C_1  and  C_2
REMARK    2  A    between atoms: C_6  and  N_9
REMARK    3  A    between atoms: C_7  and  C_8
REMARK    4  A    between atoms: N_9  and  C_10
REMARK    5  A    between atoms: C_15  and  C_16
REMARK    6  A    between atoms: C_16  and  O_18
REMARK    7  A    between atoms: O_18  and  C_19
REMARK    8  A    between atoms: C_19  and  C_20
REMARK    9  A    between atoms: C_20  and  C_22
REMARK   10  A    between atoms: C_24  and  C_40
REMARK   11  A    between atoms: N_25  and  C_28
REMARK   12  A    between atoms: C_26  and  C_27
REMARK   13  A    between atoms: C_28  and  C_29
REMARK                            x       y       z     vdW  Elec       q    Type
REMARK                         _______ _______ _______ _____ _____    ______ ____
ROOT
ATOM      1  C   UNL     1       2.788   7.651   2.895  0.00  0.00    +0.311 C 
ENDROOT
BRANCH   1   2
ATOM      2  C   UNL     1       2.347   6.773   1.752  0.00  0.00    +0.202 C 
ATOM      3  O   UNL     1       1.738   7.253   0.819  0.00  0.00    -0.288 OA
BRANCH   2   4
ATOM      4  C   UNL     1       2.653   5.341   1.768  0.00  0.00    +0.042 A 
ATOM      5  C   UNL     1       3.377   4.602   2.811  0.00  0.00    +0.034 A 
ATOM      6  C   UNL     1       3.421   3.322   2.406  0.00  0.00    +0.017 A 
ATOM      7  N   UNL     1       2.787   3.210   1.203  0.00  0.00    -0.344 N 
ATOM      8  C   UNL     1       2.326   4.408   0.802  0.00  0.00    +0.027 A 
ATOM      9  C   UNL     1       1.578   4.685  -0.477  0.00  0.00    +0.064 C 
ATOM     10  C   UNL     1       4.068   2.189   3.161  0.00  0.00    +0.063 C 
BRANCH   7  11
ATOM     11  C   UNL     1       2.635   1.962   0.451  0.00  0.00    +0.169 C 
BRANCH  11  12
ATOM     12  C   UNL     1       1.337   1.269   0.869  0.00  0.00    +0.230 C 
ATOM     13  C   UNL     1       1.234  -0.097   0.178  0.00  0.00    +0.275 C 
ATOM     14  O   UNL     1       0.004  -0.711   0.580  0.00  0.00    -0.485 OA
ATOM     15  C   UNL     1      -1.109   0.072   0.548  0.00  0.00    +0.162 A 
ATOM     16  C   UNL     1      -2.361  -0.524   0.570  0.00  0.00    +0.049 A 
ATOM     17  C   UNL     1      -3.501   0.257   0.541  0.00  0.00    +0.004 A 
ATOM     18  C   UNL     1      -3.396   1.634   0.490  0.00  0.00    +0.004 A 
ATOM     19  C   UNL     1      -2.151   2.235   0.462  0.00  0.00    +0.049 A 
ATOM     20  C   UNL     1      -1.004   1.456   0.493  0.00  0.00    +0.163 A 
ATOM     21  O   UNL     1       0.215   2.062   0.465  0.00  0.00    -0.480 OA
ENDBRANCH  11  12
ENDBRANCH   7  11
ENDBRANCH   2   4
ENDBRANCH   1   2
BRANCH   1  22
ATOM     22  O   UNL     1       2.368   9.018   2.646  0.00  0.00    -0.453 OA
BRANCH  22  23
ATOM     23  C   UNL     1       2.687   9.936   3.579  0.00  0.00    +0.341 C 
ATOM     24  O   UNL     1       3.299   9.603   4.574  0.00  0.00    -0.245 OA
BRANCH  23  30
ATOM     25  C   UNL     1       2.568  12.292   4.391  0.00  0.00    +0.045 A 
ATOM     26  C   UNL     1       2.195  13.617   4.201  0.00  0.00    +0.024 A 
ATOM     27  C   UNL     1       1.549  13.994   3.042  0.00  0.00    +0.002 A 
ATOM     28  C   UNL     1       1.271  13.059   2.057  0.00  0.00    +0.001 A 
ATOM     29  C   UNL     1       1.637  11.741   2.224  0.00  0.00    +0.017 A 
ATOM     30  C   UNL     1       2.293  11.343   3.393  0.00  0.00    +0.080 A 
BRANCH  25  31
ATOM     31  N   UNL     1       3.214  11.909   5.559  0.00  0.00    -0.314 N 
ATOM     32  H   UNL     1       2.700  11.738   6.364  0.00  0.00    +0.152 HD
BRANCH  31  38
ATOM     33  C   UNL     1       7.308  10.617   7.952  0.00  0.00    +0.044 C 
ATOM     34  C   UNL     1       6.616  11.146   6.723  0.00  0.00    -0.046 A 
ATOM     35  C   UNL     1       7.357  11.496   5.609  0.00  0.00    +0.004 A 
ATOM     36  C   UNL     1       6.726  11.983   4.479  0.00  0.00    +0.002 A 
ATOM     37  C   UNL     1       5.352  12.121   4.459  0.00  0.00    +0.023 A 
ATOM     38  C   UNL     1       4.604  11.770   5.576  0.00  0.00    +0.035 A 
ATOM     39  C   UNL     1       5.242  11.287   6.712  0.00  0.00    -0.026 A 
ATOM     40  C   UNL     1       4.435  10.910   7.928  0.00  0.00    +0.046 C 
ENDBRANCH  31  38
ENDBRANCH  25  31
ENDBRANCH  23  30
ENDBRANCH  22  23
ENDBRANCH   1  22
TORSDOF 9
