REMARK  Name = ZINC36525566
REMARK  15 active torsions:
REMARK  status: ('A' for Active; 'I' for Inactive)
REMARK    1  A    between atoms: C_1  and  C_2
REMARK    2  A    between atoms: C_2  and  C_3
REMARK    3  A    between atoms: C_3  and  C_4
REMARK    4  A    between atoms: C_4  and  N_5
REMARK    5  A    between atoms: C_6  and  C_8
REMARK    6  A    between atoms: C_8  and  C_10
REMARK    7  A    between atoms: C_8  and  N_19
REMARK    8  A    between atoms: C_11  and  O_18
REMARK    9  A    between atoms: C_13  and  O_17
REMARK   10  A    between atoms: C_15  and  O_16
REMARK   11  A    between atoms: N_19  and  C_20
REMARK   12  A    between atoms: C_21  and  C_23
REMARK   13  A    between atoms: C_31  and  C_33
REMARK   14  A    between atoms: C_34  and  C_35
REMARK   15  A    between atoms: C_34  and  C_36
REMARK                            x       y       z     vdW  Elec       q    Type
REMARK                         _______ _______ _______ _____ _____    ______ ____
ROOT
ATOM      1  C   UNL     1       2.678  -4.116   4.213  0.00  0.00    +0.199 C 
ENDROOT
BRANCH   1   2
ATOM      2  C   UNL     1       3.561  -3.049   4.806  0.00  0.00    +0.065 A 
ATOM      3  C   UNL     1       4.939  -3.146   4.690  0.00  0.00    +0.129 A 
ATOM      4  C   UNL     1       5.753  -2.164   5.236  0.00  0.00    +0.091 A 
ATOM      5  C   UNL     1       5.187  -1.085   5.897  0.00  0.00    +0.124 A 
ATOM      6  C   UNL     1       3.809  -0.986   6.012  0.00  0.00    +0.091 A 
ATOM      7  C   UNL     1       2.996  -1.966   5.463  0.00  0.00    +0.129 A 
BRANCH   7   8
ATOM      8  O   UNL     1       1.645  -1.868   5.572  0.00  0.00    -0.506 OA
ATOM      9  H   UNL     1       1.282  -2.286   6.365  0.00  0.00    +0.292 HD
ENDBRANCH   7   8
BRANCH   5  10
ATOM     10  O   UNL     1       5.984  -0.123   6.433  0.00  0.00    -0.507 OA
ATOM     11  H   UNL     1       6.183   0.605   5.828  0.00  0.00    +0.292 HD
ENDBRANCH   5  10
BRANCH   3  12
ATOM     12  O   UNL     1       5.494  -4.205   4.042  0.00  0.00    -0.506 OA
ATOM     13  H   UNL     1       5.699  -4.033   3.112  0.00  0.00    +0.292 HD
ENDBRANCH   3  12
ENDBRANCH   1   2
BRANCH   1  15
ATOM     14  N   UNL     1       3.472  -3.739   1.901  0.00  0.00    -0.313 N 
ATOM     15  C   UNL     1       3.276  -4.601   2.918  0.00  0.00    +0.238 C 
ATOM     16  O   UNL     1       3.581  -5.768   2.791  0.00  0.00    -0.273 OA
ATOM     17  H   UNL     1       3.228  -2.805   2.003  0.00  0.00    +0.149 HD
BRANCH  14  18
ATOM     18  C   UNL     1       4.054  -4.211   0.642  0.00  0.00    +0.104 C 
BRANCH  18  19
ATOM     19  C   UNL     1       4.168  -3.041  -0.337  0.00  0.00    +0.018 C 
BRANCH  19  21
ATOM     20  C   UNL     1       4.890  -2.364  -2.631  0.00  0.00    +0.004 C 
ATOM     21  C   UNL     1       4.776  -3.534  -1.652  0.00  0.00    -0.002 C 
ENDBRANCH  19  21
ENDBRANCH  18  19
ENDBRANCH  14  18
ENDBRANCH   1  15
BRANCH   1  22
ATOM     22  N   UNL     1       2.568  -5.236   5.151  0.00  0.00    -0.289 N 
ATOM     23  C   UNL     1       3.769  -5.971   5.558  0.00  0.00    +0.133 C 
ATOM     24  C   UNL     1       1.363  -5.591   5.639  0.00  0.00    +0.220 C 
ATOM     25  O   UNL     1       0.359  -5.046   5.232  0.00  0.00    -0.275 OA
BRANCH  24  26
ATOM     26  C   UNL     1       1.262  -6.673   6.700  0.00  0.00    +0.079 C 
ATOM     27  C   UNL     1       1.070  -8.018   6.008  0.00  0.00    +0.017 C 
ATOM     28  C   UNL     1       0.129  -8.947   6.774  0.00  0.00    -0.004 C 
ATOM     29  C   UNL     1      -1.267  -8.308   6.945  0.00  0.00    +0.008 C 
ATOM     30  C   UNL     1      -0.613  -7.576   8.144  0.00  0.00    -0.001 C 
ATOM     31  C   UNL     1       0.115  -6.331   7.641  0.00  0.00    +0.001 C 
ATOM     32  C   UNL     1       0.614  -5.482   8.816  0.00  0.00    +0.008 C 
ATOM     33  C   UNL     1       0.244  -8.834   8.300  0.00  0.00    -0.029 C 
ATOM     34  C   UNL     1       1.657  -8.649   8.844  0.00  0.00    +0.011 C 
ATOM     35  C   UNL     1      -0.483  -9.974   9.043  0.00  0.00    +0.011 C 
ENDBRANCH  24  26
ENDBRANCH   1  22
TORSDOF 10
