REMARK  Name = ZINC63376068
REMARK  5 active torsions:
REMARK  status: ('A' for Active; 'I' for Inactive)
REMARK    1  A    between atoms: C_2  and  C_3
REMARK    2  A    between atoms: C_3  and  N_4
REMARK    3  A    between atoms: C_5  and  C_7
REMARK    4  A    between atoms: C_12  and  N_13
REMARK    5  A    between atoms: C_29  and  C_34
REMARK                            x       y       z     vdW  Elec       q    Type
REMARK                         _______ _______ _______ _____ _____    ______ ____
ROOT
ATOM      1  N   UNL     1      -4.607  -4.213  -1.798  0.00  0.00    -0.192 N 
ATOM      2  C   UNL     1      -5.673  -3.402  -1.958  0.00  0.00    +0.248 C 
ATOM      3  O   UNL     1      -5.847  -2.587  -2.839  0.00  0.00    -0.273 OA
ATOM      4  C   UNL     1      -6.606  -3.721  -0.810  0.00  0.00    +0.169 C 
ATOM      5  C   UNL     1      -6.847  -2.457   0.033  0.00  0.00    +0.065 C 
ATOM      6  C   UNL     1      -7.232  -2.930   1.415  0.00  0.00    -0.034 C 
ATOM      7  C   UNL     1      -7.411  -2.254   2.545  0.00  0.00    -0.001 A 
ATOM      8  C   UNL     1      -7.390  -0.811   2.834  0.00  0.00    +0.010 A 
ATOM      9  C   UNL     1      -7.602  -0.458   4.130  0.00  0.00    +0.001 A 
ATOM     10  C   UNL     1      -7.828  -1.384   5.153  0.00  0.00    +0.002 A 
ATOM     11  C   UNL     1      -7.869  -2.728   4.976  0.00  0.00    +0.026 A 
ATOM     12  C   UNL     1      -7.668  -3.222   3.654  0.00  0.00    +0.043 A 
ATOM     13  N   UNL     1      -7.673  -4.441   3.201  0.00  0.00    -0.375 N 
ATOM     14  C   UNL     1      -7.476  -4.397   1.750  0.00  0.00    +0.131 C 
ATOM     15  C   UNL     1      -6.219  -5.171   1.330  0.00  0.00    +0.135 C 
ATOM     16  N   UNL     1      -5.833  -4.691  -0.007  0.00  0.00    -0.264 N 
ATOM     17  C   UNL     1      -4.722  -4.971  -0.699  0.00  0.00    +0.317 C 
ATOM     18  O   UNL     1      -3.911  -5.813  -0.368  0.00  0.00    -0.252 OA
ATOM     19  H   UNL     1      -7.789  -5.243   3.734  0.00  0.00    +0.160 HD
ENDROOT
BRANCH  15  20
ATOM     20  C   UNL     1      -6.526  -6.644   1.255  0.00  0.00    -0.025 A 
ATOM     21  C   UNL     1      -7.162  -7.162   0.143  0.00  0.00    +0.008 A 
ATOM     22  C   UNL     1      -7.443  -8.513   0.073  0.00  0.00    +0.038 A 
ATOM     23  C   UNL     1      -7.087  -9.349   1.118  0.00  0.00    +0.123 A 
ATOM     24  C   UNL     1      -6.450  -8.829   2.232  0.00  0.00    +0.038 A 
ATOM     25  C   UNL     1      -6.165  -7.479   2.297  0.00  0.00    +0.008 A 
ATOM     26  F   UNL     1      -7.362 -10.670   1.051  0.00  0.00    -0.205 F 
ENDBRANCH  15  20
BRANCH   1  32
ATOM     27  C   UNL     1      -2.411  -3.429  -2.466  0.00  0.00    +0.059 A 
ATOM     28  C   UNL     1      -1.328  -3.491  -3.346  0.00  0.00    +0.015 A 
ATOM     29  C   UNL     1      -1.357  -4.363  -4.412  0.00  0.00    +0.001 A 
ATOM     30  C   UNL     1      -2.457  -5.180  -4.618  0.00  0.00    +0.002 A 
ATOM     31  C   UNL     1      -3.535  -5.130  -3.756  0.00  0.00    +0.025 A 
ATOM     32  C   UNL     1      -3.520  -4.262  -2.674  0.00  0.00    +0.058 A 
BRANCH  27  34
ATOM     33  N   UNL     1      -1.318  -1.700  -1.126  0.00  0.00    -0.308 N 
ATOM     34  C   UNL     1      -2.386  -2.498  -1.322  0.00  0.00    +0.246 C 
ATOM     35  O   UNL     1      -3.328  -2.451  -0.555  0.00  0.00    -0.270 OA
ATOM     36  H   UNL     1      -0.566  -1.737  -1.737  0.00  0.00    +0.149 HD
BRANCH  33  37
ATOM     37  C   UNL     1      -1.293  -0.775   0.010  0.00  0.00    +0.131 C 
BRANCH  37  39
ATOM     38  C   UNL     1      -0.016   1.306   0.009  0.00  0.00    +0.005 C 
ATOM     39  C   UNL     1       0.002  -0.004   0.002  0.00  0.00    -0.016 C 
ENDBRANCH  37  39
ENDBRANCH  33  37
ENDBRANCH  27  34
ENDBRANCH   1  32
TORSDOF 5
