REMARK  Name = ZINC22298242
REMARK  9 active torsions:
REMARK  status: ('A' for Active; 'I' for Inactive)
REMARK    1  A    between atoms: C_1  and  C_2
REMARK    2  A    between atoms: C_2  and  O_3
REMARK    3  A    between atoms: O_3  and  C_4
REMARK    4  A    between atoms: C_11  and  C_18
REMARK    5  A    between atoms: C_13  and  O_14
REMARK    6  A    between atoms: C_18  and  S_19
REMARK    7  A    between atoms: S_19  and  C_20
REMARK    8  A    between atoms: C_23  and  C_26
REMARK    9  A    between atoms: N_24  and  C_25
REMARK                            x       y       z     vdW  Elec       q    Type
REMARK                         _______ _______ _______ _____ _____    ______ ____
ROOT
ATOM      1  C   UNL     1       5.871  -3.032   8.555  0.00  0.00    +0.405 C 
ATOM      2  O   UNL     1       6.042  -1.964   9.110  0.00  0.00    -0.226 OA
ATOM      3  N   UNL     1       5.072  -3.108   7.472  0.00  0.00    -0.251 N 
ATOM      4  C   UNL     1       4.527  -1.946   6.925  0.00  0.00    +0.040 A 
ATOM      5  C   UNL     1       3.257  -1.984   6.347  0.00  0.00    +0.024 A 
ATOM      6  C   UNL     1       2.711  -0.856   5.807  0.00  0.00    +0.013 A 
ATOM      7  C   UNL     1       3.426   0.347   5.838  0.00  0.00    +0.022 A 
ATOM      8  C   UNL     1       2.866   1.571   5.260  0.00  0.00    -0.020 A 
ATOM      9  C   UNL     1       3.611   2.706   5.315  0.00  0.00    +0.092 A 
ATOM     10  C   UNL     1       4.888   2.678   5.913  0.00  0.00    +0.285 A 
ATOM     11  O   UNL     1       5.397   1.552   6.436  0.00  0.00    -0.425 OA
ATOM     12  C   UNL     1       4.709   0.390   6.414  0.00  0.00    +0.141 A 
ATOM     13  C   UNL     1       5.250  -0.764   6.958  0.00  0.00    +0.070 A 
ATOM     14  H   UNL     1       4.850  -4.086   7.020  0.00  0.00    +0.158 HD
ENDROOT
BRANCH  10  15
ATOM     15  O   UNL     1       5.545   3.703   5.957  0.00  0.00    -0.480 OA
ATOM     16  H   UNL     1       6.543   3.697   6.420  0.00  0.00    +0.295 HD
ENDBRANCH  10  15
BRANCH   1  17
ATOM     17  O   UNL     1       6.480  -4.138   9.022  0.00  0.00    -0.450 OA
BRANCH  17  19
ATOM     18  C   UNL     1       7.927  -5.336  10.571  0.00  0.00    +0.048 C 
ATOM     19  C   UNL     1       7.326  -3.982  10.191  0.00  0.00    +0.230 C 
ENDBRANCH  17  19
ENDBRANCH   1  17
BRANCH   8  20
ATOM     20  C   UNL     1       1.499   1.573   4.627  0.00  0.00    +0.113 C 
BRANCH  20  21
ATOM     21  S   UNL     1       1.650   1.189   2.864  0.00  0.00    -0.081 S 
BRANCH  21  22
ATOM     22  C   UNL     1      -0.046   1.256   2.390  0.00  0.00    +0.192 A 
ATOM     23  N   UNL     1      -1.065   1.521   3.176  0.00  0.00    -0.122 NA
ATOM     24  N   UNL     1      -2.161   1.488   2.505  0.00  0.00    -0.128 NA
ATOM     25  C   UNL     1      -1.908   1.206   1.248  0.00  0.00    +0.167 A 
ATOM     26  N   UNL     1      -0.546   1.043   1.137  0.00  0.00    -0.305 N 
ATOM     27  C   UNL     1       0.210   0.716  -0.074  0.00  0.00    +0.153 C 
BRANCH  25  28
ATOM     28  C   UNL     1      -2.899   1.082   0.159  0.00  0.00    +0.054 A 
ATOM     29  C   UNL     1      -2.848  -0.004  -0.716  0.00  0.00    +0.014 A 
ATOM     30  C   UNL     1      -3.777  -0.114  -1.730  0.00  0.00    +0.001 A 
ATOM     31  C   UNL     1      -4.758   0.850  -1.882  0.00  0.00    +0.003 A 
ATOM     32  C   UNL     1      -4.816   1.930  -1.020  0.00  0.00    +0.039 A 
ATOM     33  C   UNL     1      -3.896   2.050   0.004  0.00  0.00    +0.134 A 
ATOM     34  F   UNL     1      -3.956   3.102   0.849  0.00  0.00    -0.205 F 
ENDBRANCH  25  28
ENDBRANCH  21  22
ENDBRANCH  20  21
ENDBRANCH   8  20
TORSDOF 7
