REMARK  Name = ZINC36448828
REMARK  8 active torsions:
REMARK  status: ('A' for Active; 'I' for Inactive)
REMARK    1  A    between atoms: C_1  and  C_2
REMARK    2  A    between atoms: C_5  and  C_9
REMARK    3  A    between atoms: C_7  and  C_8
REMARK    4  A    between atoms: C_9  and  C_10
REMARK    5  A    between atoms: C_9  and  N_11
REMARK    6  A    between atoms: C_12  and  C_14
REMARK    7  A    between atoms: C_14  and  N_15
REMARK    8  A    between atoms: C_19  and  C_20
REMARK                            x       y       z     vdW  Elec       q    Type
REMARK                         _______ _______ _______ _____ _____    ______ ____
ROOT
ATOM      1  N   UNL     1       2.933  -7.788  -1.759  0.00  0.00    +0.390 N 
ATOM      2  C   UNL     1       3.794  -7.717  -0.565  0.00  0.00    -0.077 C 
ATOM      3  C   UNL     1       5.184  -8.251  -0.971  0.00  0.00    -0.020 C 
ATOM      4  C   UNL     1       4.873  -9.123  -2.216  0.00  0.00    -0.013 C 
ATOM      5  C   UNL     1       3.732  -8.317  -2.885  0.00  0.00    -0.037 C 
ATOM      6  H   UNL     1       2.154  -8.403  -1.578  0.00  0.00    -0.080 HD
ENDROOT
BRANCH   5   7
ATOM      7  C   UNL     1       2.889  -9.220  -3.748  0.00  0.00    -0.057 A 
ATOM      8  C   UNL     1       1.986 -10.087  -3.163  0.00  0.00    +0.006 A 
ATOM      9  C   UNL     1       1.208 -10.919  -3.949  0.00  0.00    +0.049 A 
ATOM     10  C   UNL     1       1.338 -10.879  -5.327  0.00  0.00    +0.162 A 
ATOM     11  C   UNL     1       2.244 -10.008  -5.915  0.00  0.00    +0.162 A 
ATOM     12  C   UNL     1       3.018  -9.174  -5.125  0.00  0.00    +0.051 A 
ATOM     13  O   UNL     1       2.364  -9.976  -7.274  0.00  0.00    -0.488 OA
ATOM     14  C   UNL     1       2.929 -11.141  -7.879  0.00  0.00    +0.232 C 
ATOM     15  C   UNL     1       1.863 -12.200  -8.110  0.00  0.00    +0.082 C 
ATOM     16  C   UNL     1       1.278 -12.726  -6.808  0.00  0.00    +0.232 C 
ATOM     17  O   UNL     1       0.576 -11.693  -6.114  0.00  0.00    -0.488 OA
ENDBRANCH   5   7
BRANCH   1  18
ATOM     18  C   UNL     1       2.437  -6.446  -2.092  0.00  0.00    +0.019 C 
BRANCH  18  20
ATOM     19  N   UNL     1       0.948  -4.746  -1.087  0.00  0.00    -0.310 N 
ATOM     20  C   UNL     1       1.524  -5.962  -0.996  0.00  0.00    +0.197 C 
ATOM     21  O   UNL     1       1.306  -6.665  -0.033  0.00  0.00    -0.278 OA
ATOM     22  H   UNL     1       1.121  -4.184  -1.858  0.00  0.00    +0.149 HD
BRANCH  19  23
ATOM     23  C   UNL     1       0.059  -4.275  -0.021  0.00  0.00    +0.100 C 
ATOM     24  C   UNL     1      -1.356  -4.802  -0.267  0.00  0.00    +0.033 C 
BRANCH  23  29
ATOM     25  C   UNL     1      -0.018   1.503   0.010  0.00  0.00    +0.044 C 
ATOM     26  C   UNL     1       0.002  -0.004   0.002  0.00  0.00    -0.048 A 
ATOM     27  C   UNL     1       0.006  -0.689  -1.199  0.00  0.00    +0.004 A 
ATOM     28  C   UNL     1       0.025  -2.071  -1.207  0.00  0.00    +0.006 A 
ATOM     29  C   UNL     1       0.040  -2.768  -0.013  0.00  0.00    -0.027 A 
ATOM     30  C   UNL     1       0.037  -2.084   1.188  0.00  0.00    +0.009 A 
ATOM     31  C   UNL     1       0.023  -0.702   1.195  0.00  0.00    -0.047 A 
ATOM     32  C   UNL     1       0.025   0.045   2.504  0.00  0.00    +0.044 C 
ENDBRANCH  23  29
ENDBRANCH  19  23
ENDBRANCH  18  20
ENDBRANCH   1  18
TORSDOF 5
