REMARK  Name = ZINC20764812
REMARK  6 active torsions:
REMARK  status: ('A' for Active; 'I' for Inactive)
REMARK    1  A    between atoms: C_1  and  C_2
REMARK    2  A    between atoms: C_2  and  C_3
REMARK    3  A    between atoms: C_6  and  C_9
REMARK    4  A    between atoms: C_11  and  C_25
REMARK    5  A    between atoms: C_14  and  C_17
REMARK    6  A    between atoms: C_22  and  O_23
REMARK                            x       y       z     vdW  Elec       q    Type
REMARK                         _______ _______ _______ _____ _____    ______ ____
ROOT
ATOM      1  C   UNL     1       5.079   1.628  -1.910  0.00  0.00    +0.040 C 
ATOM      2  N   UNL     1       4.692   1.403  -0.711  0.00  0.00    -0.299 NA
ATOM      3  C   UNL     1       3.672   2.184  -0.021  0.00  0.00    +0.081 C 
ATOM      4  N   UNL     1       3.464   3.472  -0.693  0.00  0.00    +0.401 N 
ATOM      5  C   UNL     1       3.231   3.264  -2.132  0.00  0.00    -0.028 C 
ATOM      6  C   UNL     1       4.530   2.743  -2.755  0.00  0.00    +0.044 C 
ATOM      7  H   UNL     1       2.589   3.976  -0.257  0.00  0.00    -0.081 HD
ATOM      8  H   UNL     1       4.355   4.103  -0.560  0.00  0.00    -0.081 HD
ENDROOT
BRANCH   3   9
ATOM      9  C   UNL     1       2.378   1.413  -0.013  0.00  0.00    -0.039 A 
ATOM     10  C   UNL     1       2.397   0.030  -0.021  0.00  0.00    +0.006 A 
ATOM     11  C   UNL     1       1.211  -0.679  -0.013  0.00  0.00    +0.040 A 
ATOM     12  C   UNL     1       0.002  -0.004   0.002  0.00  0.00    +0.137 A 
ATOM     13  C   UNL     1      -0.017   1.381   0.010  0.00  0.00    +0.053 A 
ATOM     14  C   UNL     1       1.172   2.088   0.002  0.00  0.00    +0.022 A 
ATOM     15 BR   UNL     1      -1.667   2.305   0.022  0.00  0.00    -0.047 Br
ATOM     16  F   UNL     1      -1.158  -0.696   0.009  0.00  0.00    -0.204 F 
ENDBRANCH   3   9
BRANCH   5  17
ATOM     17  C   UNL     1       2.845   4.569  -2.779  0.00  0.00    -0.018 A 
ATOM     18  C   UNL     1       3.210   5.766  -2.192  0.00  0.00    +0.025 A 
ATOM     19  C   UNL     1       2.860   6.965  -2.788  0.00  0.00    +0.041 A 
ATOM     20  C   UNL     1       2.135   6.968  -3.966  0.00  0.00    +0.023 A 
ATOM     21  C   UNL     1       1.764   5.774  -4.553  0.00  0.00    +0.047 A 
ATOM     22  C   UNL     1       2.118   4.571  -3.960  0.00  0.00    +0.119 A 
ATOM     23 CL   UNL     1       3.325   8.467  -2.053  0.00  0.00    -0.084 Cl
BRANCH  22  24
ATOM     24  O   UNL     1       1.754   3.394  -4.535  0.00  0.00    -0.507 OA
ATOM     25  H   UNL     1       1.177   3.396  -5.472  0.00  0.00    +0.292 HD
ENDBRANCH  22  24
ENDBRANCH   5  17
BRANCH   1  29
ATOM     26  C   UNL     1       8.055  -0.898  -3.580  0.00  0.00    -0.048 A 
ATOM     27  C   UNL     1       7.616  -1.114  -2.286  0.00  0.00    +0.004 A 
ATOM     28  C   UNL     1       6.649  -0.297  -1.737  0.00  0.00    +0.010 A 
ATOM     29  C   UNL     1       6.114   0.750  -2.490  0.00  0.00    -0.004 A 
ATOM     30  C   UNL     1       6.559   0.959  -3.798  0.00  0.00    +0.010 A 
ATOM     31  C   UNL     1       7.530   0.138  -4.332  0.00  0.00    +0.004 A 
BRANCH  26  33
ATOM     32  C   UNL     1       8.442  -2.980  -4.870  0.00  0.00    +0.009 C 
ATOM     33  C   UNL     1       9.112  -1.795  -4.173  0.00  0.00    +0.032 C 
ENDBRANCH  26  33
ENDBRANCH   1  29
TORSDOF 5
