REMARK  Name = ZINC52637679
REMARK  8 active torsions:
REMARK  status: ('A' for Active; 'I' for Inactive)
REMARK    1  A    between atoms: C_1  and  C_2
REMARK    2  A    between atoms: C_2  and  C_3
REMARK    3  A    between atoms: C_2  and  C_4
REMARK    4  A    between atoms: C_2  and  C_5
REMARK    5  A    between atoms: C_5  and  N_6
REMARK    6  A    between atoms: C_12  and  C_15
REMARK    7  A    between atoms: C_16  and  C_29
REMARK    8  A    between atoms: C_18  and  C_21
REMARK                            x       y       z     vdW  Elec       q    Type
REMARK                         _______ _______ _______ _____ _____    ______ ____
ROOT
ATOM      1  C   UNL     1       4.495  -3.272   1.522  0.00  0.00    +0.113 A 
ATOM      2  C   UNL     1       5.359  -4.333   1.305  0.00  0.00    +0.076 A 
ATOM      3  N   UNL     1       4.972  -5.332   2.168  0.00  0.00    -0.337 N 
ATOM      4  C   UNL     1       3.903  -4.862   2.876  0.00  0.00    +0.142 A 
ATOM      5  N   UNL     1       3.634  -3.637   2.486  0.00  0.00    -0.226 NA
ATOM      6  H   UNL     1       5.382  -6.207   2.258  0.00  0.00    +0.167 HD
ENDROOT
BRANCH   1  13
ATOM      7  N   UNL     1       2.361   0.254  -1.121  0.00  0.00    -0.299 N 
ATOM      8  C   UNL     1       2.873   1.530  -1.634  0.00  0.00    +0.211 C 
ATOM      9  N   UNL     1       4.274   1.602  -1.200  0.00  0.00    -0.326 N 
ATOM     10  C   UNL     1       4.543   0.431  -0.480  0.00  0.00    +0.067 A 
ATOM     11  C   UNL     1       3.401  -0.368  -0.429  0.00  0.00    +0.122 A 
ATOM     12  N   UNL     1       3.426  -1.530   0.211  0.00  0.00    -0.340 N 
ATOM     13  C   UNL     1       4.521  -1.968   0.822  0.00  0.00    +0.068 A 
ATOM     14  C   UNL     1       5.693  -1.216   0.812  0.00  0.00    +0.030 A 
ATOM     15  C   UNL     1       5.708  -0.001   0.146  0.00  0.00    +0.028 A 
ATOM     16  H   UNL     1       4.896   2.324  -1.379  0.00  0.00    +0.148 HD
ATOM     17  H   UNL     1       2.623  -2.073   0.234  0.00  0.00    +0.167 HD
BRANCH   7  18
ATOM     18  C   UNL     1       1.004  -0.269  -1.298  0.00  0.00    +0.114 C 
BRANCH  18  20
ATOM     19  C   UNL     1       0.092   1.662   0.000  0.00  0.00    +0.012 C 
ATOM     20  C   UNL     1       0.142   0.136  -0.100  0.00  0.00    -0.022 C 
ATOM     21  C   UNL     1       0.747  -0.440   1.182  0.00  0.00    +0.012 C 
ATOM     22  C   UNL     1      -1.276  -0.410  -0.284  0.00  0.00    +0.012 C 
ENDBRANCH  18  20
ENDBRANCH   7  18
ENDBRANCH   1  13
BRANCH   4  23
ATOM     23  C   UNL     1       3.169  -5.610   3.918  0.00  0.00    +0.054 A 
ATOM     24  C   UNL     1       3.434  -6.965   4.126  0.00  0.00    +0.053 A 
ATOM     25  C   UNL     1       2.745  -7.658   5.102  0.00  0.00    +0.021 A 
ATOM     26  C   UNL     1       1.794  -7.013   5.872  0.00  0.00    +0.003 A 
ATOM     27  C   UNL     1       1.525  -5.671   5.670  0.00  0.00    +0.021 A 
ATOM     28  C   UNL     1       2.211  -4.964   4.702  0.00  0.00    +0.053 A 
ATOM     29 CL   UNL     1       1.878  -3.278   4.456  0.00  0.00    -0.083 Cl
ATOM     30 CL   UNL     1       4.627  -7.777   3.161  0.00  0.00    -0.083 Cl
ENDBRANCH   4  23
BRANCH   2  31
ATOM     31  C   UNL     1       6.473  -4.383   0.338  0.00  0.00    +0.001 A 
ATOM     32  C   UNL     1       6.276  -3.967  -0.981  0.00  0.00    +0.013 A 
ATOM     33  C   UNL     1       7.321  -4.016  -1.879  0.00  0.00    +0.039 A 
ATOM     34  C   UNL     1       8.565  -4.476  -1.476  0.00  0.00    +0.123 A 
ATOM     35  C   UNL     1       8.766  -4.891  -0.169  0.00  0.00    +0.039 A 
ATOM     36  C   UNL     1       7.731  -4.840   0.740  0.00  0.00    +0.013 A 
ATOM     37  F   UNL     1       9.584  -4.522  -2.361  0.00  0.00    -0.205 F 
ENDBRANCH   2  31
TORSDOF 5
