REMARK  Name = ZINC39531010
REMARK  11 active torsions:
REMARK  status: ('A' for Active; 'I' for Inactive)
REMARK    1  A    between atoms: C_1  and  C_2
REMARK    2  A    between atoms: C_2  and  O_3
REMARK    3  A    between atoms: O_3  and  N_4
REMARK    4  A    between atoms: N_4  and  C_5
REMARK    5  A    between atoms: C_5  and  C_6
REMARK    6  A    between atoms: C_6  and  C_8
REMARK    7  A    between atoms: C_6  and  N_21
REMARK    8  A    between atoms: C_11  and  C_14
REMARK    9  A    between atoms: C_14  and  C_15
REMARK   10  A    between atoms: C_25  and  C_28
REMARK   11  A    between atoms: C_28  and  C_29
REMARK                            x       y       z     vdW  Elec       q    Type
REMARK                         _______ _______ _______ _____ _____    ______ ____
ROOT
ATOM      1  C   UNL     1       1.616  -3.843  -2.529  0.00  0.00    +0.103 C 
ENDROOT
BRANCH   1   2
ATOM      2  N   UNL     1       0.290  -4.472  -2.472  0.00  0.00    -0.297 NA
ATOM      3  C   UNL     1      -0.730  -3.606  -3.081  0.00  0.00    +0.066 C 
ATOM      4  C   UNL     1      -2.083  -4.321  -3.056  0.00  0.00    -0.067 C 
ATOM      5  N   UNL     1      -2.446  -4.632  -1.667  0.00  0.00    +0.383 N 
ATOM      6  C   UNL     1      -1.431  -5.517  -1.080  0.00  0.00    -0.053 C 
ATOM      7  C   UNL     1      -0.073  -4.812  -1.089  0.00  0.00    +0.069 C 
ATOM      8  H   UNL     1      -2.497  -3.777  -1.133  0.00  0.00    -0.085 HD
ATOM      9  H   UNL     1      -3.344  -5.093  -1.649  0.00  0.00    -0.085 HD
BRANCH   6  10
ATOM     10  C   UNL     1      -1.821  -5.855   0.361  0.00  0.00    +0.020 C 
BRANCH  10  11
ATOM     11  C   UNL     1      -3.097  -6.656   0.361  0.00  0.00    -0.049 A 
ATOM     12  C   UNL     1      -4.318  -6.012   0.421  0.00  0.00    +0.003 A 
ATOM     13  C   UNL     1      -5.489  -6.747   0.422  0.00  0.00    +0.000 A 
ATOM     14  C   UNL     1      -5.438  -8.127   0.362  0.00  0.00    +0.000 A 
ATOM     15  C   UNL     1      -4.216  -8.772   0.301  0.00  0.00    +0.000 A 
ATOM     16  C   UNL     1      -3.046  -8.036   0.296  0.00  0.00    +0.003 A 
ENDBRANCH  10  11
ENDBRANCH   6  10
ENDBRANCH   1   2
BRANCH   1  17
ATOM     17  C   UNL     1       2.310  -4.249  -3.803  0.00  0.00    -0.029 A 
ATOM     18  C   UNL     1       1.622  -4.231  -5.002  0.00  0.00    +0.005 A 
ATOM     19  C   UNL     1       2.259  -4.603  -6.170  0.00  0.00    +0.004 A 
ATOM     20  C   UNL     1       3.584  -4.993  -6.141  0.00  0.00    -0.043 A 
ATOM     21  C   UNL     1       4.273  -5.011  -4.943  0.00  0.00    +0.004 A 
ATOM     22  C   UNL     1       3.638  -4.634  -3.775  0.00  0.00    +0.005 A 
BRANCH  20  23
ATOM     23  C   UNL     1       4.279  -5.400  -7.415  0.00  0.00    +0.070 C 
BRANCH  23  24
ATOM     24  C   UNL     1       4.911  -4.190  -8.052  0.00  0.00    -0.043 A 
ATOM     25  C   UNL     1       4.191  -3.428  -8.953  0.00  0.00    +0.004 A 
ATOM     26  C   UNL     1       4.771  -2.317  -9.537  0.00  0.00    +0.000 A 
ATOM     27  C   UNL     1       6.071  -1.968  -9.219  0.00  0.00    +0.000 A 
ATOM     28  C   UNL     1       6.790  -2.730  -8.317  0.00  0.00    +0.000 A 
ATOM     29  C   UNL     1       6.208  -3.838  -7.730  0.00  0.00    +0.004 A 
ENDBRANCH  23  24
ENDBRANCH  20  23
ENDBRANCH   1  17
BRANCH   1  30
ATOM     30  C   UNL     1       1.461  -2.321  -2.495  0.00  0.00    +0.134 C 
BRANCH  30  31
ATOM     31  N   UNL     1       0.844  -1.919  -1.224  0.00  0.00    -0.199 NA
ATOM     32  H   UNL     1      -0.074  -2.326  -1.123  0.00  0.00    +0.154 HD
BRANCH  31  33
ATOM     33  O   UNL     1       0.789  -0.462  -1.105  0.00  0.00    -0.300 OA
BRANCH  33  35
ATOM     34  C   UNL     1       0.194   1.530   0.128  0.00  0.00    +0.036 C 
ATOM     35  C   UNL     1       0.199  -0.000   0.112  0.00  0.00    +0.182 C 
ENDBRANCH  33  35
ENDBRANCH  31  33
ENDBRANCH  30  31
ENDBRANCH   1  30
TORSDOF 10
