REMARK  Name = ZINC40947417
REMARK  11 active torsions:
REMARK  status: ('A' for Active; 'I' for Inactive)
REMARK    1  A    between atoms: C_1  and  C_2
REMARK    2  A    between atoms: C_2  and  O_3
REMARK    3  A    between atoms: O_3  and  C_4
REMARK    4  A    between atoms: C_4  and  C_6
REMARK    5  A    between atoms: C_7  and  C_30
REMARK    6  A    between atoms: C_10  and  N_11
REMARK    7  A    between atoms: C_12  and  C_14
REMARK    8  A    between atoms: C_14  and  O_15
REMARK    9  A    between atoms: O_15  and  C_16
REMARK   10  A    between atoms: C_33  and  O_36
REMARK   11  A    between atoms: O_36  and  C_37
REMARK                            x       y       z     vdW  Elec       q    Type
REMARK                         _______ _______ _______ _____ _____    ______ ____
ROOT
ATOM      1  N   UNL     1      -3.041  -2.527   2.495  0.00  0.00    -0.277 N 
ATOM      2  C   UNL     1      -3.819  -2.872   3.540  0.00  0.00    +0.255 C 
ATOM      3  O   UNL     1      -4.920  -3.342   3.348  0.00  0.00    -0.272 OA
ATOM      4  H   UNL     1      -2.160  -2.151   2.649  0.00  0.00    +0.155 HD
ENDROOT
BRANCH   1   9
ATOM      5  C   UNL     1      -2.841  -2.416   0.016  0.00  0.00    +0.095 A 
ATOM      6  C   UNL     1      -3.552  -2.716  -1.214  0.00  0.00    +0.005 A 
ATOM      7  C   UNL     1      -4.791  -3.249  -1.056  0.00  0.00    +0.056 A 
ATOM      8  S   UNL     1      -4.977  -3.336   0.712  0.00  0.00    -0.080 S 
ATOM      9  C   UNL     1      -3.499  -2.710   1.200  0.00  0.00    +0.086 A 
BRANCH   6  10
ATOM     10  C   UNL     1      -2.966  -2.457  -2.551  0.00  0.00    -0.016 A 
ATOM     11  C   UNL     1      -2.407  -1.213  -2.840  0.00  0.00    +0.012 A 
ATOM     12  C   UNL     1      -1.862  -0.976  -4.084  0.00  0.00    +0.046 A 
ATOM     13  C   UNL     1      -1.870  -1.974  -5.049  0.00  0.00    +0.120 A 
ATOM     14  C   UNL     1      -2.426  -3.214  -4.765  0.00  0.00    +0.046 A 
ATOM     15  C   UNL     1      -2.968  -3.460  -3.520  0.00  0.00    +0.012 A 
BRANCH  13  16
ATOM     16  O   UNL     1      -1.333  -1.737  -6.275  0.00  0.00    -0.495 OA
ATOM     17  C   UNL     1      -1.375  -2.808  -7.220  0.00  0.00    +0.277 C 
ENDBRANCH  13  16
ENDBRANCH   6  10
BRANCH   5  18
ATOM     18  C   UNL     1      -1.497  -1.838   0.006  0.00  0.00    +0.342 C 
ATOM     19  O   UNL     1      -0.522  -2.566  -0.007  0.00  0.00    -0.245 OA
BRANCH  18  20
ATOM     20  O   UNL     1      -1.339  -0.499   0.012  0.00  0.00    -0.461 OA
BRANCH  20  22
ATOM     21  C   UNL     1      -0.019   1.526   0.010  0.00  0.00    +0.048 C 
ATOM     22  C   UNL     1       0.002  -0.004   0.002  0.00  0.00    +0.229 C 
ENDBRANCH  20  22
ENDBRANCH  18  20
ENDBRANCH   5  18
ENDBRANCH   1   9
BRANCH   2  23
ATOM     23  C   UNL     1      -3.321  -2.672   4.948  0.00  0.00    +0.324 C 
BRANCH  23  24
ATOM     24  O   UNL     1      -4.319  -3.110   5.873  0.00  0.00    -0.483 OA
BRANCH  24  25
ATOM     25  C   UNL     1      -4.026  -2.998   7.194  0.00  0.00    +0.125 A 
ATOM     26  C   UNL     1      -2.798  -2.469   7.588  0.00  0.00    +0.046 A 
ATOM     27  C   UNL     1      -2.489  -2.349   8.911  0.00  0.00    +0.015 A 
ATOM     28  C   UNL     1      -3.411  -2.761   9.880  0.00  0.00    +0.021 A 
ATOM     29  C   UNL     1      -4.652  -3.296   9.489  0.00  0.00    +0.143 A 
ATOM     30  C   UNL     1      -4.953  -3.405   8.140  0.00  0.00    +0.092 A 
ATOM     31  O   UNL     1      -5.537  -3.692  10.429  0.00  0.00    -0.422 OA
ATOM     32  C   UNL     1      -5.260  -3.596  11.737  0.00  0.00    +0.341 A 
ATOM     33  O   UNL     1      -6.087  -3.976  12.547  0.00  0.00    -0.245 OA
ATOM     34  C   UNL     1      -4.035  -3.066  12.203  0.00  0.00    +0.041 A 
ATOM     35  C   UNL     1      -3.106  -2.646  11.309  0.00  0.00    -0.027 A 
ATOM     36  C   UNL     1      -1.885  -2.119  12.027  0.00  0.00    +0.036 C 
ATOM     37  C   UNL     1      -2.351  -1.869  13.478  0.00  0.00    +0.010 C 
ATOM     38  C   UNL     1      -3.525  -2.864  13.614  0.00  0.00    +0.043 C 
ENDBRANCH  24  25
ENDBRANCH  23  24
ENDBRANCH   2  23
TORSDOF 9
