REMARK  Name = ZINC12556086
REMARK  6 active torsions:
REMARK  status: ('A' for Active; 'I' for Inactive)
REMARK    1  A    between atoms: C_4  and  S_7
REMARK    2  A    between atoms: S_7  and  O_10
REMARK    3  A    between atoms: O_10  and  C_11
REMARK    4  A    between atoms: C_14  and  C_17
REMARK    5  A    between atoms: N_18  and  N_19
REMARK    6  A    between atoms: C_22  and  C_25
REMARK                            x       y       z     vdW  Elec       q    Type
REMARK                         _______ _______ _______ _____ _____    ______ ____
ROOT
ATOM      1  C   UNL     1       6.183   3.577  -4.063  0.00  0.00    +0.138 C 
ATOM      2  N   UNL     1       5.349   4.366  -4.669  0.00  0.00    -0.188 NA
ENDROOT
BRANCH   2   3
ATOM      3  N   UNL     1       5.817   5.521  -5.309  0.00  0.00    -0.215 N 
ATOM      4  C   UNL     1       4.928   6.363  -5.955  0.00  0.00    +0.178 A 
ATOM      5  N   UNL     1       5.164   7.489  -6.605  0.00  0.00    -0.224 NA
ATOM      6  C   UNL     1       4.182   8.173  -7.174  0.00  0.00    +0.082 A 
ATOM      7  C   UNL     1       2.899   7.711  -7.077  0.00  0.00    +0.077 A 
ATOM      8  S   UNL     1       3.154   6.219  -6.125  0.00  0.00    -0.059 S 
ATOM      9  H   UNL     1       6.764   5.731  -5.300  0.00  0.00    +0.176 HD
BRANCH   6  10
ATOM     10  C   UNL     1       4.472   9.431  -7.904  0.00  0.00    +0.019 A 
ATOM     11  C   UNL     1       3.436  10.147  -8.501  0.00  0.00    +0.013 A 
ATOM     12  C   UNL     1       3.710  11.320  -9.174  0.00  0.00    +0.021 A 
ATOM     13  C   UNL     1       5.012  11.780  -9.268  0.00  0.00    +0.042 A 
ATOM     14  C   UNL     1       6.046  11.071  -8.681  0.00  0.00    +0.040 A 
ATOM     15  C   UNL     1       5.782   9.898  -8.000  0.00  0.00    +0.052 A 
ATOM     16 CL   UNL     1       7.079   9.008  -7.266  0.00  0.00    -0.083 Cl
ATOM     17 CL   UNL     1       5.350  13.253 -10.123  0.00  0.00    -0.083 Cl
ENDBRANCH   6  10
ENDBRANCH   2   3
BRANCH   1  21
ATOM     18  C   UNL     1       4.765   0.077  -2.123  0.00  0.00    +0.157 A 
ATOM     19  C   UNL     1       3.872   0.917  -2.775  0.00  0.00    +0.049 A 
ATOM     20  C   UNL     1       4.327   2.057  -3.401  0.00  0.00    +0.013 A 
ATOM     21  C   UNL     1       5.691   2.361  -3.389  0.00  0.00    -0.005 A 
ATOM     22  C   UNL     1       6.587   1.510  -2.737  0.00  0.00    +0.013 A 
ATOM     23  C   UNL     1       6.122   0.375  -2.108  0.00  0.00    +0.049 A 
BRANCH  18  24
ATOM     24  O   UNL     1       4.312  -1.043  -1.501  0.00  0.00    -0.342 OA
BRANCH  24  25
ATOM     25  S   UNL     1       3.934  -0.832  -0.042  0.00  0.00    +0.151 S 
ATOM     26  O   UNL     1       4.902   0.054   0.504  0.00  0.00    -0.131 OA
ATOM     27  O   UNL     1       3.686  -2.120   0.504  0.00  0.00    -0.131 OA
BRANCH  25  31
ATOM     28  C   UNL     1      -0.017   1.378   0.010  0.00  0.00    +0.000 A 
ATOM     29  C   UNL     1       1.171   2.086   0.002  0.00  0.00    +0.002 A 
ATOM     30  C   UNL     1       2.377   1.411  -0.014  0.00  0.00    +0.030 A 
ATOM     31  C   UNL     1       2.396   0.029  -0.022  0.00  0.00    +0.128 A 
ATOM     32  C   UNL     1       1.208  -0.679  -0.014  0.00  0.00    +0.030 A 
ATOM     33  C   UNL     1       0.002  -0.004   0.002  0.00  0.00    +0.002 A 
ENDBRANCH  25  31
ENDBRANCH  24  25
ENDBRANCH  18  24
ENDBRANCH   1  21
TORSDOF 6
