REMARK  Name = ZINC13500982
REMARK  13 active torsions:
REMARK  status: ('A' for Active; 'I' for Inactive)
REMARK    1  A    between atoms: C_1  and  C_2
REMARK    2  A    between atoms: C_2  and  C_3
REMARK    3  A    between atoms: C_3  and  C_4
REMARK    4  A    between atoms: C_4  and  C_6
REMARK    5  A    between atoms: C_4  and  N_73
REMARK    6  A    between atoms: N_10  and  C_11
REMARK    7  A    between atoms: C_11  and  C_12
REMARK    8  A    between atoms: C_18  and  C_19
REMARK    9  A    between atoms: C_18  and  N_73
REMARK   10  A    between atoms: C_19  and  C_20
REMARK   11  A    between atoms: C_26  and  C_27
REMARK   12  A    between atoms: C_26  and  N_73
REMARK   13  A    between atoms: C_33  and  C_39
REMARK                            x       y       z     vdW  Elec       q    Type
REMARK                         _______ _______ _______ _____ _____    ______ ____
ROOT
ATOM      1  N   UNL     1       3.758  -0.734  -0.846  0.00  0.00    +0.389 N 
ATOM      2  H   UNL     1       3.482  -1.681  -0.561  0.00  0.00    -0.080 HD
ENDROOT
BRANCH   1   3
ATOM      3  C   UNL     1       3.080   0.247   0.027  0.00  0.00    +0.003 C 
BRANCH   3   4
ATOM      4  C   UNL     1       1.590   0.130  -0.169  0.00  0.00    +0.138 A 
ATOM      5  N   UNL     1       0.895  -0.978  -0.244  0.00  0.00    -0.115 NA
ATOM      6  N   UNL     1      -0.342  -0.661  -0.414  0.00  0.00    -0.023 NA
ATOM      7  N   UNL     1      -0.454   0.621  -0.450  0.00  0.00    -0.044 NA
ATOM      8  N   UNL     1       0.715   1.145  -0.302  0.00  0.00    -0.228 N 
BRANCH   8   9
ATOM      9  C   UNL     1       1.032   2.575  -0.283  0.00  0.00    +0.178 C 
BRANCH   9  10
ATOM     10  C   UNL     1       0.952   3.096   1.153  0.00  0.00    +0.140 C 
ATOM     11  C   UNL     1       1.171   4.624   1.168  0.00  0.00    +0.035 C 
ATOM     12  C   UNL     1       2.035   4.821   2.444  0.00  0.00    +0.031 C 
ATOM     13  C   UNL     1       2.877   3.520   2.432  0.00  0.00    +0.160 C 
ATOM     14  O   UNL     1       1.988   2.502   1.944  0.00  0.00    -0.375 OA
ENDBRANCH   9  10
ENDBRANCH   8   9
ENDBRANCH   3   4
BRANCH   3  15
ATOM     15  C   UNL     1       3.428  -0.064   1.485  0.00  0.00    -0.008 C 
BRANCH  15  17
ATOM     16  C   UNL     1       3.131  -1.706   3.344  0.00  0.00    +0.004 C 
ATOM     17  C   UNL     1       2.875  -1.440   1.859  0.00  0.00    -0.005 C 
ENDBRANCH  15  17
ENDBRANCH   3  15
ENDBRANCH   1   3
BRANCH   1  18
ATOM     18  C   UNL     1       3.358  -0.520  -2.252  0.00  0.00    -0.073 C 
BRANCH  18  19
ATOM     19  C   UNL     1       3.860  -1.696  -3.092  0.00  0.00    +0.016 C 
BRANCH  19  20
ATOM     20  C   UNL     1       3.394  -1.532  -4.516  0.00  0.00    -0.049 A 
ATOM     21  C   UNL     1       2.185  -2.071  -4.914  0.00  0.00    +0.003 A 
ATOM     22  C   UNL     1       1.755  -1.916  -6.219  0.00  0.00    +0.000 A 
ATOM     23  C   UNL     1       2.539  -1.230  -7.128  0.00  0.00    +0.000 A 
ATOM     24  C   UNL     1       3.751  -0.696  -6.731  0.00  0.00    +0.000 A 
ATOM     25  C   UNL     1       4.178  -0.847  -5.425  0.00  0.00    +0.003 A 
ENDBRANCH  19  20
ENDBRANCH  18  19
ENDBRANCH   1  18
BRANCH   1  26
ATOM     26  C   UNL     1       5.224  -0.601  -0.712  0.00  0.00    -0.037 C 
BRANCH  26  27
ATOM     27  C   UNL     1       5.649   0.824  -0.954  0.00  0.00    +0.001 A 
ATOM     28  C   UNL     1       5.798   1.672   0.094  0.00  0.00    +0.017 A 
ATOM     29  C   UNL     1       6.212   3.050  -0.175  0.00  0.00    -0.001 A 
ATOM     30  C   UNL     1       6.382   3.971   0.865  0.00  0.00    +0.010 A 
ATOM     31  C   UNL     1       6.769   5.250   0.581  0.00  0.00    +0.001 A 
ATOM     32  C   UNL     1       6.996   5.644  -0.731  0.00  0.00    +0.005 A 
ATOM     33  C   UNL     1       6.835   4.754  -1.771  0.00  0.00    -0.026 A 
ATOM     34  C   UNL     1       6.441   3.447  -1.506  0.00  0.00    +0.052 A 
ATOM     35  N   UNL     1       6.272   2.536  -2.527  0.00  0.00    -0.322 N 
ATOM     36  H   UNL     1       6.431   2.810  -3.443  0.00  0.00    +0.169 HD
ATOM     37  C   UNL     1       5.897   1.270  -2.270  0.00  0.00    +0.251 A 
ATOM     38  O   UNL     1       5.762   0.490  -3.196  0.00  0.00    -0.268 OA
ATOM     39  C   UNL     1       7.084   5.196  -3.190  0.00  0.00    +0.046 C 
ENDBRANCH  26  27
ENDBRANCH   1  26
TORSDOF 11
