REMARK  Name = ZINC63818515
REMARK  6 active torsions:
REMARK  status: ('A' for Active; 'I' for Inactive)
REMARK    1  A    between atoms: C_1  and  C_2
REMARK    2  A    between atoms: C_2  and  C_3
REMARK    3  A    between atoms: C_2  and  C_4
REMARK    4  A    between atoms: C_4  and  C_6
REMARK    5  A    between atoms: C_4  and  N_23
REMARK    6  A    between atoms: C_24  and  C_26
REMARK                            x       y       z     vdW  Elec       q    Type
REMARK                         _______ _______ _______ _____ _____    ______ ____
ROOT
ATOM      1  C   UNL     1      -2.330   0.276   1.066  0.00  0.00    +0.236 C 
ATOM      2  O   UNL     1      -3.277   0.985   0.796  0.00  0.00    -0.274 OA
ATOM      3  N   UNL     1      -1.942   0.131   2.349  0.00  0.00    -0.296 N 
ATOM      4  C   UNL     1      -0.849  -0.784   2.696  0.00  0.00    +0.110 C 
ATOM      5  C   UNL     1      -1.320  -1.829   3.715  0.00  0.00    +0.048 C 
ATOM      6  C   UNL     1      -1.802  -1.105   4.975  0.00  0.00    +0.109 C 
ATOM      7  C   UNL     1      -2.863  -0.105   4.532  0.00  0.00    -0.021 C 
ATOM      8  C   UNL     1      -3.952  -0.374   5.238  0.00  0.00    +0.002 A 
ATOM      9  C   UNL     1      -5.267   0.282   5.308  0.00  0.00    +0.010 A 
ATOM     10  C   UNL     1      -6.181  -0.271   6.146  0.00  0.00    +0.002 A 
ATOM     11  C   UNL     1      -5.943  -1.405   6.927  0.00  0.00    +0.017 A 
ATOM     12  C   UNL     1      -4.768  -2.088   6.947  0.00  0.00    +0.041 A 
ATOM     13  C   UNL     1      -3.694  -1.582   6.081  0.00  0.00    +0.057 A 
ATOM     14  N   UNL     1      -2.461  -2.016   5.913  0.00  0.00    -0.377 N 
ATOM     15 BR   UNL     1      -4.527  -3.615   8.036  0.00  0.00    -0.048 Br
ATOM     16  C   UNL     1      -2.606   0.896   3.425  0.00  0.00    +0.141 C 
ATOM     17  H   UNL     1      -2.058  -2.796   6.325  0.00  0.00    +0.160 HD
ENDROOT
BRANCH   1  18
ATOM     18  C   UNL     1      -1.589  -0.442  -0.032  0.00  0.00    +0.162 C 
BRANCH  18  19
ATOM     19  N   UNL     1      -2.486  -0.651  -1.171  0.00  0.00    -0.300 N 
ATOM     20  C   UNL     1      -2.257  -1.662  -2.032  0.00  0.00    +0.245 C 
ATOM     21  O   UNL     1      -1.306  -2.401  -1.864  0.00  0.00    -0.270 OA
ATOM     22  H   UNL     1      -3.244  -0.061  -1.306  0.00  0.00    +0.150 HD
BRANCH  20  23
ATOM     23  C   UNL     1      -3.162  -1.873  -3.182  0.00  0.00    +0.037 A 
ATOM     24  C   UNL     1      -4.251  -1.022  -3.382  0.00  0.00    +0.013 A 
ATOM     25  C   UNL     1      -5.091  -1.224  -4.457  0.00  0.00    +0.001 A 
ATOM     26  C   UNL     1      -4.857  -2.266  -5.337  0.00  0.00    +0.000 A 
ATOM     27  C   UNL     1      -3.779  -3.113  -5.144  0.00  0.00    +0.001 A 
ATOM     28  C   UNL     1      -2.928  -2.918  -4.076  0.00  0.00    +0.013 A 
ENDBRANCH  20  23
ENDBRANCH  18  19
BRANCH  18  30
ATOM     29  C   UNL     1      -0.869   1.796  -0.877  0.00  0.00    +0.009 C 
ATOM     30  C   UNL     1      -0.390   0.400  -0.473  0.00  0.00    +0.012 C 
ATOM     31  C   UNL     1       0.605   0.517   0.683  0.00  0.00    +0.009 C 
ENDBRANCH  18  30
ENDBRANCH   1  18
TORSDOF 4
