REMARK  Name = ZINC40085768
REMARK  19 active torsions:
REMARK  status: ('A' for Active; 'I' for Inactive)
REMARK    1  A    between atoms: C_1  and  C_2
REMARK    2  A    between atoms: C_2  and  C_3
REMARK    3  A    between atoms: C_3  and  C_4
REMARK    4  A    between atoms: C_4  and  C_5
REMARK    5  A    between atoms: C_5  and  O_6
REMARK    6  A    between atoms: O_6  and  C_7
REMARK    7  A    between atoms: C_10  and  C_16
REMARK    8  A    between atoms: C_12  and  O_13
REMARK    9  A    between atoms: O_13  and  C_14
REMARK   10  A    between atoms: C_14  and  C_15
REMARK   11  A    between atoms: C_18  and  C_27
REMARK   12  A    between atoms: N_22  and  C_23
REMARK   13  A    between atoms: C_23  and  C_24
REMARK   14  A    between atoms: C_24  and  O_25
REMARK   15  A    between atoms: C_27  and  C_29
REMARK   16  A    between atoms: C_32  and  O_36
REMARK   17  A    between atoms: C_33  and  C_35
REMARK   18  A    between atoms: O_36  and  C_37
REMARK   19  A    between atoms: C_37  and  C_38
REMARK                            x       y       z     vdW  Elec       q    Type
REMARK                         _______ _______ _______ _____ _____    ______ ____
ROOT
ATOM      1  C   UNL     1      -7.298  -6.035   0.159  0.00  0.00    +0.145 C 
ATOM      2  C   UNL     1      -8.258  -6.279   1.300  0.00  0.00    +0.076 C 
ATOM      3  C   UNL     1      -9.381  -5.577   1.023  0.00  0.00    +0.249 C 
ATOM      4  C   UNL     1      -9.207  -4.872  -0.265  0.00  0.00    +0.288 C 
ATOM      5  O   UNL     1     -10.040  -4.158  -0.786  0.00  0.00    -0.266 OA
ATOM      6  N   UNL     1      -7.989  -5.138  -0.774  0.00  0.00    -0.281 N 
ATOM      7  O   UNL     1     -10.487  -5.529   1.800  0.00  0.00    -0.282 OA
ENDROOT
BRANCH   1  11
ATOM      8  C   UNL     1      -3.732  -4.174   1.611  0.00  0.00    +0.162 A 
ATOM      9  C   UNL     1      -4.905  -3.444   1.507  0.00  0.00    +0.050 A 
ATOM     10  C   UNL     1      -6.056  -4.048   1.037  0.00  0.00    +0.009 A 
ATOM     11  C   UNL     1      -6.040  -5.381   0.670  0.00  0.00    -0.019 A 
ATOM     12  C   UNL     1      -4.873  -6.115   0.772  0.00  0.00    +0.055 A 
ATOM     13  C   UNL     1      -3.715  -5.514   1.237  0.00  0.00    +0.162 A 
BRANCH   8  14
ATOM     14  O   UNL     1      -2.598  -3.581   2.073  0.00  0.00    -0.488 OA
BRANCH  14  15
ATOM     15  C   UNL     1      -2.690  -2.203   2.439  0.00  0.00    +0.229 C 
BRANCH  15  16
ATOM     16  C   UNL     1      -1.327  -1.714   2.931  0.00  0.00    +0.041 C 
BRANCH  16  17
ATOM     17  C   UNL     1      -1.425  -0.238   3.322  0.00  0.00    +0.003 C 
BRANCH  17  19
ATOM     18  C   UNL     1      -0.160   1.727   4.206  0.00  0.00    +0.004 C 
ATOM     19  C   UNL     1      -0.061   0.251   3.814  0.00  0.00    -0.003 C 
ENDBRANCH  17  19
ENDBRANCH  16  17
ENDBRANCH  15  16
ENDBRANCH  14  15
ENDBRANCH   8  14
BRANCH  13  20
ATOM     20  O   UNL     1      -2.564  -6.234   1.332  0.00  0.00    -0.489 OA
BRANCH  20  21
ATOM     21  C   UNL     1      -2.594  -7.573   0.834  0.00  0.00    +0.226 C 
ATOM     22  C   UNL     1      -1.236  -8.236   1.073  0.00  0.00    +0.048 C 
ENDBRANCH  20  21
ENDBRANCH  13  20
ENDBRANCH   1  11
BRANCH   2  23
ATOM     23  C   UNL     1      -8.018  -7.114   2.481  0.00  0.00    +0.195 C 
ATOM     24  O   UNL     1      -7.986  -6.609   3.588  0.00  0.00    -0.287 OA
BRANCH  23  25
ATOM     25  C   UNL     1      -7.814  -8.568   2.328  0.00  0.00    +0.023 A 
ATOM     26  C   UNL     1      -7.963  -9.168   1.073  0.00  0.00    +0.015 A 
ATOM     27  C   UNL     1      -7.773 -10.524   0.935  0.00  0.00    +0.046 A 
ATOM     28  C   UNL     1      -7.433 -11.298   2.039  0.00  0.00    +0.123 A 
ATOM     29  C   UNL     1      -7.284 -10.705   3.288  0.00  0.00    -0.008 A 
ATOM     30  C   UNL     1      -7.467  -9.348   3.435  0.00  0.00    +0.018 A 
ATOM     31  C   UNL     1      -6.917 -11.548   4.482  0.00  0.00    +0.047 C 
BRANCH  28  32
ATOM     32  O   UNL     1      -7.246 -12.634   1.898  0.00  0.00    -0.492 OA
BRANCH  32  33
ATOM     33  C   UNL     1      -7.304 -13.161   0.571  0.00  0.00    +0.225 C 
ATOM     34  C   UNL     1      -7.122 -14.679   0.617  0.00  0.00    +0.048 C 
ENDBRANCH  32  33
ENDBRANCH  28  32
ENDBRANCH  23  25
ENDBRANCH   2  23
BRANCH   6  35
ATOM     35  C   UNL     1      -7.450  -4.623  -2.035  0.00  0.00    +0.137 C 
BRANCH  35  36
ATOM     36  C   UNL     1      -7.802  -5.586  -3.171  0.00  0.00    +0.175 C 
BRANCH  36  37
ATOM     37  O   UNL     1      -9.220  -5.614  -3.350  0.00  0.00    -0.393 OA
ATOM     38  H   UNL     1      -9.516  -6.205  -4.056  0.00  0.00    +0.209 HD
ENDBRANCH  36  37
ENDBRANCH  35  36
ENDBRANCH   6  35
TORSDOF 15
