REMARK  Name = ZINC02076329
REMARK  5 active torsions:
REMARK  status: ('A' for Active; 'I' for Inactive)
REMARK    1  A    between atoms: C_4  and  C_7
REMARK    2  A    between atoms: C_7  and  O_8
REMARK    3  A    between atoms: O_8  and  C_9
REMARK    4  A    between atoms: C_12  and  C_15
REMARK    5  A    between atoms: C_26  and  C_32
REMARK                            x       y       z     vdW  Elec       q    Type
REMARK                         _______ _______ _______ _____ _____    ______ ____
ROOT
ATOM      1  C   UNL     1      -2.553   3.867   0.048  0.00  0.00    +0.105 C 
ATOM      2  C   UNL     1      -3.111   3.895   1.456  0.00  0.00    +0.029 C 
ATOM      3  C   UNL     1      -2.324   4.659   2.526  0.00  0.00    +0.033 C 
ATOM      4  C   UNL     1      -3.445   5.105   3.468  0.00  0.00    -0.030 C 
ATOM      5  C   UNL     1      -4.589   5.198   2.798  0.00  0.00    -0.023 C 
ATOM      6  C   UNL     1      -4.330   4.866   1.376  0.00  0.00    +0.049 C 
ATOM      7  C   UNL     1      -5.337   4.213   0.511  0.00  0.00    -0.017 A 
ATOM      8  C   UNL     1      -6.685   4.381   0.721  0.00  0.00    +0.021 A 
ATOM      9  C   UNL     1      -7.614   3.764  -0.120  0.00  0.00    +0.065 A 
ATOM     10  C   UNL     1      -7.159   2.972  -1.180  0.00  0.00    +0.037 A 
ATOM     11  C   UNL     1      -5.813   2.802  -1.382  0.00  0.00    +0.063 A 
ATOM     12  C   UNL     1      -4.874   3.412  -0.540  0.00  0.00    +0.050 A 
ATOM     13  N   UNL     1      -3.533   3.159  -0.792  0.00  0.00    -0.335 N 
ATOM     14 CL   UNL     1      -5.264   1.817  -2.702  0.00  0.00    -0.082 Cl
ATOM     15  H   UNL     1      -3.188   2.468  -1.575  0.00  0.00    +0.147 HD
ENDROOT
BRANCH   1  19
ATOM     16  C   UNL     1       1.179   1.786   0.000  0.00  0.00    +0.121 A 
ATOM     17  C   UNL     1      -0.013   1.076   0.008  0.00  0.00    +0.046 A 
ATOM     18  C   UNL     1      -1.218   1.751   0.017  0.00  0.00    +0.009 A 
ATOM     19  C   UNL     1      -1.237   3.133   0.031  0.00  0.00    -0.027 A 
ATOM     20  C   UNL     1      -0.051   3.844   0.023  0.00  0.00    +0.009 A 
ATOM     21  C   UNL     1       1.157   3.174   0.008  0.00  0.00    +0.046 A 
BRANCH  16  22
ATOM     22  O   UNL     1       2.366   1.125  -0.014  0.00  0.00    -0.487 OA
BRANCH  22  23
ATOM     23  C   UNL     1       3.553   1.921  -0.021  0.00  0.00    +0.264 C 
BRANCH  23  27
ATOM     24  C   UNL     1       6.979  -0.629  -0.066  0.00  0.00    +0.000 A 
ATOM     25  C   UNL     1       6.413  -0.211  -1.256  0.00  0.00    +0.000 A 
ATOM     26  C   UNL     1       5.304   0.614  -1.241  0.00  0.00    +0.007 A 
ATOM     27  C   UNL     1       4.761   1.021  -0.037  0.00  0.00    -0.010 A 
ATOM     28  C   UNL     1       5.330   0.607   1.153  0.00  0.00    +0.007 A 
ATOM     29  C   UNL     1       6.436  -0.222   1.138  0.00  0.00    +0.000 A 
ENDBRANCH  23  27
ENDBRANCH  22  23
ENDBRANCH  16  22
ENDBRANCH   1  19
BRANCH   9  30
ATOM     30  C   UNL     1      -9.059   3.945   0.107  0.00  0.00    +0.387 C 
ATOM     31  O   UNL     1      -9.448   4.635   1.029  0.00  0.00    -0.241 OA
ATOM     32  O   UNL     1      -9.950   3.346  -0.708  0.00  0.00    -0.241 OA
ENDBRANCH   9  30
TORSDOF 5
