REMARK  Name = ZINC36370390
REMARK  6 active torsions:
REMARK  status: ('A' for Active; 'I' for Inactive)
REMARK    1  A    between atoms: C_1  and  C_2
REMARK    2  A    between atoms: C_8  and  C_10
REMARK    3  A    between atoms: C_10  and  C_12
REMARK    4  A    between atoms: C_10  and  N_20
REMARK    5  A    between atoms: C_22  and  C_29
REMARK    6  A    between atoms: C_25  and  C_28
REMARK                            x       y       z     vdW  Elec       q    Type
REMARK                         _______ _______ _______ _____ _____    ______ ____
ROOT
ATOM      1  C   UNL     1       0.085  -5.916   0.773  0.00  0.00    +0.006 C 
ENDROOT
BRANCH   1   9
ATOM      2  C   UNL     1      -0.018   1.503   0.010  0.00  0.00    +0.090 C 
ATOM      3  C   UNL     1       0.002  -0.004   0.002  0.00  0.00    +0.150 A 
ATOM      4  N   UNL     1       0.008  -0.769  -1.088  0.00  0.00    -0.205 NA
ATOM      5  C   UNL     1       0.026  -2.025  -0.733  0.00  0.00    +0.199 A 
ATOM      6  N   UNL     1       0.033  -2.116   0.625  0.00  0.00    -0.170 N 
ATOM      7  N   UNL     1       0.022  -0.766   1.063  0.00  0.00    -0.147 NA
ATOM      8  C   UNL     1       0.052  -3.377   1.171  0.00  0.00    +0.282 A 
ATOM      9  C   UNL     1       0.063  -4.460   0.386  0.00  0.00    +0.050 A 
ATOM     10  S   UNL     1       0.047  -3.727  -1.243  0.00  0.00    -0.050 S 
ATOM     11  O   UNL     1       0.060  -3.525   2.523  0.00  0.00    -0.265 OA
ENDBRANCH   1   9
BRANCH   1  12
ATOM     12  N   UNL     1       1.226  -6.578   0.126  0.00  0.00    +0.388 N 
ATOM     13  C   UNL     1       1.241  -7.998   0.497  0.00  0.00    -0.074 C 
ATOM     14  C   UNL     1       2.379  -8.709  -0.238  0.00  0.00    -0.031 C 
ATOM     15  C   UNL     1       3.712  -8.064   0.151  0.00  0.00    +0.003 C 
ATOM     16  C   UNL     1       3.658  -6.568  -0.172  0.00  0.00    -0.031 C 
ATOM     17  C   UNL     1       2.473  -5.936   0.560  0.00  0.00    -0.074 C 
ATOM     18  C   UNL     1       4.957  -5.900   0.283  0.00  0.00    +0.005 C 
ATOM     19  C   UNL     1       2.393 -10.189   0.152  0.00  0.00    +0.005 C 
ATOM     20  H   UNL     1       1.138  -6.495  -0.876  0.00  0.00    -0.080 HD
ENDBRANCH   1  12
BRANCH   1  21
ATOM     21  C   UNL     1      -1.196  -6.574   0.328  0.00  0.00    -0.055 A 
ATOM     22  C   UNL     1      -1.349  -6.967  -0.988  0.00  0.00    +0.004 A 
ATOM     23  C   UNL     1      -2.523  -7.570  -1.398  0.00  0.00    +0.021 A 
ATOM     24  C   UNL     1      -3.546  -7.780  -0.490  0.00  0.00    +0.059 A 
ATOM     25  C   UNL     1      -3.392  -7.387   0.828  0.00  0.00    +0.059 A 
ATOM     26  C   UNL     1      -2.214  -6.788   1.238  0.00  0.00    +0.023 A 
ATOM     27 CL   UNL     1      -4.675  -7.649   1.968  0.00  0.00    -0.082 Cl
ATOM     28 CL   UNL     1      -5.021  -8.537  -1.004  0.00  0.00    -0.082 Cl
ENDBRANCH   1  21
TORSDOF 3
