REMARK  Name = ZINC14989839
REMARK  9 active torsions:
REMARK  status: ('A' for Active; 'I' for Inactive)
REMARK    1  A    between atoms: C_1  and  N_2
REMARK    2  A    between atoms: N_2  and  C_3
REMARK    3  A    between atoms: C_3  and  C_4
REMARK    4  A    between atoms: C_9  and  C_11
REMARK    5  A    between atoms: C_15  and  C_20
REMARK    6  A    between atoms: C_20  and  O_34
REMARK    7  A    between atoms: C_25  and  C_26
REMARK    8  A    between atoms: C_25  and  N_64
REMARK    9  A    between atoms: C_27  and  C_28
REMARK                            x       y       z     vdW  Elec       q    Type
REMARK                         _______ _______ _______ _____ _____    ______ ____
ROOT
ATOM      1  C   UNL     1       1.166   1.943  -0.571  0.00  0.00    +0.191 A 
ATOM      2  C   UNL     1       2.399   1.393  -0.721  0.00  0.00    +0.063 A 
ATOM      3  C   UNL     1       3.298   2.498  -1.050  0.00  0.00    +0.021 A 
ATOM      4  C   UNL     1       4.665   2.594  -1.319  0.00  0.00    +0.018 A 
ATOM      5  C   UNL     1       5.217   3.813  -1.599  0.00  0.00    -0.015 A 
ATOM      6  C   UNL     1       4.427   4.954  -1.618  0.00  0.00    +0.010 A 
ATOM      7  C   UNL     1       3.076   4.881  -1.356  0.00  0.00    +0.047 A 
ATOM      8  C   UNL     1       2.493   3.652  -1.068  0.00  0.00    +0.136 A 
ATOM      9  O   UNL     1       1.232   3.274  -0.784  0.00  0.00    -0.450 OA
ENDROOT
BRANCH   5  10
ATOM     10  C   UNL     1       6.692   3.918  -1.890  0.00  0.00    +0.088 C 
ATOM     11  C   UNL     1       7.454   4.161  -0.584  0.00  0.00    +0.021 C 
ATOM     12  C   UNL     1       8.944   4.329  -0.893  0.00  0.00    -0.075 C 
ATOM     13  C   UNL     1       8.448   5.227  -3.088  0.00  0.00    -0.075 C 
ATOM     14  C   UNL     1       6.943   5.088  -2.845  0.00  0.00    +0.021 C 
ATOM     15  N   UNL     1       9.120   5.485  -1.797  0.00  0.00    +0.382 N 
ATOM     16  H   UNL     1       8.699   6.315  -1.362  0.00  0.00    -0.081 HD
BRANCH  10  17
ATOM     17  O   UNL     1       7.148   2.704  -2.490  0.00  0.00    -0.384 OA
ATOM     18  H   UNL     1       7.022   1.920  -1.938  0.00  0.00    +0.211 HD
ENDBRANCH  10  17
BRANCH  15  19
ATOM     19  C   UNL     1      10.559   5.737  -2.019  0.00  0.00    -0.051 C 
BRANCH  19  20
ATOM     20  C   UNL     1      11.174   6.210  -0.727  0.00  0.00    -0.045 C 
ATOM     21  C   UNL     1      12.233   5.588  -0.230  0.00  0.00    +0.002 C 
BRANCH  21  22
ATOM     22  C   UNL     1      12.836   6.051   1.037  0.00  0.00    -0.025 A 
ATOM     23  C   UNL     1      12.296   7.147   1.710  0.00  0.00    +0.008 A 
ATOM     24  C   UNL     1      12.860   7.572   2.896  0.00  0.00    +0.001 A 
ATOM     25  C   UNL     1      13.966   6.920   3.411  0.00  0.00    +0.000 A 
ATOM     26  C   UNL     1      14.510   5.836   2.746  0.00  0.00    +0.001 A 
ATOM     27  C   UNL     1      13.952   5.398   1.562  0.00  0.00    +0.008 A 
ENDBRANCH  21  22
ENDBRANCH  19  20
ENDBRANCH  15  19
ENDBRANCH   5  10
BRANCH   1  30
ATOM     28  C   UNL     1      -1.244   3.323  -0.108  0.00  0.00    +0.133 C 
ATOM     29  N   UNL     1      -1.202   1.864   0.017  0.00  0.00    -0.292 N 
ATOM     30  C   UNL     1      -0.056   1.199  -0.235  0.00  0.00    +0.282 C 
ATOM     31  O   UNL     1      -0.036  -0.016  -0.189  0.00  0.00    -0.267 OA
BRANCH  29  32
ATOM     32  C   UNL     1      -2.403   1.127   0.417  0.00  0.00    +0.163 C 
BRANCH  32  33
ATOM     33  C   UNL     1      -2.440   1.003   1.918  0.00  0.00    +0.066 A 
ATOM     34  C   UNL     1      -3.130   1.896   2.673  0.00  0.00    +0.071 A 
ATOM     35  S   UNL     1      -2.817   1.253   4.311  0.00  0.00    -0.084 S 
ATOM     36  C   UNL     1      -1.823  -0.091   3.838  0.00  0.00    +0.156 A 
ATOM     37  N   UNL     1      -1.800   0.029   2.530  0.00  0.00    -0.251 NA
ENDBRANCH  32  33
ENDBRANCH  29  32
ENDBRANCH   1  30
TORSDOF 8
