REMARK  Name = ZINC02106500
REMARK  9 active torsions:
REMARK  status: ('A' for Active; 'I' for Inactive)
REMARK    1  A    between atoms: C_1  and  C_2
REMARK    2  A    between atoms: C_7  and  S_15
REMARK    3  A    between atoms: S_15  and  C_16
REMARK    4  A    between atoms: C_16  and  C_17
REMARK    5  A    between atoms: N_19  and  C_20
REMARK    6  A    between atoms: C_21  and  C_30
REMARK    7  A    between atoms: C_22  and  C_25
REMARK    8  A    between atoms: C_30  and  O_32
REMARK    9  A    between atoms: O_32  and  C_33
REMARK                            x       y       z     vdW  Elec       q    Type
REMARK                         _______ _______ _______ _____ _____    ______ ____
ROOT
ATOM      1  C   UNL     1      -3.729   8.810  -1.310  0.00  0.00    +0.228 C 
ATOM      2  O   UNL     1      -3.148   9.400  -0.423  0.00  0.00    -0.275 OA
ATOM      3  N   UNL     1      -3.447   7.515  -1.554  0.00  0.00    -0.279 N 
ATOM      4  H   UNL     1      -3.912   7.043  -2.264  0.00  0.00    +0.155 HD
ENDROOT
BRANCH   3   5
ATOM      5  C   UNL     1      -2.495   6.857  -0.793  0.00  0.00    +0.086 A 
ATOM      6  C   UNL     1      -2.073   5.538  -0.895  0.00  0.00    +0.096 A 
ATOM      7  C   UNL     1      -1.050   5.105   0.039  0.00  0.00    +0.012 A 
ATOM      8  C   UNL     1      -0.606   6.031   0.929  0.00  0.00    +0.057 A 
ATOM      9  S   UNL     1      -1.546   7.484   0.512  0.00  0.00    -0.080 S 
BRANCH   7  10
ATOM     10  C   UNL     1      -0.523   3.725   0.027  0.00  0.00    +0.021 A 
ATOM     11  C   UNL     1       0.778   3.298   0.012  0.00  0.00    +0.016 A 
ATOM     12  C   UNL     1       1.031   1.943   0.003  0.00  0.00    +0.008 A 
ATOM     13  C   UNL     1      -0.013   1.076   0.008  0.00  0.00    +0.046 A 
ATOM     14  S   UNL     1      -1.416   2.179   0.019  0.00  0.00    -0.097 S 
ENDBRANCH   7  10
BRANCH   6  15
ATOM     15  C   UNL     1      -2.633   4.630  -1.895  0.00  0.00    +0.342 C 
ATOM     16  O   UNL     1      -3.613   3.960  -1.629  0.00  0.00    -0.245 OA
BRANCH  15  17
ATOM     17  O   UNL     1      -2.062   4.534  -3.114  0.00  0.00    -0.464 OA
ATOM     18  C   UNL     1      -2.661   3.627  -4.042  0.00  0.00    +0.280 C 
ENDBRANCH  15  17
ENDBRANCH   6  15
ENDBRANCH   3   5
BRANCH   1  19
ATOM     19  C   UNL     1      -4.765   9.526  -2.138  0.00  0.00    +0.173 C 
BRANCH  19  20
ATOM     20  S   UNL     1      -4.914  11.238  -1.570  0.00  0.00    -0.076 S 
BRANCH  20  27
ATOM     21  C   UNL     1      -8.960  16.612  -3.671  0.00  0.00    +0.044 C 
ATOM     22  C   UNL     1      -8.167  15.374  -3.340  0.00  0.00    -0.038 A 
ATOM     23  C   UNL     1      -8.349  14.235  -4.047  0.00  0.00    +0.052 A 
ATOM     24  C   UNL     1      -7.607  13.072  -3.732  0.00  0.00    +0.162 A 
ATOM     25  N   UNL     1      -7.601  11.855  -4.245  0.00  0.00    -0.129 NA
ATOM     26  N   UNL     1      -6.746  11.124  -3.623  0.00  0.00    -0.122 NA
ATOM     27  C   UNL     1      -6.154  11.821  -2.678  0.00  0.00    +0.197 A 
ATOM     28  N   UNL     1      -6.683  13.078  -2.712  0.00  0.00    -0.270 N 
ATOM     29  C   UNL     1      -6.457  14.221  -1.966  0.00  0.00    +0.058 A 
ATOM     30  C   UNL     1      -7.184  15.391  -2.253  0.00  0.00    +0.002 A 
ATOM     31  C   UNL     1      -6.961  16.549  -1.503  0.00  0.00    +0.010 A 
ATOM     32  C   UNL     1      -6.031  16.536  -0.488  0.00  0.00    +0.001 A 
ATOM     33  C   UNL     1      -5.316  15.381  -0.206  0.00  0.00    +0.002 A 
ATOM     34  C   UNL     1      -5.524  14.230  -0.937  0.00  0.00    +0.027 A 
ENDBRANCH  20  27
ENDBRANCH  19  20
ENDBRANCH   1  19
TORSDOF 7
