REMARK  Name = ZINC12493456
REMARK  11 active torsions:
REMARK  status: ('A' for Active; 'I' for Inactive)
REMARK    1  A    between atoms: C_1  and  C_2
REMARK    2  A    between atoms: C_7  and  C_17
REMARK    3  A    between atoms: C_19  and  C_33
REMARK    4  A    between atoms: C_20  and  N_32
REMARK    5  A    between atoms: C_22  and  C_31
REMARK    6  A    between atoms: C_23  and  C_24
REMARK    7  A    between atoms: C_24  and  O_26
REMARK    8  A    between atoms: O_26  and  C_27
REMARK    9  A    between atoms: C_27  and  C_28
REMARK   10  A    between atoms: C_27  and  C_29
REMARK   11  A    between atoms: C_27  and  C_30
REMARK                            x       y       z     vdW  Elec       q    Type
REMARK                         _______ _______ _______ _____ _____    ______ ____
ROOT
ATOM      1  C   UNL     1       1.135   3.510   0.091  0.00  0.00    +0.108 C 
ATOM      2  C   UNL     1       1.617   4.026  -1.238  0.00  0.00    +0.098 C 
ATOM      3  C   UNL     1       2.833   4.611  -1.354  0.00  0.00    +0.198 C 
ATOM      4  O   UNL     1       3.655   4.752  -0.300  0.00  0.00    -0.445 OA
ATOM      5  C   UNL     1       3.154   4.668   0.941  0.00  0.00    +0.115 C 
ATOM      6  C   UNL     1       1.971   4.094   1.197  0.00  0.00    +0.087 C 
ATOM      7  C   UNL     1       3.949   5.238   2.087  0.00  0.00    +0.087 C 
ENDROOT
BRANCH   1  14
ATOM      8  C   UNL     1       2.674  -4.267   0.167  0.00  0.00    +0.044 C 
ATOM      9  C   UNL     1       2.612  -2.761   0.140  0.00  0.00    -0.048 A 
ATOM     10  C   UNL     1       3.793  -2.028   0.059  0.00  0.00    +0.004 A 
ATOM     11  C   UNL     1       3.770  -0.667   0.033  0.00  0.00    +0.010 A 
ATOM     12  C   UNL     1       2.540   0.008   0.087  0.00  0.00    -0.001 A 
ATOM     13  C   UNL     1       2.476   1.416   0.062  0.00  0.00    +0.017 A 
ATOM     14  C   UNL     1       1.250   2.007   0.116  0.00  0.00    +0.004 A 
ATOM     15  C   UNL     1       0.095   1.216   0.197  0.00  0.00    +0.103 A 
ATOM     16  C   UNL     1       1.338  -0.736   0.169  0.00  0.00    +0.048 A 
ATOM     17  C   UNL     1       1.402  -2.139   0.194  0.00  0.00    +0.029 A 
ATOM     18  N   UNL     1      -1.146   1.832   0.246  0.00  0.00    -0.316 N 
ATOM     19  C   UNL     1      -1.869   1.462   1.470  0.00  0.00    +0.106 C 
ATOM     20  C   UNL     1      -3.166   2.269   1.562  0.00  0.00    +0.019 C 
ATOM     21  C   UNL     1      -4.029   1.982   0.330  0.00  0.00    +0.003 C 
ATOM     22  C   UNL     1      -3.235   2.330  -0.932  0.00  0.00    +0.019 C 
ATOM     23  C   UNL     1      -1.936   1.521  -0.952  0.00  0.00    +0.106 C 
ATOM     24  N   UNL     1       0.097  -0.140   0.225  0.00  0.00    -0.343 N 
ATOM     25  H   UNL     1      -0.770  -0.687   0.284  0.00  0.00    +0.167 HD
ENDBRANCH   1  14
BRANCH   3  26
ATOM     26  N   UNL     1       3.238   5.072  -2.582  0.00  0.00    -0.328 N 
ATOM     27  H   UNL     1       4.106   5.493  -2.680  0.00  0.00    +0.145 HD
ATOM     28  H   UNL     1       2.655   4.977  -3.352  0.00  0.00    +0.145 HD
ENDBRANCH   3  26
BRANCH   6  29
ATOM     29  C   UNL     1       1.500   4.037   2.531  0.00  0.00    +0.340 C 
ATOM     30  O   UNL     1       1.684   3.036   3.199  0.00  0.00    -0.245 OA
BRANCH  29  31
ATOM     31  O   UNL     1       0.846   5.091   3.062  0.00  0.00    -0.456 OA
BRANCH  31  32
ATOM     32  C   UNL     1       0.287   4.919   4.366  0.00  0.00    +0.106 C 
ATOM     33  C   UNL     1       1.412   4.672   5.374  0.00  0.00    +0.055 C 
ATOM     34  C   UNL     1      -0.484   6.179   4.761  0.00  0.00    +0.055 C 
ATOM     35  C   UNL     1      -0.663   3.720   4.359  0.00  0.00    +0.055 C 
ENDBRANCH  31  32
ENDBRANCH  29  31
ENDBRANCH   6  29
BRANCH   2  36
ATOM     36  C   UNL     1       0.780   3.898  -2.393  0.00  0.00    +0.101 C 
ATOM     37  N   UNL     1       0.116   3.796  -3.309  0.00  0.00    -0.191 NA
ENDBRANCH   2  36
TORSDOF 6
