REMARK  Name = ZINC63229110
REMARK  8 active torsions:
REMARK  status: ('A' for Active; 'I' for Inactive)
REMARK    1  A    between atoms: C_4  and  C_7
REMARK    2  A    between atoms: C_7  and  C_8
REMARK    3  A    between atoms: C_7  and  C_29
REMARK    4  A    between atoms: C_8  and  C_9
REMARK    5  A    between atoms: N_11  and  C_12
REMARK    6  A    between atoms: C_12  and  C_13
REMARK    7  A    between atoms: C_13  and  C_15
REMARK    8  A    between atoms: C_13  and  C_20
REMARK                            x       y       z     vdW  Elec       q    Type
REMARK                         _______ _______ _______ _____ _____    ______ ____
ROOT
ATOM      1  C   UNL     1       4.759  -2.365   1.480  0.00  0.00    +0.214 C 
ATOM      2  O   UNL     1       5.668  -2.349   0.677  0.00  0.00    -0.276 OA
ATOM      3  N   UNL     1       4.835  -3.156   2.568  0.00  0.00    -0.314 N 
ATOM      4  H   UNL     1       4.108  -3.169   3.210  0.00  0.00    +0.149 HD
ENDROOT
BRANCH   1   5
ATOM      5  C   UNL     1       3.545  -1.500   1.260  0.00  0.00    +0.108 C 
BRANCH   5   6
ATOM      6  C   UNL     1       3.711  -0.707  -0.038  0.00  0.00    +0.058 C 
BRANCH   6  10
ATOM      7  C   UNL     1       0.436   1.999  -0.485  0.00  0.00    +0.000 A 
ATOM      8  C   UNL     1       1.735   2.463  -0.581  0.00  0.00    +0.000 A 
ATOM      9  C   UNL     1       2.795   1.588  -0.436  0.00  0.00    +0.004 A 
ATOM     10  C   UNL     1       2.556   0.248  -0.195  0.00  0.00    -0.040 A 
ATOM     11  C   UNL     1       1.258  -0.216  -0.098  0.00  0.00    +0.004 A 
ATOM     12  C   UNL     1       0.198   0.659  -0.244  0.00  0.00    +0.000 A 
ENDBRANCH   6  10
BRANCH   6  13
ATOM     13  C   UNL     1       3.740  -1.658  -1.207  0.00  0.00    -0.040 A 
ATOM     14  C   UNL     1       2.732  -2.591  -1.363  0.00  0.00    +0.004 A 
ATOM     15  C   UNL     1       2.758  -3.463  -2.435  0.00  0.00    +0.000 A 
ATOM     16  C   UNL     1       3.791  -3.401  -3.351  0.00  0.00    +0.000 A 
ATOM     17  C   UNL     1       4.798  -2.467  -3.196  0.00  0.00    +0.000 A 
ATOM     18  C   UNL     1       4.770  -1.592  -2.126  0.00  0.00    +0.004 A 
ENDBRANCH   6  13
ENDBRANCH   5   6
ENDBRANCH   1   5
BRANCH   3  19
ATOM     19  C   UNL     1       6.015  -3.998   2.781  0.00  0.00    +0.117 C 
BRANCH  19  20
ATOM     20  C   UNL     1       5.849  -4.790   4.079  0.00  0.00    +0.071 C 
BRANCH  20  21
ATOM     21  C   UNL     1       7.112  -5.562   4.362  0.00  0.00    -0.032 C 
ATOM     22  C   UNL     1       7.903  -5.454   5.454  0.00  0.00    -0.000 A 
ATOM     23  C   UNL     1       7.827  -4.619   6.659  0.00  0.00    +0.010 A 
ATOM     24  C   UNL     1       8.790  -4.737   7.601  0.00  0.00    +0.001 A 
ATOM     25  C   UNL     1       9.857  -5.636   7.456  0.00  0.00    +0.002 A 
ATOM     26  C   UNL     1       9.994  -6.436   6.378  0.00  0.00    +0.026 A 
ATOM     27  C   UNL     1       9.039  -6.395   5.326  0.00  0.00    +0.043 A 
ATOM     28  N   UNL     1       8.954  -7.058   4.198  0.00  0.00    -0.380 N 
ATOM     29  C   UNL     1       7.749  -6.617   3.486  0.00  0.00    +0.145 C 
ATOM     30  H   UNL     1       9.580  -7.731   3.888  0.00  0.00    +0.160 HD
ENDBRANCH  20  21
BRANCH  20  31
ATOM     31  C   UNL     1       4.696  -5.750   3.937  0.00  0.00    -0.002 A 
ATOM     32  C   UNL     1       3.552  -5.823   4.661  0.00  0.00    +0.012 A 
ATOM     33  C   UNL     1       2.622  -6.797   4.349  0.00  0.00    +0.008 A 
ATOM     34  C   UNL     1       2.881  -7.650   3.328  0.00  0.00    +0.045 A 
ATOM     35  S   UNL     1       4.478  -7.081   2.768  0.00  0.00    -0.101 S 
ENDBRANCH  20  31
ENDBRANCH  19  20
ENDBRANCH   3  19
TORSDOF 8
