REMARK  Name = ZINC03351976
REMARK  13 active torsions:
REMARK  status: ('A' for Active; 'I' for Inactive)
REMARK    1  A    between atoms: C_1  and  C_2
REMARK    2  A    between atoms: C_2  and  C_3
REMARK    3  A    between atoms: C_2  and  C_4
REMARK    4  A    between atoms: C_4  and  C_6
REMARK    5  A    between atoms: C_4  and  N_28
REMARK    6  A    between atoms: C_6  and  O_8
REMARK    7  A    between atoms: O_8  and  C_9
REMARK    8  A    between atoms: C_9  and  C_10
REMARK    9  A    between atoms: N_12  and  C_13
REMARK   10  A    between atoms: C_18  and  O_19
REMARK   11  A    between atoms: O_19  and  C_20
REMARK   12  A    between atoms: N_28  and  S_29
REMARK   13  A    between atoms: S_29  and  C_32
REMARK                            x       y       z     vdW  Elec       q    Type
REMARK                         _______ _______ _______ _____ _____    ______ ____
ROOT
ATOM      1  C   UNL     1      -3.513   1.076  -2.784  0.00  0.00    +0.328 C 
ENDROOT
BRANCH   1   2
ATOM      2  C   UNL     1      -3.795   2.541  -3.001  0.00  0.00    +0.255 C 
ATOM      3  O   UNL     1      -3.380   3.361  -2.210  0.00  0.00    -0.272 OA
ATOM      4  N   UNL     1      -4.509   2.938  -4.072  0.00  0.00    -0.280 N 
ATOM      5  H   UNL     1      -4.782   2.290  -4.741  0.00  0.00    +0.155 HD
BRANCH   4   6
ATOM      6  C   UNL     1      -4.855   4.287  -4.222  0.00  0.00    +0.079 A 
ATOM      7  C   UNL     1      -3.986   5.273  -3.788  0.00  0.00    +0.074 A 
ATOM      8  C   UNL     1      -4.323   6.612  -3.933  0.00  0.00    +0.138 A 
ATOM      9  C   UNL     1      -5.549   6.952  -4.521  0.00  0.00    +0.031 A 
ATOM     10  C   UNL     1      -6.421   5.958  -4.957  0.00  0.00    +0.059 A 
ATOM     11  C   UNL     1      -6.073   4.629  -4.812  0.00  0.00    +0.142 A 
ATOM     12  C   UNL     1      -5.596   8.427  -4.524  0.00  0.00    +0.028 A 
ATOM     13  C   UNL     1      -6.527   9.363  -4.961  0.00  0.00    +0.012 A 
ATOM     14  C   UNL     1      -6.263  10.709  -4.815  0.00  0.00    +0.001 A 
ATOM     15  C   UNL     1      -5.076  11.127  -4.235  0.00  0.00    +0.004 A 
ATOM     16  C   UNL     1      -4.146  10.207  -3.799  0.00  0.00    +0.047 A 
ATOM     17  C   UNL     1      -4.394   8.846  -3.937  0.00  0.00    +0.136 A 
ATOM     18  O   UNL     1      -3.674   7.752  -3.604  0.00  0.00    -0.455 OA
BRANCH  11  19
ATOM     19  O   UNL     1      -6.919   3.654  -5.242  0.00  0.00    -0.493 OA
ATOM     20  C   UNL     1      -8.148   4.076  -5.836  0.00  0.00    +0.277 C 
ENDBRANCH  11  19
ENDBRANCH   4   6
ENDBRANCH   1   2
BRANCH   1  21
ATOM     21  O   UNL     1      -2.746   0.910  -1.590  0.00  0.00    -0.454 OA
BRANCH  21  22
ATOM     22  C   UNL     1      -2.408  -0.344  -1.252  0.00  0.00    +0.327 C 
ATOM     23  O   UNL     1      -2.752  -1.271  -1.948  0.00  0.00    -0.249 OA
BRANCH  22  24
ATOM     24  C   UNL     1      -1.599  -0.597  -0.006  0.00  0.00    +0.187 C 
BRANCH  24  26
ATOM     25  C   UNL     1      -0.497   1.642  -0.118  0.00  0.00    +0.009 C 
ATOM     26  C   UNL     1      -0.258   0.131  -0.112  0.00  0.00    +0.012 C 
ATOM     27  C   UNL     1       0.621  -0.242   1.084  0.00  0.00    +0.009 C 
ENDBRANCH  24  26
BRANCH  24  28
ATOM     28  N   UNL     1      -1.363  -2.036   0.140  0.00  0.00    -0.176 NA
ATOM     29  H   UNL     1      -0.824  -2.507  -0.514  0.00  0.00    +0.149 HD
BRANCH  28  30
ATOM     30  S   UNL     1      -2.019  -2.857   1.420  0.00  0.00    +0.059 S 
ATOM     31  O   UNL     1      -1.629  -4.215   1.274  0.00  0.00    -0.153 OA
ATOM     32  O   UNL     1      -1.720  -2.099   2.584  0.00  0.00    -0.153 OA
BRANCH  30  33
ATOM     33  C   UNL     1      -3.770  -2.811   1.226  0.00  0.00    +0.105 A 
ATOM     34  C   UNL     1      -4.500  -1.774   1.775  0.00  0.00    +0.028 A 
ATOM     35  C   UNL     1      -5.873  -1.738   1.623  0.00  0.00    +0.002 A 
ATOM     36  C   UNL     1      -6.517  -2.740   0.921  0.00  0.00    +0.000 A 
ATOM     37  C   UNL     1      -5.787  -3.777   0.372  0.00  0.00    +0.002 A 
ATOM     38  C   UNL     1      -4.413  -3.811   0.520  0.00  0.00    +0.028 A 
ENDBRANCH  30  33
ENDBRANCH  28  30
ENDBRANCH  24  28
ENDBRANCH  22  24
ENDBRANCH  21  22
ENDBRANCH   1  21
TORSDOF 10
