REMARK  Name = ZINC08893956
REMARK  10 active torsions:
REMARK  status: ('A' for Active; 'I' for Inactive)
REMARK    1  A    between atoms: C_1  and  C_2
REMARK    2  A    between atoms: N_7  and  C_10
REMARK    3  A    between atoms: C_10  and  C_12
REMARK    4  A    between atoms: C_10  and  C_13
REMARK    5  A    between atoms: N_15  and  C_16
REMARK    6  A    between atoms: C_25  and  C_26
REMARK    7  A    between atoms: C_26  and  O_28
REMARK    8  A    between atoms: O_28  and  C_29
REMARK    9  A    between atoms: C_29  and  C_30
REMARK   10  A    between atoms: C_29  and  C_31
REMARK                            x       y       z     vdW  Elec       q    Type
REMARK                         _______ _______ _______ _____ _____    ______ ____
ROOT
ATOM      1  C   UNL     1      -2.551  -0.986  -4.275  0.00  0.00    +0.046 C 
ATOM      2  C   UNL     1      -2.564   0.521  -4.272  0.00  0.00    -0.015 A 
ATOM      3  C   UNL     1      -1.953   1.224  -3.233  0.00  0.00    +0.076 A 
ATOM      4  C   UNL     1      -2.018   2.634  -3.320  0.00  0.00    +0.116 A 
ATOM      5  N   UNL     1      -1.476   3.419  -2.398  0.00  0.00    -0.230 NA
ATOM      6  C   UNL     1      -0.859   2.927  -1.358  0.00  0.00    +0.204 A 
ATOM      7  N   UNL     1      -0.727   1.591  -1.168  0.00  0.00    -0.287 N 
ATOM      8  C   UNL     1      -1.240   0.704  -2.043  0.00  0.00    +0.263 A 
ATOM      9  O   UNL     1      -1.121  -0.494  -1.861  0.00  0.00    -0.267 OA
ATOM     10  S   UNL     1      -2.917   2.908  -4.826  0.00  0.00    -0.062 S 
ATOM     11  C   UNL     1      -3.174   1.202  -5.286  0.00  0.00    +0.102 A 
ENDROOT
BRANCH   7  12
ATOM     12  C   UNL     1      -0.018   1.101   0.017  0.00  0.00    +0.174 C 
ATOM     13  C   UNL     1      -0.726   1.600   1.278  0.00  0.00    +0.041 C 
BRANCH  12  14
ATOM     14  C   UNL     1       1.400   1.613   0.000  0.00  0.00    +0.240 C 
ATOM     15  O   UNL     1       1.780   2.317  -0.911  0.00  0.00    -0.273 OA
ATOM     16  N   UNL     1       2.245   1.288   0.998  0.00  0.00    -0.283 N 
ATOM     17  H   UNL     1       1.924   0.779   1.759  0.00  0.00    +0.155 HD
BRANCH  16  18
ATOM     18  C   UNL     1       3.586   1.684   0.937  0.00  0.00    +0.053 A 
ATOM     19  C   UNL     1       3.926   2.900   0.359  0.00  0.00    +0.044 A 
ATOM     20  C   UNL     1       5.251   3.289   0.300  0.00  0.00    +0.043 A 
ATOM     21  C   UNL     1       6.239   2.467   0.816  0.00  0.00    +0.021 A 
ATOM     22  C   UNL     1       5.903   1.256   1.392  0.00  0.00    +0.023 A 
ATOM     23  C   UNL     1       4.579   0.864   1.459  0.00  0.00    +0.062 A 
ATOM     24 CL   UNL     1       4.158  -0.653   2.189  0.00  0.00    -0.082 Cl
ATOM     25 CL   UNL     1       5.678   4.809  -0.422  0.00  0.00    -0.083 Cl
ENDBRANCH  16  18
ENDBRANCH  12  14
ENDBRANCH   7  12
BRANCH  11  26
ATOM     26  C   UNL     1      -3.868   0.667  -6.459  0.00  0.00    +0.346 C 
ATOM     27  O   UNL     1      -3.951  -0.536  -6.620  0.00  0.00    -0.244 OA
BRANCH  26  28
ATOM     28  O   UNL     1      -4.413   1.507  -7.362  0.00  0.00    -0.458 OA
BRANCH  28  29
ATOM     29  C   UNL     1      -5.085   0.906  -8.501  0.00  0.00    +0.171 C 
ATOM     30  C   UNL     1      -6.561   0.683  -8.163  0.00  0.00    +0.052 C 
ATOM     31  C   UNL     1      -4.974   1.838  -9.709  0.00  0.00    +0.052 C 
ENDBRANCH  28  29
ENDBRANCH  26  28
ENDBRANCH  11  26
TORSDOF 6
