REMARK  Name = ZINC02437447
REMARK  7 active torsions:
REMARK  status: ('A' for Active; 'I' for Inactive)
REMARK    1  A    between atoms: C_1  and  C_2
REMARK    2  A    between atoms: C_2  and  C_3
REMARK    3  A    between atoms: C_2  and  C_4
REMARK    4  A    between atoms: C_2  and  C_5
REMARK    5  A    between atoms: N_7  and  C_8
REMARK    6  A    between atoms: C_8  and  C_23
REMARK    7  A    between atoms: N_11  and  C_15
REMARK                            x       y       z     vdW  Elec       q    Type
REMARK                         _______ _______ _______ _____ _____    ______ ____
ROOT
ATOM      1  C   UNL     1       1.431  -2.284  -2.706  0.00  0.00    +0.304 C 
ATOM      2  C   UNL     1       2.902  -1.920  -2.769  0.00  0.00    +0.283 C 
ATOM      3  O   UNL     1       3.390  -0.811  -2.720  0.00  0.00    -0.270 OA
ATOM      4  N   UNL     1       3.550  -3.098  -2.891  0.00  0.00    -0.187 N 
ATOM      5  C   UNL     1       2.657  -4.142  -2.911  0.00  0.00    +0.345 C 
ATOM      6  O   UNL     1       3.024  -5.437  -3.024  0.00  0.00    -0.247 OA
ATOM      7  N   UNL     1       1.426  -3.752  -2.809  0.00  0.00    -0.188 NA
ENDROOT
BRANCH   4   8
ATOM      8  C   UNL     1       4.942  -3.237  -2.985  0.00  0.00    +0.047 A 
ATOM      9  C   UNL     1       5.516  -4.502  -2.987  0.00  0.00    +0.027 A 
ATOM     10  C   UNL     1       6.887  -4.638  -3.079  0.00  0.00    +0.041 A 
ATOM     11  C   UNL     1       7.690  -3.514  -3.169  0.00  0.00    +0.142 A 
ATOM     12  C   UNL     1       7.120  -2.251  -3.167  0.00  0.00    +0.078 A 
ATOM     13  C   UNL     1       5.748  -2.111  -3.081  0.00  0.00    +0.047 A 
ATOM     14 CL   UNL     1       8.130  -0.843  -3.280  0.00  0.00    -0.081 Cl
ATOM     15  F   UNL     1       9.032  -3.648  -3.259  0.00  0.00    -0.204 F 
ENDBRANCH   4   8
BRANCH   1  18
ATOM     16  C   UNL     1       0.900  -0.559  -1.069  0.00  0.00    +0.221 C 
ATOM     17  O   UNL     1       1.504   0.238  -1.755  0.00  0.00    -0.275 OA
ATOM     18  N   UNL     1       0.850  -1.857  -1.431  0.00  0.00    -0.276 N 
ATOM     19  H   UNL     1       0.428  -2.507  -0.848  0.00  0.00    +0.152 HD
BRANCH  16  21
ATOM     20  C   UNL     1       0.418   1.404   0.366  0.00  0.00    +0.020 C 
ATOM     21  C   UNL     1       0.207  -0.100   0.187  0.00  0.00    +0.039 C 
ATOM     22  C   UNL     1       0.789  -0.843   1.391  0.00  0.00    +0.020 C 
ATOM     23  C   UNL     1      -1.290  -0.397   0.081  0.00  0.00    +0.020 C 
ENDBRANCH  16  21
ENDBRANCH   1  18
BRANCH   1  24
ATOM     24  C   UNL     1       0.670  -1.661  -3.878  0.00  0.00    +0.440 C 
ATOM     25  F   UNL     1       0.847  -0.274  -3.863  0.00  0.00    -0.166 F 
ATOM     26  F   UNL     1       1.160  -2.181  -5.081  0.00  0.00    -0.166 F 
ATOM     27  F   UNL     1      -0.691  -1.960  -3.761  0.00  0.00    -0.166 F 
ENDBRANCH   1  24
TORSDOF 4
