REMARK  Name = ZINC00615939
REMARK  6 active torsions:
REMARK  status: ('A' for Active; 'I' for Inactive)
REMARK    1  A    between atoms: C_1  and  C_2
REMARK    2  A    between atoms: C_2  and  C_16
REMARK    3  A    between atoms: C_7  and  N_13
REMARK    4  A    between atoms: C_8  and  C_9
REMARK    5  A    between atoms: C_9  and  O_11
REMARK    6  A    between atoms: O_11  and  C_12
REMARK                            x       y       z     vdW  Elec       q    Type
REMARK                         _______ _______ _______ _____ _____    ______ ____
ROOT
ATOM      1  C   UNL     1      -0.019   1.526   0.010  0.00  0.00    +0.041 C 
ATOM      2  C   UNL     1       0.002  -0.004   0.002  0.00  0.00    +0.068 C 
ATOM      3  C   UNL     1       0.705  -0.496  -1.268  0.00  0.00    +0.071 C 
ATOM      4  C   UNL     1       0.931  -1.994  -1.129  0.00  0.00    -0.016 A 
ATOM      5  C   UNL     1       0.855  -2.582   0.086  0.00  0.00    +0.021 A 
ATOM      6  S   UNL     1       1.176  -4.291  -0.221  0.00  0.00    -0.076 S 
ATOM      7  C   UNL     1       1.405  -4.247  -1.884  0.00  0.00    +0.078 A 
ATOM      8  C   UNL     1       1.234  -2.908  -2.215  0.00  0.00    +0.090 A 
ATOM      9  C   UNL     1       0.561  -1.889   1.379  0.00  0.00    +0.203 C 
ATOM     10  O   UNL     1       0.694  -0.475   1.161  0.00  0.00    -0.368 OA
ATOM     11  C   UNL     1      -1.434  -0.531   0.020  0.00  0.00    +0.041 C 
ENDROOT
BRANCH   7  12
ATOM     12  N   UNL     1       1.697  -5.299  -2.730  0.00  0.00    -0.352 N 
ATOM     13  H   UNL     1       1.792  -6.196  -2.373  0.00  0.00    +0.143 HD
ATOM     14  H   UNL     1       1.807  -5.142  -3.681  0.00  0.00    +0.143 HD
ENDBRANCH   7  12
BRANCH   8  15
ATOM     15  C   UNL     1       1.353  -2.440  -3.595  0.00  0.00    +0.342 C 
ATOM     16  O   UNL     1       2.433  -2.078  -4.024  0.00  0.00    -0.245 OA
BRANCH  15  17
ATOM     17  O   UNL     1       0.267  -2.411  -4.394  0.00  0.00    -0.464 OA
ATOM     18  C   UNL     1       0.456  -1.943  -5.731  0.00  0.00    +0.280 C 
ENDBRANCH  15  17
ENDBRANCH   8  15
TORSDOF 3
