REMARK  Name = ZINC35894801
REMARK  9 active torsions:
REMARK  status: ('A' for Active; 'I' for Inactive)
REMARK    1  A    between atoms: C_1  and  O_2
REMARK    2  A    between atoms: O_2  and  C_3
REMARK    3  A    between atoms: C_3  and  C_4
REMARK    4  A    between atoms: C_4  and  C_5
REMARK    5  A    between atoms: C_5  and  N_6
REMARK    6  A    between atoms: C_7  and  C_9
REMARK    7  A    between atoms: C_14  and  N_33
REMARK    8  A    between atoms: N_22  and  C_25
REMARK    9  A    between atoms: C_25  and  C_26
REMARK                            x       y       z     vdW  Elec       q    Type
REMARK                         _______ _______ _______ _____ _____    ______ ____
ROOT
ATOM      1  C   UNL     1       1.790  -6.419  -3.044  0.00  0.00    +0.098 C 
ATOM      2  C   UNL     1       0.344  -6.856  -2.941  0.00  0.00    +0.051 C 
ATOM      3  C   UNL     1      -0.358  -6.802  -4.267  0.00  0.00    -0.023 A 
ATOM      4  C   UNL     1      -1.720  -6.564  -4.314  0.00  0.00    +0.038 A 
ATOM      5  C   UNL     1      -2.375  -6.516  -5.530  0.00  0.00    +0.127 A 
ATOM      6  C   UNL     1      -1.671  -6.705  -6.706  0.00  0.00    +0.034 A 
ATOM      7  C   UNL     1      -0.312  -6.943  -6.666  0.00  0.00    +0.025 A 
ATOM      8  C   UNL     1       0.351  -6.990  -5.444  0.00  0.00    +0.033 A 
ATOM      9  N   UNL     1       1.720  -7.218  -5.407  0.00  0.00    -0.329 N 
ATOM     10  C   UNL     1       2.531  -6.990  -4.223  0.00  0.00    +0.069 C 
ATOM     11  C   UNL     1       3.268  -8.284  -3.872  0.00  0.00    -0.055 C 
ATOM     12  N   UNL     1       4.033  -8.729  -5.046  0.00  0.00    +0.385 N 
ATOM     13  C   UNL     1       3.132  -9.034  -6.163  0.00  0.00    -0.059 C 
ATOM     14  C   UNL     1       2.406  -7.760  -6.598  0.00  0.00    +0.087 C 
ATOM     15  H   UNL     1       4.672  -7.999  -5.323  0.00  0.00    -0.081 HD
ENDROOT
BRANCH   1  17
ATOM     16  N   UNL     1       1.272  -4.165  -2.169  0.00  0.00    -0.315 N 
ATOM     17  C   UNL     1       1.828  -4.916  -3.140  0.00  0.00    +0.218 C 
ATOM     18  O   UNL     1       2.359  -4.382  -4.090  0.00  0.00    -0.275 OA
ATOM     19  H   UNL     1       0.847  -4.592  -1.409  0.00  0.00    +0.149 HD
BRANCH  16  20
ATOM     20  C   UNL     1       1.309  -2.703  -2.261  0.00  0.00    +0.106 C 
BRANCH  20  21
ATOM     21  C   UNL     1       0.613  -2.097  -1.041  0.00  0.00    +0.047 C 
BRANCH  21  22
ATOM     22  C   UNL     1       0.652  -0.570  -1.138  0.00  0.00    +0.161 C 
BRANCH  22  24
ATOM     23  C   UNL     1      -0.017   1.425   0.010  0.00  0.00    +0.193 C 
ATOM     24  O   UNL     1       0.002  -0.004   0.002  0.00  0.00    -0.383 OA
ENDBRANCH  22  24
ENDBRANCH  21  22
ENDBRANCH  20  21
ENDBRANCH  16  20
ENDBRANCH   1  17
BRANCH   5  25
ATOM     25  N   UNL     1      -3.832  -6.260  -5.575  0.00  0.00    +0.056 N 
ATOM     26  O   UNL     1      -4.448  -6.094  -4.548  0.00  0.00    -0.126 OA
ATOM     27  O   UNL     1      -4.406  -6.217  -6.638  0.00  0.00    -0.126 OA
ENDBRANCH   5  25
BRANCH  12  28
ATOM     28  C   UNL     1       4.797  -9.934  -4.697  0.00  0.00    -0.043 C 
BRANCH  28  29
ATOM     29  C   UNL     1       5.677 -10.325  -5.856  0.00  0.00    -0.064 A 
ATOM     30  C   UNL     1       5.198 -11.184  -6.828  0.00  0.00    +0.004 A 
ATOM     31  C   UNL     1       6.004 -11.542  -7.893  0.00  0.00    +0.038 A 
ATOM     32  C   UNL     1       7.291 -11.040  -7.985  0.00  0.00    +0.123 A 
ATOM     33  C   UNL     1       7.770 -10.180  -7.011  0.00  0.00    +0.038 A 
ATOM     34  C   UNL     1       6.960  -9.819  -5.950  0.00  0.00    +0.004 A 
ATOM     35  F   UNL     1       8.080 -11.390  -9.024  0.00  0.00    -0.205 F 
ENDBRANCH  28  29
ENDBRANCH  12  28
TORSDOF 8
