REMARK  Name = ZINC39237515
REMARK  6 active torsions:
REMARK  status: ('A' for Active; 'I' for Inactive)
REMARK    1  A    between atoms: C_1  and  C_2
REMARK    2  A    between atoms: C_3  and  C_32
REMARK    3  A    between atoms: C_4  and  C_26
REMARK    4  A    between atoms: C_10  and  C_11
REMARK    5  A    between atoms: C_16  and  C_17
REMARK    6  A    between atoms: N_34  and  C_35
REMARK                            x       y       z     vdW  Elec       q    Type
REMARK                         _______ _______ _______ _____ _____    ______ ____
ROOT
ATOM      1  C   UNL     1       0.735   1.503  -1.530  0.00  0.00    +0.066 C 
ATOM      2  C   UNL     1       0.644   0.170  -0.834  0.00  0.00    +0.051 C 
ATOM      3  C   UNL     1      -0.511  -0.184  -0.199  0.00  0.00    +0.063 C 
ATOM      4  C   UNL     1      -0.563  -1.530   0.486  0.00  0.00    +0.160 C 
ATOM      5  N   UNL     1       0.662  -2.376   0.416  0.00  0.00    -0.275 N 
ATOM      6  C   UNL     1       0.808  -3.592   0.959  0.00  0.00    +0.268 A 
ATOM      7  O   UNL     1      -0.097  -4.117   1.578  0.00  0.00    -0.266 OA
ATOM      8  C   UNL     1       2.106  -4.275   0.778  0.00  0.00    +0.077 A 
ATOM      9  C   UNL     1       2.503  -5.477   1.214  0.00  0.00    +0.009 C 
ATOM     10  S   UNL     1       3.002  -3.061  -0.178  0.00  0.00    -0.046 S 
ATOM     11  C   UNL     1       1.718  -1.828  -0.275  0.00  0.00    +0.178 A 
ATOM     12  N   UNL     1       1.687  -0.653  -0.849  0.00  0.00    -0.228 NA
ENDROOT
BRANCH   4  13
ATOM     13  C   UNL     1      -1.701  -2.313  -0.115  0.00  0.00    -0.020 A 
ATOM     14  C   UNL     1      -1.554  -2.904  -1.355  0.00  0.00    +0.006 A 
ATOM     15  C   UNL     1      -2.599  -3.623  -1.907  0.00  0.00    +0.000 A 
ATOM     16  C   UNL     1      -3.790  -3.750  -1.218  0.00  0.00    +0.000 A 
ATOM     17  C   UNL     1      -3.937  -3.159   0.024  0.00  0.00    +0.000 A 
ATOM     18  C   UNL     1      -2.891  -2.444   0.577  0.00  0.00    +0.006 A 
ENDBRANCH   4  13
BRANCH   9  19
ATOM     19  C   UNL     1       1.560  -6.337   2.014  0.00  0.00    +0.107 C 
ATOM     20  C   UNL     1       1.380  -7.690   1.355  0.00  0.00    +0.121 C 
ATOM     21  N   UNL     1       1.812  -8.564   2.206  0.00  0.00    -0.161 NA
ATOM     22  N   UNL     1       2.271  -7.980   3.382  0.00  0.00    -0.153 NA
ATOM     23  C   UNL     1       2.162  -6.677   3.364  0.00  0.00    +0.083 C 
BRANCH  23  24
ATOM     24  C   UNL     1       2.544  -5.735   4.428  0.00  0.00    -0.001 A 
ATOM     25  C   UNL     1       2.357  -4.361   4.250  0.00  0.00    +0.010 A 
ATOM     26  C   UNL     1       2.718  -3.484   5.252  0.00  0.00    +0.001 A 
ATOM     27  C   UNL     1       3.264  -3.962   6.431  0.00  0.00    +0.000 A 
ATOM     28  C   UNL     1       3.453  -5.321   6.614  0.00  0.00    +0.001 A 
ATOM     29  C   UNL     1       3.091  -6.210   5.624  0.00  0.00    +0.010 A 
ENDBRANCH  23  24
ENDBRANCH   9  19
BRANCH   3  30
ATOM     30  C   UNL     1      -1.622   0.680  -0.183  0.00  0.00    +0.248 C 
ATOM     31  O   UNL     1      -1.881   1.321   0.821  0.00  0.00    -0.270 OA
ATOM     32  N   UNL     1      -2.400   0.798  -1.277  0.00  0.00    -0.282 N 
ATOM     33  H   UNL     1      -2.243   0.230  -2.047  0.00  0.00    +0.155 HD
BRANCH  32  34
ATOM     34  C   UNL     1      -3.434   1.740  -1.301  0.00  0.00    +0.034 A 
ATOM     35  C   UNL     1      -4.178   1.986  -0.155  0.00  0.00    +0.023 A 
ATOM     36  C   UNL     1      -5.198   2.917  -0.182  0.00  0.00    +0.002 A 
ATOM     37  C   UNL     1      -5.479   3.602  -1.350  0.00  0.00    +0.000 A 
ATOM     38  C   UNL     1      -4.741   3.359  -2.494  0.00  0.00    +0.002 A 
ATOM     39  C   UNL     1      -3.715   2.434  -2.471  0.00  0.00    +0.023 A 
ENDBRANCH  32  34
ENDBRANCH   3  30
TORSDOF 5
