REMARK  Name = ZINC10059115
REMARK  8 active torsions:
REMARK  status: ('A' for Active; 'I' for Inactive)
REMARK    1  A    between atoms: C_1  and  C_2
REMARK    2  A    between atoms: C_2  and  C_3
REMARK    3  A    between atoms: C_3  and  N_4
REMARK    4  A    between atoms: C_11  and  C_14
REMARK    5  A    between atoms: C_11  and  O_28
REMARK    6  A    between atoms: C_14  and  C_15
REMARK    7  A    between atoms: C_15  and  C_17
REMARK    8  A    between atoms: C_18  and  C_19
REMARK                            x       y       z     vdW  Elec       q    Type
REMARK                         _______ _______ _______ _____ _____    ______ ____
ROOT
ATOM      1  N   UNL     1       1.260   1.923   0.000  0.00  0.00    -0.268 N 
ATOM      2  C   UNL     1       2.160   0.856  -0.014  0.00  0.00    +0.043 A 
ATOM      3  C   UNL     1       3.553   0.839  -0.027  0.00  0.00    +0.025 A 
ATOM      4  C   UNL     1       4.232  -0.362  -0.041  0.00  0.00    +0.017 A 
ATOM      5  C   UNL     1       3.536  -1.558  -0.041  0.00  0.00    +0.018 A 
ATOM      6  C   UNL     1       2.152  -1.549  -0.027  0.00  0.00    +0.024 A 
ATOM      7  C   UNL     1       1.473  -0.352  -0.014  0.00  0.00    +0.016 A 
ATOM      8  C   UNL     1       0.002  -0.004   0.002  0.00  0.00    +0.175 C 
ATOM      9  C   UNL     1      -0.018   1.510   0.010  0.00  0.00    +0.257 C 
ATOM     10  O   UNL     1      -1.004   2.217   0.019  0.00  0.00    -0.272 OA
ATOM     11 BR   UNL     1       4.474  -3.200  -0.060  0.00  0.00    -0.050 Br
ENDROOT
BRANCH   8  12
ATOM     12  O   UNL     1      -0.647  -0.507  -1.168  0.00  0.00    -0.374 OA
ATOM     13  H   UNL     1      -1.580  -0.262  -1.236  0.00  0.00    +0.211 HD
ENDBRANCH   8  12
BRANCH   1  14
ATOM     14  C   UNL     1       1.664   3.331   0.003  0.00  0.00    +0.113 C 
BRANCH  14  16
ATOM     15  C   UNL     1       2.239   5.285   1.449  0.00  0.00    +0.005 C 
ATOM     16  C   UNL     1       1.818   3.814   1.446  0.00  0.00    +0.016 C 
ENDBRANCH  14  16
ENDBRANCH   1  14
BRANCH   8  17
ATOM     17  C   UNL     1      -0.666  -0.556   1.263  0.00  0.00    +0.128 C 
BRANCH  17  18
ATOM     18  C   UNL     1      -2.106  -0.116   1.302  0.00  0.00    +0.160 C 
ATOM     19  O   UNL     1      -2.556   0.573   0.408  0.00  0.00    -0.293 OA
BRANCH  18  20
ATOM     20  C   UNL     1      -2.932  -0.503   2.376  0.00  0.00    +0.047 C 
ATOM     21  C   UNL     1      -4.228  -0.107   2.411  0.00  0.00    +0.011 C 
BRANCH  21  22
ATOM     22  C   UNL     1      -5.088  -0.510   3.530  0.00  0.00    -0.021 A 
ATOM     23  C   UNL     1      -4.574  -1.309   4.559  0.00  0.00    +0.012 A 
ATOM     24  C   UNL     1      -5.382  -1.681   5.610  0.00  0.00    +0.050 A 
ATOM     25  C   UNL     1      -6.711  -1.277   5.648  0.00  0.00    +0.166 A 
ATOM     26  C   UNL     1      -7.232  -0.485   4.623  0.00  0.00    +0.167 A 
ATOM     27  C   UNL     1      -6.427  -0.102   3.569  0.00  0.00    +0.057 A 
ATOM     28  O   UNL     1      -8.545  -0.229   4.896  0.00  0.00    -0.453 OA
ATOM     29  C   UNL     1      -8.930  -1.206   5.881  0.00  0.00    +0.466 C 
ATOM     30  O   UNL     1      -7.698  -1.514   6.559  0.00  0.00    -0.453 OA
ENDBRANCH  21  22
ENDBRANCH  18  20
ENDBRANCH  17  18
ENDBRANCH   8  17
TORSDOF 7
