REMARK  Name = ZINC14526990
REMARK  6 active torsions:
REMARK  status: ('A' for Active; 'I' for Inactive)
REMARK    1  A    between atoms: C_1  and  C_2
REMARK    2  A    between atoms: N_5  and  C_8
REMARK    3  A    between atoms: C_8  and  C_9
REMARK    4  A    between atoms: C_15  and  C_17
REMARK    5  A    between atoms: C_21  and  N_23
REMARK    6  A    between atoms: C_24  and  C_26
REMARK                            x       y       z     vdW  Elec       q    Type
REMARK                         _______ _______ _______ _____ _____    ______ ____
ROOT
ATOM      1  C   UNL     1      -0.158  -4.319   2.772  0.00  0.00    +0.034 A 
ATOM      2  C   UNL     1      -0.923  -4.561   3.865  0.00  0.00    +0.070 A 
ATOM      3  S   UNL     1       0.329  -5.028   5.049  0.00  0.00    -0.060 S 
ATOM      4  C   UNL     1       1.670  -4.869   4.046  0.00  0.00    +0.165 A 
ATOM      5  N   UNL     1       1.144  -4.491   2.900  0.00  0.00    -0.231 NA
ATOM      6  N   UNL     1       3.008  -5.089   4.351  0.00  0.00    -0.261 N 
ATOM      7  C   UNL     1       3.360  -5.483   5.590  0.00  0.00    +0.250 C 
ATOM      8  O   UNL     1       2.508  -5.646   6.441  0.00  0.00    -0.270 OA
ATOM      9  H   UNL     1       3.688  -4.958   3.671  0.00  0.00    +0.157 HD
ENDROOT
BRANCH   7  10
ATOM     10  C   UNL     1       4.783  -5.716   5.915  0.00  0.00    +0.039 A 
ATOM     11  C   UNL     1       5.764  -5.523   4.940  0.00  0.00    +0.014 A 
ATOM     12  C   UNL     1       7.091  -5.742   5.245  0.00  0.00    +0.022 A 
ATOM     13  C   UNL     1       7.456  -6.152   6.516  0.00  0.00    +0.062 A 
ATOM     14  C   UNL     1       6.485  -6.346   7.493  0.00  0.00    +0.053 A 
ATOM     15  C   UNL     1       5.150  -6.124   7.197  0.00  0.00    +0.037 A 
ATOM     16 CL   UNL     1       9.129  -6.424   6.890  0.00  0.00    -0.082 Cl
BRANCH  14  17
ATOM     17  N   UNL     1       6.858  -6.762   8.776  0.00  0.00    -0.280 N 
ATOM     18  C   UNL     1       5.975  -7.415   9.556  0.00  0.00    +0.255 C 
ATOM     19  O   UNL     1       4.888  -7.734   9.110  0.00  0.00    -0.269 OA
ATOM     20  H   UNL     1       7.753  -6.579   9.104  0.00  0.00    +0.155 HD
BRANCH  18  21
ATOM     21  C   UNL     1       6.323  -7.744  10.941  0.00  0.00    +0.074 A 
ATOM     22  C   UNL     1       5.570  -8.408  11.898  0.00  0.00    +0.021 A 
ATOM     23  C   UNL     1       6.170  -8.570  13.124  0.00  0.00    +0.008 A 
ATOM     24  C   UNL     1       7.422  -8.084  13.314  0.00  0.00    +0.046 A 
ATOM     25  S   UNL     1       7.827  -7.399  11.834  0.00  0.00    -0.092 S 
ENDBRANCH  18  21
ENDBRANCH  14  17
ENDBRANCH   7  10
BRANCH   1  26
ATOM     26  C   UNL     1      -0.769  -3.880   1.466  0.00  0.00    -0.022 C 
BRANCH  26  31
ATOM     27  C   UNL     1      -0.026   1.604   0.091  0.00  0.00    +0.007 C 
ATOM     28  C   UNL     1      -0.010   0.074   0.073  0.00  0.00    -0.018 C 
ATOM     29  C   UNL     1      -1.448  -0.453   0.095  0.00  0.00    -0.016 C 
ATOM     30  C   UNL     1      -1.423  -1.982   0.157  0.00  0.00    -0.078 C 
ATOM     31  N   UNL     1      -0.722  -2.415   1.371  0.00  0.00    +0.383 N 
ATOM     32  C   UNL     1       0.677  -1.974   1.323  0.00  0.00    -0.078 C 
ATOM     33  C   UNL     1       0.733  -0.445   1.307  0.00  0.00    -0.016 C 
ATOM     34  H   UNL     1      -1.173  -2.014   2.180  0.00  0.00    -0.081 HD
ENDBRANCH  26  31
ENDBRANCH   1  26
TORSDOF 5
