REMARK  Name = ZINC19312284
REMARK  10 active torsions:
REMARK  status: ('A' for Active; 'I' for Inactive)
REMARK    1  A    between atoms: C_3  and  C_6
REMARK    2  A    between atoms: C_6  and  C_8
REMARK    3  A    between atoms: C_6  and  N_23
REMARK    4  A    between atoms: C_8  and  N_9
REMARK    5  A    between atoms: N_9  and  C_10
REMARK    6  A    between atoms: C_10  and  N_12
REMARK    7  A    between atoms: N_12  and  C_13
REMARK    8  A    between atoms: C_13  and  C_14
REMARK    9  A    between atoms: C_14  and  S_15
REMARK   10  A    between atoms: S_15  and  C_16
REMARK                            x       y       z     vdW  Elec       q    Type
REMARK                         _______ _______ _______ _____ _____    ______ ____
ROOT
ATOM      1  N   UNL     1       6.132   7.830  -0.049  0.00  0.00    -0.328 N 
ATOM      2  H   UNL     1       6.912   7.064  -0.172  0.00  0.00    +0.148 HD
ENDROOT
BRANCH   1   3
ATOM      3  C   UNL     1       4.834   7.470  -0.003  0.00  0.00    +0.130 C 
ATOM      4  S   UNL     1       3.622   8.664   0.188  0.00  0.00    -0.019 S 
BRANCH   3   5
ATOM      5  N   UNL     1       4.491   6.171  -0.108  0.00  0.00    -0.326 N 
ATOM      6  H   UNL     1       5.270   5.405  -0.231  0.00  0.00    +0.148 HD
BRANCH   5   7
ATOM      7  C   UNL     1       3.080   5.780  -0.059  0.00  0.00    +0.114 C 
BRANCH   7   8
ATOM      8  C   UNL     1       2.967   4.261  -0.200  0.00  0.00    +0.093 C 
BRANCH   8   9
ATOM      9  S   UNL     1       1.220   3.777  -0.139  0.00  0.00    -0.124 S 
BRANCH   9  10
ATOM     10  C   UNL     1       1.257   2.024  -0.312  0.00  0.00    +0.008 A 
ATOM     11  C   UNL     1       0.071   1.298  -0.309  0.00  0.00    +0.016 A 
ATOM     12  C   UNL     1       0.104  -0.075  -0.445  0.00  0.00    +0.021 A 
ATOM     13  C   UNL     1       1.315  -0.730  -0.584  0.00  0.00    +0.041 A 
ATOM     14  C   UNL     1       2.497  -0.011  -0.587  0.00  0.00    +0.021 A 
ATOM     15  C   UNL     1       2.471   1.363  -0.452  0.00  0.00    +0.016 A 
ATOM     16 CL   UNL     1       1.352  -2.457  -0.754  0.00  0.00    -0.084 Cl
ENDBRANCH   9  10
ENDBRANCH   8   9
ENDBRANCH   7   8
ENDBRANCH   5   7
ENDBRANCH   3   5
ENDBRANCH   1   3
BRANCH   1  17
ATOM     17  C   UNL     1       6.505   9.242   0.066  0.00  0.00    +0.095 C 
BRANCH  17  18
ATOM     18  C   UNL     1       8.030   9.366   0.100  0.00  0.00    +0.016 C 
BRANCH  18  19
ATOM     19  N   UNL     1       8.403  10.765   0.344  0.00  0.00    +0.387 N 
ATOM     20  C   UNL     1       7.846  11.247   1.634  0.00  0.00    -0.078 C 
ATOM     21  C   UNL     1       8.735  12.472   1.968  0.00  0.00    -0.020 C 
ATOM     22  C   UNL     1      10.134  12.025   1.489  0.00  0.00    -0.020 C 
ATOM     23  C   UNL     1       9.870  10.911   0.458  0.00  0.00    -0.078 C 
ATOM     24  H   UNL     1       8.006  11.334  -0.510  0.00  0.00    -0.081 HD
ENDBRANCH  18  19
BRANCH  18  27
ATOM     25  C   UNL     1       9.548   7.723  -2.829  0.00  0.00    +0.041 A 
ATOM     26  C   UNL     1       9.146   7.713  -1.473  0.00  0.00    +0.043 A 
ATOM     27  C   UNL     1       8.601   8.917  -1.220  0.00  0.00    +0.093 A 
ATOM     28  O   UNL     1       8.645   9.648  -2.346  0.00  0.00    -0.469 OA
ATOM     29  C   UNL     1       9.224   8.931  -3.323  0.00  0.00    +0.195 A 
ENDBRANCH  18  27
ENDBRANCH  17  18
ENDBRANCH   1  17
TORSDOF 10
