REMARK  Name = ZINC01924051
REMARK  10 active torsions:
REMARK  status: ('A' for Active; 'I' for Inactive)
REMARK    1  A    between atoms: C_1  and  C_2
REMARK    2  A    between atoms: C_7  and  C_8
REMARK    3  A    between atoms: C_10  and  C_33
REMARK    4  A    between atoms: C_11  and  O_14
REMARK    5  A    between atoms: O_14  and  C_15
REMARK    6  A    between atoms: C_15  and  C_16
REMARK    7  A    between atoms: N_18  and  C_19
REMARK    8  A    between atoms: C_20  and  C_32
REMARK    9  A    between atoms: N_21  and  C_31
REMARK   10  A    between atoms: N_22  and  C_25
REMARK                            x       y       z     vdW  Elec       q    Type
REMARK                         _______ _______ _______ _____ _____    ______ ____
ROOT
ATOM      1  O   UNL     1       1.571   3.386   1.388  0.00  0.00    -0.476 OA
ENDROOT
BRANCH   1  12
ATOM      2  C   UNL     1       5.301  -2.998   1.068  0.00  0.00    +0.044 C 
ATOM      3  C   UNL     1       4.108  -2.173   1.478  0.00  0.00    -0.047 A 
ATOM      4  C   UNL     1       4.063  -0.831   1.168  0.00  0.00    +0.019 A 
ATOM      5  C   UNL     1       2.957  -0.072   1.550  0.00  0.00    +0.068 A 
ATOM      6  C   UNL     1       1.896  -0.673   2.246  0.00  0.00    +0.140 A 
ATOM      7  C   UNL     1       1.962  -2.027   2.549  0.00  0.00    +0.050 A 
ATOM      8  C   UNL     1       3.061  -2.767   2.166  0.00  0.00    -0.044 A 
ATOM      9  C   UNL     1       3.124  -4.235   2.499  0.00  0.00    +0.044 C 
ATOM     10  O   UNL     1       0.827   0.064   2.613  0.00  0.00    -0.448 OA
ATOM     11  C   UNL     1       0.729   1.376   2.336  0.00  0.00    +0.216 A 
ATOM     12  C   UNL     1       1.713   2.059   1.653  0.00  0.00    +0.214 A 
ATOM     13  C   UNL     1       2.873   1.367   1.234  0.00  0.00    +0.235 A 
ATOM     14  O   UNL     1       3.768   1.937   0.631  0.00  0.00    -0.283 OA
BRANCH  11  15
ATOM     15  C   UNL     1      -0.467   2.104   2.771  0.00  0.00    +0.173 A 
ATOM     16  C   UNL     1      -1.527   1.573   3.449  0.00  0.00    +0.053 A 
ATOM     17  C   UNL     1      -2.442   2.620   3.652  0.00  0.00    +0.042 A 
ATOM     18  C   UNL     1      -1.903   3.730   3.103  0.00  0.00    +0.196 A 
ATOM     19  O   UNL     1      -0.713   3.414   2.570  0.00  0.00    -0.460 OA
ENDBRANCH  11  15
ENDBRANCH   1  12
BRANCH   1  20
ATOM     20  C   UNL     1       2.075   4.300   2.364  0.00  0.00    +0.325 C 
BRANCH  20  21
ATOM     21  C   UNL     1       1.831   5.714   1.902  0.00  0.00    +0.255 C 
ATOM     22  O   UNL     1       1.280   5.918   0.841  0.00  0.00    -0.272 OA
ATOM     23  N   UNL     1       2.225   6.750   2.668  0.00  0.00    -0.277 N 
ATOM     24  H   UNL     1       2.596   6.589   3.549  0.00  0.00    +0.155 HD
BRANCH  23  25
ATOM     25  C   UNL     1       2.098   8.069   2.188  0.00  0.00    +0.121 A 
ATOM     26  C   UNL     1       3.070   9.007   2.153  0.00  0.00    +0.059 A 
ATOM     27  N   UNL     1       2.552  10.155   1.616  0.00  0.00    -0.282 N 
ATOM     28  N   UNL     1       1.203   9.948   1.305  0.00  0.00    -0.216 N 
ATOM     29  C   UNL     1       0.886   8.681   1.641  0.00  0.00    +0.293 A 
ATOM     30  O   UNL     1      -0.201   8.147   1.513  0.00  0.00    -0.264 OA
ATOM     31  C   UNL     1       3.290  11.403   1.405  0.00  0.00    +0.171 C 
ATOM     32  C   UNL     1       4.490   8.820   2.624  0.00  0.00    +0.067 C 
BRANCH  28  33
ATOM     33  C   UNL     1       0.335  10.890   0.744  0.00  0.00    +0.067 A 
ATOM     34  C   UNL     1       0.251  12.167   1.284  0.00  0.00    +0.028 A 
ATOM     35  C   UNL     1      -0.603  13.097   0.724  0.00  0.00    +0.002 A 
ATOM     36  C   UNL     1      -1.382  12.755  -0.367  0.00  0.00    +0.000 A 
ATOM     37  C   UNL     1      -1.304  11.482  -0.904  0.00  0.00    +0.002 A 
ATOM     38  C   UNL     1      -0.448  10.550  -0.352  0.00  0.00    +0.028 A 
ENDBRANCH  28  33
ENDBRANCH  23  25
ENDBRANCH  20  21
ENDBRANCH   1  20
TORSDOF 6
