REMARK  Name = ZINC27820691
REMARK  7 active torsions:
REMARK  status: ('A' for Active; 'I' for Inactive)
REMARK    1  A    between atoms: C_1  and  C_2
REMARK    2  A    between atoms: C_2  and  N_3
REMARK    3  A    between atoms: C_12  and  S_13
REMARK    4  A    between atoms: S_13  and  C_14
REMARK    5  A    between atoms: C_14  and  C_15
REMARK    6  A    between atoms: N_17  and  C_18
REMARK    7  A    between atoms: C_19  and  C_26
REMARK                            x       y       z     vdW  Elec       q    Type
REMARK                         _______ _______ _______ _____ _____    ______ ____
ROOT
ATOM      1  C   UNL     1       2.030   6.087   1.710  0.00  0.00    +0.228 C 
ATOM      2  O   UNL     1       2.693   5.846   0.724  0.00  0.00    -0.275 OA
ATOM      3  N   UNL     1       2.240   7.225   2.401  0.00  0.00    -0.279 N 
ATOM      4  H   UNL     1       1.638   7.444   3.296  0.00  0.00    +0.155 HD
ENDROOT
BRANCH   3   5
ATOM      5  C   UNL     1       3.213   8.121   1.984  0.00  0.00    +0.084 A 
ATOM      6  C   UNL     1       3.568   9.332   2.552  0.00  0.00    +0.068 A 
ATOM      7  C   UNL     1       4.642  10.091   1.913  0.00  0.00    -0.023 A 
ATOM      8  C   UNL     1       5.170   9.520   0.815  0.00  0.00    -0.004 A 
ATOM      9  S   UNL     1       4.274   7.998   0.622  0.00  0.00    -0.077 S 
ATOM     10  C   UNL     1       6.264  10.359   0.213  0.00  0.00    +0.043 C 
ATOM     11  C   UNL     1       6.657  11.348   1.333  0.00  0.00    +0.010 C 
ATOM     12  C   UNL     1       5.357  11.421   2.158  0.00  0.00    +0.037 C 
BRANCH   6  13
ATOM     13  C   UNL     1       2.894   9.834   3.754  0.00  0.00    +0.244 C 
ATOM     14  O   UNL     1       3.326   9.551   4.856  0.00  0.00    -0.270 OA
ATOM     15  N   UNL     1       1.798  10.608   3.638  0.00  0.00    -0.325 N 
ATOM     16  H   UNL     1       1.292  10.985   4.540  0.00  0.00    +0.145 HD
ATOM     17  H   UNL     1       1.408  10.864   2.642  0.00  0.00    +0.145 HD
ENDBRANCH   6  13
ENDBRANCH   3   5
BRANCH   1  18
ATOM     18  C   UNL     1       0.973   5.114   2.164  0.00  0.00    +0.173 C 
BRANCH  18  19
ATOM     19  S   UNL     1       0.934   3.697   1.039  0.00  0.00    -0.078 S 
BRANCH  19  29
ATOM     20  N   UNL     1      -0.698   1.558   1.213  0.00  0.00    -0.287 N 
ATOM     21  C   UNL     1      -1.681   0.816   1.778  0.00  0.00    +0.269 A 
ATOM     22  O   UNL     1      -2.012  -0.254   1.297  0.00  0.00    -0.266 OA
ATOM     23  C   UNL     1      -2.303   1.308   2.923  0.00  0.00    +0.102 A 
ATOM     24  C   UNL     1      -1.933   2.540   3.491  0.00  0.00    +0.086 A 
ATOM     25  C   UNL     1      -2.643   2.912   4.642  0.00  0.00    +0.036 A 
ATOM     26  C   UNL     1      -3.607   2.106   5.135  0.00  0.00    +0.048 A 
ATOM     27  S   UNL     1      -3.594   0.733   3.994  0.00  0.00    -0.090 S 
ATOM     28  N   UNL     1      -0.933   3.220   2.854  0.00  0.00    -0.222 NA
ATOM     29  C   UNL     1      -0.351   2.749   1.784  0.00  0.00    +0.173 A 
BRANCH  20  31
ATOM     30  C   UNL     1      -0.753   1.593  -1.232  0.00  0.00    +0.027 C 
ATOM     31  C   UNL     1      -0.013   1.086   0.008  0.00  0.00    +0.124 C 
ENDBRANCH  20  31
ENDBRANCH  19  29
ENDBRANCH  18  19
ENDBRANCH   1  18
TORSDOF 6
