REMARK  Name = ZINC32948623
REMARK  8 active torsions:
REMARK  status: ('A' for Active; 'I' for Inactive)
REMARK    1  A    between atoms: C_1  and  C_2
REMARK    2  A    between atoms: C_5  and  N_8
REMARK    3  A    between atoms: C_15  and  S_17
REMARK    4  A    between atoms: S_17  and  C_18
REMARK    5  A    between atoms: C_18  and  C_19
REMARK    6  A    between atoms: N_21  and  C_22
REMARK    7  A    between atoms: C_25  and  C_29
REMARK    8  A    between atoms: C_27  and  C_28
REMARK                            x       y       z     vdW  Elec       q    Type
REMARK                         _______ _______ _______ _____ _____    ______ ____
ROOT
ATOM      1  N   UNL     1       1.239   3.411  -0.044  0.00  0.00    -0.282 N 
ATOM      2  C   UNL     1       1.122   2.044  -0.045  0.00  0.00    +0.161 A 
ATOM      3  C   UNL     1       2.319   1.325  -0.066  0.00  0.00    +0.122 A 
ATOM      4  C   UNL     1       2.342  -0.063  -0.068  0.00  0.00    +0.268 A 
ATOM      5  O   UNL     1       3.399  -0.672  -0.086  0.00  0.00    -0.267 OA
ATOM      6  N   UNL     1       1.159  -0.724  -0.049  0.00  0.00    -0.301 N 
ATOM      7  H   UNL     1       1.143  -1.823  -0.050  0.00  0.00    +0.171 HD
ATOM      8  C   UNL     1       0.002  -0.003  -0.029  0.00  0.00    +0.172 A 
ATOM      9  N   UNL     1      -0.016   1.306  -0.027  0.00  0.00    -0.204 NA
ATOM     10  S   UNL     1       3.555   2.598  -0.083  0.00  0.00    -0.055 S 
ATOM     11  C   UNL     1       2.451   4.002  -0.063  0.00  0.00    +0.132 A 
ATOM     12  S   UNL     1       2.833   5.671  -0.066  0.00  0.00    -0.024 S 
ENDROOT
BRANCH   1  17
ATOM     13  C   UNL     1      -3.440   6.621   0.040  0.00  0.00    +0.044 C 
ATOM     14  C   UNL     1      -2.198   5.769   0.017  0.00  0.00    -0.050 A 
ATOM     15  C   UNL     1      -1.361   5.798  -1.083  0.00  0.00    +0.005 A 
ATOM     16  C   UNL     1      -0.221   5.018  -1.106  0.00  0.00    +0.026 A 
ATOM     17  C   UNL     1       0.084   4.204  -0.024  0.00  0.00    +0.050 A 
ATOM     18  C   UNL     1      -0.762   4.172   1.077  0.00  0.00    +0.026 A 
ATOM     19  C   UNL     1      -1.897   4.959   1.097  0.00  0.00    +0.005 A 
ENDBRANCH   1  17
BRANCH   8  20
ATOM     20  S   UNL     1      -1.532  -0.869  -0.005  0.00  0.00    -0.078 S 
BRANCH  20  21
ATOM     21  C   UNL     1      -2.682   0.529   0.015  0.00  0.00    +0.173 C 
BRANCH  21  22
ATOM     22  C   UNL     1      -4.098   0.015   0.038  0.00  0.00    +0.227 C 
ATOM     23  O   UNL     1      -4.310  -1.180   0.040  0.00  0.00    -0.275 OA
ATOM     24  N   UNL     1      -5.130   0.881   0.056  0.00  0.00    -0.285 N 
ATOM     25  H   UNL     1      -4.940   1.961   0.145  0.00  0.00    +0.155 HD
BRANCH  24  26
ATOM     26  C   UNL     1      -6.443   0.408  -0.040  0.00  0.00    +0.036 A 
ATOM     27  C   UNL     1      -6.700  -0.813  -0.650  0.00  0.00    +0.024 A 
ATOM     28  C   UNL     1      -7.997  -1.277  -0.743  0.00  0.00    +0.005 A 
ATOM     29  C   UNL     1      -9.040  -0.528  -0.229  0.00  0.00    -0.050 A 
ATOM     30  C   UNL     1      -8.788   0.688   0.379  0.00  0.00    +0.008 A 
ATOM     31  C   UNL     1      -7.492   1.155   0.480  0.00  0.00    -0.029 A 
ATOM     32  C   UNL     1      -7.217   2.478   1.149  0.00  0.00    +0.045 C 
ATOM     33  C   UNL     1     -10.455  -1.038  -0.332  0.00  0.00    +0.044 C 
ENDBRANCH  24  26
ENDBRANCH  21  22
ENDBRANCH  20  21
ENDBRANCH   8  20
TORSDOF 5
