REMARK  Name = ZINC33042701
REMARK  6 active torsions:
REMARK  status: ('A' for Active; 'I' for Inactive)
REMARK    1  A    between atoms: C_1  and  O_2
REMARK    2  A    between atoms: O_2  and  C_3
REMARK    3  A    between atoms: C_6  and  N_11
REMARK    4  A    between atoms: C_7  and  O_9
REMARK    5  A    between atoms: O_9  and  C_10
REMARK    6  A    between atoms: C_26  and  C_28
REMARK                            x       y       z     vdW  Elec       q    Type
REMARK                         _______ _______ _______ _____ _____    ______ ____
ROOT
ATOM      1  N   UNL     1       1.505   5.464   2.881  0.00  0.00    -0.266 N 
ATOM      2  C   UNL     1       2.183   4.582   2.121  0.00  0.00    +0.308 C 
ATOM      3  O   UNL     1       3.162   4.019   2.571  0.00  0.00    -0.252 OA
ATOM      4  N   UNL     1       1.776   4.324   0.862  0.00  0.00    -0.268 N 
ATOM      5  C   UNL     1       0.594   4.986   0.282  0.00  0.00    +0.148 C 
ATOM      6  C   UNL     1      -0.244   4.052  -0.563  0.00  0.00    +0.005 A 
ATOM      7  C   UNL     1      -1.535   3.626  -0.190  0.00  0.00    -0.030 A 
ATOM      8  C   UNL     1      -2.211   2.825  -1.056  0.00  0.00    -0.005 A 
ATOM      9  S   UNL     1      -1.083   2.618  -2.411  0.00  0.00    -0.075 S 
ATOM     10  C   UNL     1       0.231   3.599  -1.754  0.00  0.00    +0.090 A 
ATOM     11  N   UNL     1       1.492   3.899  -2.255  0.00  0.00    -0.312 N 
ATOM     12  C   UNL     1       1.893   4.309  -3.480  0.00  0.00    +0.092 A 
ATOM     13  C   UNL     1       3.220   4.564  -3.422  0.00  0.00    +0.020 A 
ATOM     14  C   UNL     1       3.652   4.274  -2.110  0.00  0.00    +0.025 A 
ATOM     15  C   UNL     1       2.585   3.843  -1.421  0.00  0.00    +0.050 A 
ATOM     16  C   UNL     1       2.495   3.360  -0.005  0.00  0.00    +0.162 C 
ATOM     17  C   UNL     1      -3.583   2.257  -0.893  0.00  0.00    +0.043 C 
ATOM     18  C   UNL     1      -3.996   2.407   0.579  0.00  0.00    +0.005 C 
ATOM     19  C   UNL     1      -3.688   3.837   1.032  0.00  0.00    +0.005 C 
ATOM     20  C   UNL     1      -2.176   4.042   1.132  0.00  0.00    +0.036 C 
ATOM     21  H   UNL     1       0.584   5.928   2.497  0.00  0.00    +0.156 HD
ENDROOT
BRANCH   1  25
ATOM     22  C   UNL     1       2.898   6.438   6.695  0.00  0.00    +0.124 A 
ATOM     23  C   UNL     1       3.224   5.215   6.126  0.00  0.00    +0.047 A 
ATOM     24  C   UNL     1       2.763   4.893   4.864  0.00  0.00    +0.030 A 
ATOM     25  C   UNL     1       1.973   5.792   4.163  0.00  0.00    +0.077 A 
ATOM     26  C   UNL     1       1.649   7.022   4.730  0.00  0.00    +0.145 A 
ATOM     27  C   UNL     1       2.108   7.340   5.998  0.00  0.00    +0.093 A 
BRANCH  22  29
ATOM     28  C   UNL     1       4.160   5.776   8.599  0.00  0.00    +0.277 C 
ATOM     29  O   UNL     1       3.352   6.752   7.938  0.00  0.00    -0.495 OA
ENDBRANCH  22  29
BRANCH  26  30
ATOM     30  O   UNL     1       0.880   7.907   4.043  0.00  0.00    -0.493 OA
ATOM     31  C   UNL     1       0.588   9.149   4.686  0.00  0.00    +0.277 C 
ENDBRANCH  26  30
ENDBRANCH   1  25
BRANCH  16  32
ATOM     32  C   UNL     1       1.768   2.040   0.018  0.00  0.00    +0.016 A 
ATOM     33  C   UNL     1       1.132   1.434   1.051  0.00  0.00    +0.013 A 
ATOM     34  C   UNL     1       0.526   0.210   0.839  0.00  0.00    +0.008 A 
ATOM     35  C   UNL     1       0.585  -0.348  -0.394  0.00  0.00    +0.045 A 
ATOM     36  S   UNL     1       1.520   0.869  -1.306  0.00  0.00    -0.099 S 
ENDBRANCH  16  32
TORSDOF 4
