REMARK  Name = ZINC36345856
REMARK  17 active torsions:
REMARK  status: ('A' for Active; 'I' for Inactive)
REMARK    1  A    between atoms: C_1  and  C_2
REMARK    2  A    between atoms: C_5  and  O_8
REMARK    3  A    between atoms: O_8  and  C_9
REMARK    4  A    between atoms: C_10  and  C_21
REMARK    5  A    between atoms: C_11  and  C_20
REMARK    6  A    between atoms: N_13  and  C_14
REMARK    7  A    between atoms: C_21  and  N_22
REMARK    8  A    between atoms: N_22  and  C_23
REMARK    9  A    between atoms: N_22  and  C_36
REMARK   10  A    between atoms: C_23  and  C_24
REMARK   11  A    between atoms: C_24  and  C_26
REMARK   12  A    between atoms: C_24  and  O_35
REMARK   13  A    between atoms: C_26  and  O_27
REMARK   14  A    between atoms: O_27  and  C_28
REMARK   15  A    between atoms: C_28  and  C_29
REMARK   16  A    between atoms: C_36  and  C_37
REMARK   17  A    between atoms: C_36  and  C_38
REMARK                            x       y       z     vdW  Elec       q    Type
REMARK                         _______ _______ _______ _____ _____    ______ ____
ROOT
ATOM      1  C   UNL     1       0.582  -4.724   1.053  0.00  0.00    +0.225 A 
ATOM      2  C   UNL     1      -0.171  -5.855   1.119  0.00  0.00    +0.021 A 
ATOM      3  C   UNL     1      -0.823  -5.866   2.355  0.00  0.00    +0.065 A 
ATOM      4  N   UNL     1      -0.482  -4.787   3.013  0.00  0.00    -0.168 NA
ATOM      5  N   UNL     1       0.408  -4.050   2.221  0.00  0.00    -0.200 N 
ATOM      6  C   UNL     1      -1.761  -6.938   2.847  0.00  0.00    +0.068 C 
ENDROOT
BRANCH   5   7
ATOM      7  C   UNL     1       1.009  -2.832   2.569  0.00  0.00    +0.069 A 
ATOM      8  C   UNL     1       2.333  -2.589   2.232  0.00  0.00    +0.028 A 
ATOM      9  C   UNL     1       2.923  -1.388   2.576  0.00  0.00    +0.002 A 
ATOM     10  C   UNL     1       2.195  -0.429   3.256  0.00  0.00    +0.000 A 
ATOM     11  C   UNL     1       0.875  -0.668   3.593  0.00  0.00    +0.002 A 
ATOM     12  C   UNL     1       0.278  -1.865   3.246  0.00  0.00    +0.028 A 
ENDBRANCH   5   7
BRANCH   1  13
ATOM     13  O   UNL     1       1.367  -4.342   0.014  0.00  0.00    -0.438 OA
BRANCH  13  18
ATOM     14  C   UNL     1      -0.840  -0.866  -3.829  0.00  0.00    +0.044 C 
ATOM     15  C   UNL     1      -0.249  -1.796  -2.800  0.00  0.00    -0.050 A 
ATOM     16  C   UNL     1       1.086  -2.147  -2.874  0.00  0.00    +0.007 A 
ATOM     17  C   UNL     1       1.630  -2.999  -1.932  0.00  0.00    +0.046 A 
ATOM     18  C   UNL     1       0.835  -3.503  -0.913  0.00  0.00    +0.130 A 
ATOM     19  C   UNL     1      -0.505  -3.149  -0.842  0.00  0.00    +0.046 A 
ATOM     20  C   UNL     1      -1.043  -2.292  -1.782  0.00  0.00    +0.007 A 
ENDBRANCH  13  18
ENDBRANCH   1  13
BRANCH   2  21
ATOM     21  C   UNL     1      -0.282  -6.910   0.048  0.00  0.00    -0.035 C 
BRANCH  21  22
ATOM     22  N   UNL     1       1.058  -7.410  -0.288  0.00  0.00    +0.386 N 
ATOM     23  H   UNL     1       1.660  -6.633  -0.515  0.00  0.00    -0.081 HD
BRANCH  22  24
ATOM     24  C   UNL     1       1.611  -8.138   0.862  0.00  0.00    -0.074 C 
ATOM     25  C   UNL     1       1.909  -7.152   1.994  0.00  0.00    -0.014 C 
ATOM     26  C   UNL     1       0.597  -9.177   1.344  0.00  0.00    -0.014 C 
ENDBRANCH  22  24
BRANCH  22  27
ATOM     27  C   UNL     1       0.968  -8.315  -1.442  0.00  0.00    -0.044 C 
BRANCH  27  28
ATOM     28  C   UNL     1       2.376  -8.657  -1.933  0.00  0.00    +0.124 C 
BRANCH  28  29
ATOM     29  O   UNL     1       3.035  -9.470  -0.959  0.00  0.00    -0.391 OA
ATOM     30  H   UNL     1       2.630 -10.338  -0.833  0.00  0.00    +0.210 HD
ENDBRANCH  28  29
BRANCH  28  31
ATOM     31  C   UNL     1       2.284  -9.419  -3.256  0.00  0.00    +0.189 C 
BRANCH  31  32
ATOM     32  O   UNL     1       3.599  -9.637  -3.772  0.00  0.00    -0.373 OA
BRANCH  32  33
ATOM     33  C   UNL     1       3.625 -10.346  -5.013  0.00  0.00    +0.195 C 
BRANCH  33  34
ATOM     34  C   UNL     1       5.053 -10.518  -5.463  0.00  0.00    -0.022 A 
ATOM     35  C   UNL     1       5.648  -9.557  -6.258  0.00  0.00    +0.006 A 
ATOM     36  C   UNL     1       6.958  -9.715  -6.670  0.00  0.00    +0.000 A 
ATOM     37  C   UNL     1       7.673 -10.834  -6.287  0.00  0.00    +0.000 A 
ATOM     38  C   UNL     1       7.078 -11.795  -5.491  0.00  0.00    +0.000 A 
ATOM     39  C   UNL     1       5.770 -11.635  -5.075  0.00  0.00    +0.006 A 
ENDBRANCH  33  34
ENDBRANCH  32  33
ENDBRANCH  31  32
ENDBRANCH  28  31
ENDBRANCH  27  28
ENDBRANCH  22  27
ENDBRANCH  21  22
ENDBRANCH   2  21
TORSDOF 13
