REMARK  Name = ZINC60031331
REMARK  8 active torsions:
REMARK  status: ('A' for Active; 'I' for Inactive)
REMARK    1  A    between atoms: C_1  and  C_2
REMARK    2  A    between atoms: N_5  and  C_8
REMARK    3  A    between atoms: C_8  and  C_10
REMARK    4  A    between atoms: C_8  and  C_26
REMARK    5  A    between atoms: C_10  and  N_11
REMARK    6  A    between atoms: C_12  and  C_14
REMARK    7  A    between atoms: C_14  and  N_15
REMARK    8  A    between atoms: C_16  and  C_18
REMARK                            x       y       z     vdW  Elec       q    Type
REMARK                         _______ _______ _______ _____ _____    ______ ____
ROOT
ATOM      1  N   UNL     1      -0.466  -3.810   3.844  0.00  0.00    -0.315 N 
ATOM      2  C   UNL     1       0.167  -3.986   5.020  0.00  0.00    +0.230 C 
ATOM      3  O   UNL     1       1.190  -4.635   5.067  0.00  0.00    -0.274 OA
ATOM      4  H   UNL     1      -1.285  -3.291   3.806  0.00  0.00    +0.149 HD
ENDROOT
BRANCH   1   5
ATOM      5  C   UNL     1       0.082  -4.402   2.621  0.00  0.00    +0.094 C 
BRANCH   5   6
ATOM      6  C   UNL     1      -0.753  -3.956   1.419  0.00  0.00    -0.013 C 
BRANCH   6  11
ATOM      7  C   UNL     1      -0.530   1.625   0.269  0.00  0.00    +0.007 C 
ATOM      8  C   UNL     1      -0.394   0.104   0.176  0.00  0.00    -0.018 C 
ATOM      9  C   UNL     1      -1.781  -0.540   0.254  0.00  0.00    -0.015 C 
ATOM     10  C   UNL     1      -1.632  -2.063   0.241  0.00  0.00    -0.078 C 
ATOM     11  N   UNL     1      -0.829  -2.489   1.393  0.00  0.00    +0.386 N 
ATOM     12  C   UNL     1       0.526  -1.934   1.288  0.00  0.00    -0.078 C 
ATOM     13  C   UNL     1       0.460  -0.406   1.341  0.00  0.00    -0.015 C 
ATOM     14  H   UNL     1      -1.261  -2.161   2.243  0.00  0.00    -0.081 HD
ENDBRANCH   6  11
BRANCH   6  15
ATOM     15  C   UNL     1      -2.143  -4.528   1.533  0.00  0.00    -0.022 A 
ATOM     16  C   UNL     1      -2.671  -5.616   0.921  0.00  0.00    +0.009 A 
ATOM     17  C   UNL     1      -3.985  -5.959   1.179  0.00  0.00    +0.008 A 
ATOM     18  C   UNL     1      -4.707  -5.197   2.037  0.00  0.00    +0.045 A 
ATOM     19  S   UNL     1      -3.519  -3.953   2.515  0.00  0.00    -0.103 S 
ENDBRANCH   6  15
ENDBRANCH   5   6
ENDBRANCH   1   5
BRANCH   2  20
ATOM     20  C   UNL     1      -0.397  -3.376   6.278  0.00  0.00    +0.200 C 
BRANCH  20  21
ATOM     21  N   UNL     1       0.468  -3.710   7.412  0.00  0.00    -0.303 N 
ATOM     22  C   UNL     1       0.159  -3.269   8.648  0.00  0.00    +0.245 C 
ATOM     23  O   UNL     1      -0.837  -2.594   8.821  0.00  0.00    -0.270 OA
ATOM     24  H   UNL     1       1.263  -4.248   7.274  0.00  0.00    +0.150 HD
BRANCH  22  25
ATOM     25  C   UNL     1       1.032  -3.605   9.793  0.00  0.00    +0.042 A 
ATOM     26  C   UNL     1       2.179  -4.375   9.596  0.00  0.00    +0.051 A 
ATOM     27  C   UNL     1       2.991  -4.687  10.670  0.00  0.00    +0.127 A 
ATOM     28  C   UNL     1       2.668  -4.237  11.940  0.00  0.00    +0.076 A 
ATOM     29  C   UNL     1       1.531  -3.472  12.141  0.00  0.00    +0.127 A 
ATOM     30  C   UNL     1       0.714  -3.150  11.073  0.00  0.00    +0.051 A 
ATOM     31  F   UNL     1       1.221  -3.036  13.382  0.00  0.00    -0.205 F 
ATOM     32  F   UNL     1       4.102  -5.432  10.481  0.00  0.00    -0.205 F 
ENDBRANCH  22  25
ENDBRANCH  20  21
ENDBRANCH   2  20
TORSDOF 7
