REMARK  Name = ZINC64972461
REMARK  7 active torsions:
REMARK  status: ('A' for Active; 'I' for Inactive)
REMARK    1  A    between atoms: C_1  and  C_2
REMARK    2  A    between atoms: C_5  and  C_33
REMARK    3  A    between atoms: C_6  and  S_8
REMARK    4  A    between atoms: S_8  and  N_11
REMARK    5  A    between atoms: C_20  and  C_22
REMARK    6  A    between atoms: N_24  and  C_25
REMARK    7  A    between atoms: C_25  and  C_26
REMARK                            x       y       z     vdW  Elec       q    Type
REMARK                         _______ _______ _______ _____ _____    ______ ____
ROOT
ATOM      1  N   UNL     1      -1.293  -3.541   2.978  0.00  0.00    -0.160 NA
ATOM      2  C   UNL     1      -2.431  -2.890   3.635  0.00  0.00    +0.145 C 
ATOM      3  C   UNL     1      -3.496  -3.913   3.938  0.00  0.00    -0.028 A 
ATOM      4  C   UNL     1      -4.539  -3.535   4.773  0.00  0.00    +0.005 A 
ATOM      5  C   UNL     1      -5.549  -4.423   5.079  0.00  0.00    +0.000 A 
ATOM      6  C   UNL     1      -5.523  -5.700   4.549  0.00  0.00    +0.000 A 
ATOM      7  C   UNL     1      -4.485  -6.079   3.723  0.00  0.00    +0.004 A 
ATOM      8  C   UNL     1      -3.463  -5.187   3.418  0.00  0.00    -0.041 A 
ATOM      9  C   UNL     1      -2.349  -5.679   2.531  0.00  0.00    +0.065 C 
ATOM     10  C   UNL     1      -1.593  -4.503   1.903  0.00  0.00    +0.170 C 
ENDROOT
BRANCH  10  11
ATOM     11  C   UNL     1      -0.309  -4.990   1.283  0.00  0.00    +0.233 C 
ATOM     12  O   UNL     1       0.500  -5.593   1.957  0.00  0.00    -0.274 OA
ATOM     13  N   UNL     1      -0.059  -4.758  -0.021  0.00  0.00    -0.310 N 
ATOM     14  H   UNL     1      -0.706  -4.276  -0.560  0.00  0.00    +0.149 HD
BRANCH  13  15
ATOM     15  C   UNL     1       1.189  -5.232  -0.624  0.00  0.00    +0.139 C 
BRANCH  15  16
ATOM     16  C   UNL     1       1.221  -4.846  -2.080  0.00  0.00    -0.030 A 
ATOM     17  C   UNL     1       0.700  -5.700  -3.034  0.00  0.00    +0.006 A 
ATOM     18  C   UNL     1       0.730  -5.347  -4.369  0.00  0.00    +0.020 A 
ATOM     19  C   UNL     1       1.281  -4.137  -4.752  0.00  0.00    +0.041 A 
ATOM     20  C   UNL     1       1.803  -3.282  -3.798  0.00  0.00    +0.020 A 
ATOM     21  C   UNL     1       1.768  -3.634  -2.462  0.00  0.00    +0.006 A 
ATOM     22 CL   UNL     1       1.319  -3.692  -6.430  0.00  0.00    -0.084 Cl
ENDBRANCH  15  16
ENDBRANCH  13  15
ENDBRANCH  10  11
BRANCH   1  23
ATOM     23  S   UNL     1       0.267  -3.204   3.421  0.00  0.00    +0.062 S 
ATOM     24  O   UNL     1       0.207  -2.087   4.298  0.00  0.00    -0.153 OA
ATOM     25  O   UNL     1       1.035  -3.194   2.226  0.00  0.00    -0.153 OA
BRANCH  23  31
ATOM     26  C   UNL     1       3.459  -7.278   4.149  0.00  0.00    +0.044 C 
ATOM     27  C   UNL     1       2.330  -6.421   4.660  0.00  0.00    -0.049 A 
ATOM     28  C   UNL     1       1.745  -6.705   5.881  0.00  0.00    +0.004 A 
ATOM     29  C   UNL     1       0.709  -5.919   6.349  0.00  0.00    +0.005 A 
ATOM     30  C   UNL     1       0.258  -4.850   5.598  0.00  0.00    -0.024 A 
ATOM     31  C   UNL     1       0.842  -4.566   4.378  0.00  0.00    +0.109 A 
ATOM     32  C   UNL     1       1.882  -5.349   3.911  0.00  0.00    +0.032 A 
ATOM     33  C   UNL     1      -0.873  -3.994   6.109  0.00  0.00    +0.046 C 
ENDBRANCH  23  31
ENDBRANCH   1  23
TORSDOF 5
