REMARK  Name = ZINC63652594
REMARK  8 active torsions:
REMARK  status: ('A' for Active; 'I' for Inactive)
REMARK    1  A    between atoms: C_1  and  C_2
REMARK    2  A    between atoms: C_5  and  C_28
REMARK    3  A    between atoms: C_6  and  N_8
REMARK    4  A    between atoms: N_8  and  S_9
REMARK    5  A    between atoms: S_9  and  C_12
REMARK    6  A    between atoms: C_14  and  C_27
REMARK    7  A    between atoms: C_16  and  C_26
REMARK    8  A    between atoms: C_17  and  C_18
REMARK                            x       y       z     vdW  Elec       q    Type
REMARK                         _______ _______ _______ _____ _____    ______ ____
ROOT
ATOM      1  C   UNL     1      -0.013  -3.405   5.178  0.00  0.00    +0.233 C 
ATOM      2  C   UNL     1       1.252  -4.218   4.982  0.00  0.00    +0.047 C 
ATOM      3  N   UNL     1       2.020  -3.950   5.987  0.00  0.00    -0.259 NA
ATOM      4  C   UNL     1       1.491  -3.078   6.856  0.00  0.00    +0.049 C 
ATOM      5  C   UNL     1       0.253  -2.670   6.479  0.00  0.00    +0.067 C 
ATOM      6  C   UNL     1       2.188  -2.607   8.106  0.00  0.00    +0.066 C 
ATOM      7  C   UNL     1       1.555  -5.154   3.840  0.00  0.00    +0.063 C 
ENDROOT
BRANCH   5   8
ATOM      8  C   UNL     1      -0.630  -1.732   7.170  0.00  0.00    +0.247 C 
ATOM      9  O   UNL     1      -0.727  -0.584   6.776  0.00  0.00    -0.270 OA
ATOM     10  N   UNL     1      -1.337  -2.137   8.244  0.00  0.00    -0.298 N 
ATOM     11  C   UNL     1      -1.143  -3.482   8.804  0.00  0.00    +0.108 C 
ATOM     12  C   UNL     1      -0.837  -3.353  10.299  0.00  0.00    +0.019 C 
ATOM     13  C   UNL     1      -1.946  -2.545  10.976  0.00  0.00    +0.003 C 
ATOM     14  C   UNL     1      -1.997  -1.140  10.371  0.00  0.00    +0.019 C 
ATOM     15  C   UNL     1      -2.312  -1.241   8.880  0.00  0.00    +0.108 C 
ENDBRANCH   5   8
BRANCH   1  16
ATOM     16  S   UNL     1      -0.241  -2.232   3.813  0.00  0.00    +0.075 S 
ATOM     17  O   UNL     1       0.988  -1.587   3.511  0.00  0.00    -0.153 OA
ATOM     18  O   UNL     1      -1.427  -1.475   4.011  0.00  0.00    -0.153 OA
BRANCH  16  19
ATOM     19  N   UNL     1      -0.559  -3.176   2.490  0.00  0.00    -0.101 NA
BRANCH  19  25
ATOM     20  C   UNL     1      -0.939   0.886  -0.251  0.00  0.00    +0.044 C 
ATOM     21  C   UNL     1      -0.979  -0.614  -0.111  0.00  0.00    -0.049 A 
ATOM     22  C   UNL     1      -1.244  -1.403  -1.215  0.00  0.00    +0.004 A 
ATOM     23  C   UNL     1      -1.282  -2.780  -1.092  0.00  0.00    +0.005 A 
ATOM     24  C   UNL     1      -1.056  -3.371   0.136  0.00  0.00    -0.026 A 
ATOM     25  C   UNL     1      -0.789  -2.581   1.247  0.00  0.00    +0.077 A 
ATOM     26  C   UNL     1      -0.746  -1.199   1.118  0.00  0.00    +0.030 A 
ATOM     27  C   UNL     1      -1.098  -4.872   0.270  0.00  0.00    +0.046 C 
ENDBRANCH  19  25
ENDBRANCH  16  19
ENDBRANCH   1  16
TORSDOF 4
