REMARK  Name = ZINC21392017
REMARK  5 active torsions:
REMARK  status: ('A' for Active; 'I' for Inactive)
REMARK    1  A    between atoms: C_7  and  C_11
REMARK    2  A    between atoms: C_14  and  S_16
REMARK    3  A    between atoms: S_16  and  C_17
REMARK    4  A    between atoms: C_17  and  C_18
REMARK    5  A    between atoms: C_31  and  C_33
REMARK                            x       y       z     vdW  Elec       q    Type
REMARK                         _______ _______ _______ _____ _____    ______ ____
ROOT
ATOM      1  C   UNL     1       9.877   3.963  -0.070  0.00  0.00    +0.231 C 
ATOM      2  O   UNL     1      10.178   5.138  -0.066  0.00  0.00    -0.274 OA
ATOM      3  N   UNL     1      10.840   3.021  -0.084  0.00  0.00    -0.257 N 
ATOM      4  C   UNL     1      10.506   1.659  -0.088  0.00  0.00    +0.058 A 
ATOM      5  C   UNL     1       9.969   1.067  -1.219  0.00  0.00    +0.025 A 
ATOM      6  C   UNL     1       9.668  -0.283  -1.212  0.00  0.00    +0.002 A 
ATOM      7  C   UNL     1       9.901  -1.043  -0.081  0.00  0.00    +0.002 A 
ATOM      8  C   UNL     1      10.429  -0.458   1.056  0.00  0.00    +0.025 A 
ATOM      9  C   UNL     1      10.724   0.896   1.060  0.00  0.00    +0.055 A 
ATOM     10  N   UNL     1      11.206   1.522   2.215  0.00  0.00    -0.284 N 
ATOM     11  C   UNL     1      12.281   2.337   2.154  0.00  0.00    +0.219 C 
ATOM     12  O   UNL     1      12.638   2.938   3.145  0.00  0.00    -0.275 OA
ATOM     13  C   UNL     1      13.039   2.505   0.864  0.00  0.00    +0.128 C 
ATOM     14  C   UNL     1      12.254   3.400  -0.101  0.00  0.00    +0.194 C 
ATOM     15  H   UNL     1      10.709   1.351   3.181  0.00  0.00    +0.155 HD
ENDROOT
BRANCH  14  16
ATOM     16  C   UNL     1      12.807   3.236  -1.518  0.00  0.00    +0.409 C 
ATOM     17  F   UNL     1      12.092   4.058  -2.396  0.00  0.00    -0.169 F 
ATOM     18  F   UNL     1      14.158   3.598  -1.536  0.00  0.00    -0.169 F 
ATOM     19  F   UNL     1      12.677   1.902  -1.918  0.00  0.00    -0.169 F 
ENDBRANCH  14  16
BRANCH   1  20
ATOM     20  C   UNL     1       8.426   3.557  -0.058  0.00  0.00    +0.175 C 
BRANCH  20  21
ATOM     21  S   UNL     1       7.385   5.038  -0.041  0.00  0.00    -0.056 S 
BRANCH  21  25
ATOM     22  C   UNL     1       3.652   3.980  -0.011  0.00  0.00    +0.251 A 
ATOM     23  N   UNL     1       4.262   2.819  -0.024  0.00  0.00    -0.106 NA
ATOM     24  N   UNL     1       5.535   3.005  -0.035  0.00  0.00    -0.101 NA
ATOM     25  C   UNL     1       5.789   4.291  -0.030  0.00  0.00    +0.278 A 
ATOM     26  O   UNL     1       4.606   4.937  -0.021  0.00  0.00    -0.411 OA
BRANCH  22  33
ATOM     27  C   UNL     1      -0.013   1.076   0.008  0.00  0.00    +0.001 A 
ATOM     28  C   UNL     1      -1.226   1.748   0.017  0.00  0.00    +0.002 A 
ATOM     29  C   UNL     1      -1.266   3.125   0.031  0.00  0.00    +0.026 A 
ATOM     30  C   UNL     1      -0.079   3.851   0.024  0.00  0.00    +0.047 A 
ATOM     31  C   UNL     1       1.147   3.164   0.008  0.00  0.00    +0.012 A 
ATOM     32  C   UNL     1       1.165   1.771   0.000  0.00  0.00    +0.011 A 
ATOM     33  C   UNL     1       2.193   4.200   0.004  0.00  0.00    +0.063 A 
ATOM     34  C   UNL     1       1.554   5.399   0.016  0.00  0.00    +0.097 A 
ATOM     35  N   UNL     1       0.204   5.200   0.028  0.00  0.00    -0.360 N 
ATOM     36  H   UNL     1      -0.616   5.934   0.040  0.00  0.00    +0.165 HD
ENDBRANCH  22  33
ENDBRANCH  21  25
ENDBRANCH  20  21
ENDBRANCH   1  20
TORSDOF 5
