REMARK  Name = ZINC04092946
REMARK  12 active torsions:
REMARK  status: ('A' for Active; 'I' for Inactive)
REMARK    1  A    between atoms: C_1  and  C_2
REMARK    2  A    between atoms: C_2  and  O_3
REMARK    3  A    between atoms: O_3  and  C_4
REMARK    4  A    between atoms: C_4  and  C_6
REMARK    5  A    between atoms: C_6  and  C_36
REMARK    6  A    between atoms: C_11  and  C_14
REMARK    7  A    between atoms: C_17  and  N_20
REMARK    8  A    between atoms: N_20  and  C_21
REMARK    9  A    between atoms: N_20  and  C_22
REMARK   10  A    between atoms: N_25  and  C_28
REMARK   11  A    between atoms: C_31  and  O_34
REMARK   12  A    between atoms: O_34  and  C_35
REMARK                            x       y       z     vdW  Elec       q    Type
REMARK                         _______ _______ _______ _____ _____    ______ ____
ROOT
ATOM      1  C   UNL     1       1.573  -2.209   2.815  0.00  0.00    +0.041 C 
ATOM      2  C   UNL     1       0.876  -3.540   3.167  0.00  0.00    +0.086 C 
ATOM      3  C   UNL     1       0.919  -3.614   4.718  0.00  0.00    +0.077 C 
ATOM      4  C   UNL     1       1.651  -2.328   5.155  0.00  0.00    -0.027 C 
ATOM      5  N   UNL     1       1.423  -1.371   4.032  0.00  0.00    +0.395 N 
ATOM      6  C   UNL     1      -0.539  -3.532   5.111  0.00  0.00    +0.229 C 
ATOM      7  O   UNL     1      -0.961  -3.554   6.247  0.00  0.00    -0.275 OA
ATOM      8  N   UNL     1      -1.291  -3.430   4.009  0.00  0.00    -0.210 N 
ATOM      9  C   UNL     1      -0.597  -3.431   2.847  0.00  0.00    +0.229 C 
ATOM     10  O   UNL     1      -1.069  -3.354   1.733  0.00  0.00    -0.275 OA
ATOM     11  C   UNL     1       3.053  -2.444   2.508  0.00  0.00    +0.002 C 
ATOM     12  H   UNL     1       2.122  -0.644   4.048  0.00  0.00    -0.083 HD
ATOM     13  H   UNL     1       0.496  -0.975   4.076  0.00  0.00    -0.083 HD
ENDROOT
BRANCH   4  14
ATOM     14  C   UNL     1       1.044  -1.783   6.422  0.00  0.00    -0.060 A 
ATOM     15  C   UNL     1      -0.128  -1.050   6.367  0.00  0.00    +0.004 A 
ATOM     16  C   UNL     1      -0.686  -0.549   7.526  0.00  0.00    +0.023 A 
ATOM     17  C   UNL     1      -0.071  -0.783   8.749  0.00  0.00    +0.029 A 
ATOM     18  C   UNL     1       1.105  -1.521   8.801  0.00  0.00    +0.023 A 
ATOM     19  C   UNL     1       1.656  -2.023   7.639  0.00  0.00    +0.004 A 
BRANCH  17  20
ATOM     20  N   UNL     1      -0.633  -0.279   9.924  0.00  0.00    -0.336 N 
ATOM     21  C   UNL     1      -1.938   0.386   9.884  0.00  0.00    +0.129 C 
ATOM     22  C   UNL     1       0.082  -0.414  11.195  0.00  0.00    +0.129 C 
ENDBRANCH  17  20
ENDBRANCH   4  14
BRANCH   8  23
ATOM     23  C   UNL     1      -2.691  -3.337   4.051  0.00  0.00    +0.044 A 
ATOM     24  C   UNL     1      -3.297  -2.311   4.764  0.00  0.00    +0.027 A 
ATOM     25  C   UNL     1      -4.674  -2.219   4.805  0.00  0.00    +0.047 A 
ATOM     26  C   UNL     1      -5.452  -3.152   4.134  0.00  0.00    +0.120 A 
ATOM     27  C   UNL     1      -4.847  -4.177   3.422  0.00  0.00    +0.047 A 
ATOM     28  C   UNL     1      -3.470  -4.266   3.376  0.00  0.00    +0.027 A 
BRANCH  26  29
ATOM     29  O   UNL     1      -6.808  -3.061   4.175  0.00  0.00    -0.495 OA
ATOM     30  C   UNL     1      -7.546  -4.055   3.461  0.00  0.00    +0.277 C 
ENDBRANCH  26  29
ENDBRANCH   8  23
BRANCH   1  31
ATOM     31  C   UNL     1       0.891  -1.555   1.641  0.00  0.00    +0.297 C 
ATOM     32  O   UNL     1       1.339  -1.697   0.527  0.00  0.00    -0.252 OA
BRANCH  31  33
ATOM     33  O   UNL     1      -0.212  -0.815   1.832  0.00  0.00    -0.466 OA
BRANCH  33  35
ATOM     34  C   UNL     1      -2.043   0.575   1.087  0.00  0.00    +0.048 C 
ATOM     35  C   UNL     1      -0.806  -0.225   0.674  0.00  0.00    +0.228 C 
ENDBRANCH  33  35
ENDBRANCH  31  33
ENDBRANCH   1  31
TORSDOF 7
