REMARK  Name = ZINC22836260
REMARK  13 active torsions:
REMARK  status: ('A' for Active; 'I' for Inactive)
REMARK    1  A    between atoms: C_1  and  C_2
REMARK    2  A    between atoms: C_2  and  C_3
REMARK    3  A    between atoms: C_3  and  C_5
REMARK    4  A    between atoms: C_3  and  C_6
REMARK    5  A    between atoms: C_11  and  O_12
REMARK    6  A    between atoms: O_12  and  C_13
REMARK    7  A    between atoms: C_13  and  C_14
REMARK    8  A    between atoms: C_14  and  C_16
REMARK    9  A    between atoms: C_14  and  O_36
REMARK   10  A    between atoms: C_16  and  N_17
REMARK   11  A    between atoms: N_20  and  C_23
REMARK   12  A    between atoms: C_23  and  C_24
REMARK   13  A    between atoms: C_23  and  C_30
REMARK                            x       y       z     vdW  Elec       q    Type
REMARK                         _______ _______ _______ _____ _____    ______ ____
ROOT
ATOM      1  N   UNL     1      -1.723  -0.300  -7.778  0.00  0.00    -0.303 NA
ATOM      2  C   UNL     1      -2.804   0.509  -7.198  0.00  0.00    +0.066 C 
ATOM      3  C   UNL     1      -3.445   1.361  -8.296  0.00  0.00    -0.062 C 
ATOM      4  N   UNL     1      -3.958   0.482  -9.357  0.00  0.00    +0.389 N 
ATOM      5  C   UNL     1      -2.877  -0.326  -9.937  0.00  0.00    -0.062 C 
ATOM      6  C   UNL     1      -2.236  -1.178  -8.838  0.00  0.00    +0.066 C 
ATOM      7  H   UNL     1      -4.691  -0.203  -8.906  0.00  0.00    -0.080 HD
ENDROOT
BRANCH   1   8
ATOM      8  C   UNL     1      -1.032  -1.077  -6.739  0.00  0.00    +0.119 C 
BRANCH   8   9
ATOM      9  C   UNL     1       0.342  -1.508  -7.255  0.00  0.00    +0.166 C 
BRANCH   9  10
ATOM     10  O   UNL     1       1.129  -0.350  -7.541  0.00  0.00    -0.387 OA
ATOM     11  H   UNL     1       0.782   0.380  -8.287  0.00  0.00    +0.210 HD
ENDBRANCH   9  10
BRANCH   9  12
ATOM     12  C   UNL     1       1.045  -2.352  -6.189  0.00  0.00    +0.261 C 
BRANCH  12  13
ATOM     13  O   UNL     1       2.277  -2.852  -6.713  0.00  0.00    -0.489 OA
BRANCH  13  19
ATOM     14  C   UNL     1       4.237  -4.144  -6.331  0.00  0.00    -0.003 A 
ATOM     15  C   UNL     1       4.998  -4.935  -5.492  0.00  0.00    +0.007 A 
ATOM     16  C   UNL     1       4.561  -5.201  -4.207  0.00  0.00    +0.001 A 
ATOM     17  C   UNL     1       3.358  -4.685  -3.763  0.00  0.00    +0.004 A 
ATOM     18  C   UNL     1       2.591  -3.898  -4.600  0.00  0.00    +0.046 A 
ATOM     19  C   UNL     1       3.029  -3.626  -5.888  0.00  0.00    +0.124 A 
BRANCH  14  20
ATOM     20  C   UNL     1       4.715  -3.851  -7.730  0.00  0.00    +0.019 C 
ATOM     21  C   UNL     1       4.880  -5.163  -8.499  0.00  0.00    +0.012 C 
BRANCH  20  23
ATOM     22  C   UNL     1       6.487  -2.716  -9.078  0.00  0.00    +0.004 C 
ATOM     23  C   UNL     1       6.061  -3.125  -7.667  0.00  0.00    +0.004 C 
ENDBRANCH  20  23
ENDBRANCH  14  20
ENDBRANCH  13  19
ENDBRANCH  12  13
ENDBRANCH   9  12
ENDBRANCH   8   9
ENDBRANCH   1   8
BRANCH   4  24
ATOM     24  C   UNL     1      -4.649   1.259 -10.395  0.00  0.00    -0.007 C 
BRANCH  24  25
ATOM     25  C   UNL     1      -5.301   0.319 -11.376  0.00  0.00    -0.057 A 
ATOM     26  C   UNL     1      -5.944  -0.817 -10.922  0.00  0.00    +0.002 A 
ATOM     27  C   UNL     1      -6.546  -1.677 -11.821  0.00  0.00    +0.000 A 
ATOM     28  C   UNL     1      -6.495  -1.407 -13.176  0.00  0.00    +0.000 A 
ATOM     29  C   UNL     1      -5.847  -0.274 -13.631  0.00  0.00    +0.000 A 
ATOM     30  C   UNL     1      -5.250   0.589 -12.731  0.00  0.00    +0.002 A 
ENDBRANCH  24  25
BRANCH  24  31
ATOM     31  C   UNL     1      -5.702   2.127  -9.756  0.00  0.00    -0.057 A 
ATOM     32  C   UNL     1      -6.557   1.593  -8.810  0.00  0.00    +0.002 A 
ATOM     33  C   UNL     1      -7.520   2.390  -8.221  0.00  0.00    +0.000 A 
ATOM     34  C   UNL     1      -7.635   3.719  -8.584  0.00  0.00    +0.000 A 
ATOM     35  C   UNL     1      -6.783   4.252  -9.534  0.00  0.00    +0.000 A 
ATOM     36  C   UNL     1      -5.817   3.456 -10.120  0.00  0.00    +0.002 A 
ENDBRANCH  24  31
ENDBRANCH   4  24
TORSDOF 11
