REMARK  Name = ZINC20919645
REMARK  6 active torsions:
REMARK  status: ('A' for Active; 'I' for Inactive)
REMARK    1  A    between atoms: C_4  and  C_7
REMARK    2  A    between atoms: C_10  and  C_13
REMARK    3  A    between atoms: C_13  and  N_14
REMARK    4  A    between atoms: C_15  and  C_17
REMARK    5  A    between atoms: C_17  and  N_18
REMARK    6  A    between atoms: C_27  and  C_30
REMARK                            x       y       z     vdW  Elec       q    Type
REMARK                         _______ _______ _______ _____ _____    ______ ____
ROOT
ATOM      1  C   UNL     1       1.623  -1.033   3.250  0.00  0.00    +0.019 C 
ENDROOT
BRANCH   1   2
ATOM      2  N   UNL     1       1.400  -0.221   2.046  0.00  0.00    +0.391 N 
ATOM      3  C   UNL     1       1.512   1.210   2.348  0.00  0.00    -0.038 C 
ATOM      4  C   UNL     1       2.007   1.933   1.110  0.00  0.00    -0.022 A 
ATOM      5  C   UNL     1       3.260   2.510   1.096  0.00  0.00    +0.005 A 
ATOM      6  C   UNL     1       3.689   3.187  -0.033  0.00  0.00    +0.000 A 
ATOM      7  C   UNL     1       2.863   3.285  -1.137  0.00  0.00    +0.004 A 
ATOM      8  C   UNL     1       1.612   2.699  -1.126  0.00  0.00    +0.046 A 
ATOM      9  C   UNL     1       1.185   2.010   0.002  0.00  0.00    +0.123 A 
ATOM     10  O   UNL     1      -0.035   1.408   0.012  0.00  0.00    -0.486 OA
ATOM     11  C   UNL     1      -0.011  -0.025   0.005  0.00  0.00    +0.187 C 
ATOM     12  C   UNL     1       0.130  -0.564   1.413  0.00  0.00    -0.028 C 
ATOM     13  H   UNL     1       2.186  -0.454   1.312  0.00  0.00    -0.080 HD
BRANCH  11  14
ATOM     14  C   UNL     1      -1.292  -0.540  -0.599  0.00  0.00    -0.009 A 
ATOM     15  C   UNL     1      -2.478   0.134  -0.380  0.00  0.00    +0.007 A 
ATOM     16  C   UNL     1      -3.653  -0.336  -0.938  0.00  0.00    +0.000 A 
ATOM     17  C   UNL     1      -3.642  -1.486  -1.705  0.00  0.00    +0.000 A 
ATOM     18  C   UNL     1      -2.456  -2.163  -1.919  0.00  0.00    +0.000 A 
ATOM     19  C   UNL     1      -1.281  -1.690  -1.365  0.00  0.00    +0.007 A 
ENDBRANCH  11  14
ENDBRANCH   1   2
BRANCH   1  21
ATOM     20  N   UNL     1       3.469  -1.482   4.835  0.00  0.00    -0.310 N 
ATOM     21  C   UNL     1       3.036  -0.833   3.736  0.00  0.00    +0.197 C 
ATOM     22  O   UNL     1       3.783  -0.088   3.138  0.00  0.00    -0.278 OA
ATOM     23  H   UNL     1       2.791  -2.158   5.377  0.00  0.00    +0.149 HD
BRANCH  20  24
ATOM     24  C   UNL     1       4.842  -1.288   5.307  0.00  0.00    +0.182 C 
BRANCH  24  28
ATOM     25  C   UNL     1       5.619  -3.728   7.904  0.00  0.00    +0.156 A 
ATOM     26  N   UNL     1       5.611  -3.369   6.583  0.00  0.00    -0.210 NA
ATOM     27  H   UNL     1       4.928  -2.608   9.658  0.00  0.00    +0.191 HD
ATOM     28  C   UNL     1       5.071  -2.120   6.542  0.00  0.00    +0.168 A 
ATOM     29  N   UNL     1       4.787  -1.776   7.770  0.00  0.00    -0.156 NA
ATOM     30  N   UNL     1       5.104  -2.724   8.578  0.00  0.00    -0.258 N 
BRANCH  25  34
ATOM     31  C   UNL     1       7.040  -7.392   9.518  0.00  0.00    +0.000 A 
ATOM     32  C   UNL     1       6.521  -6.424  10.359  0.00  0.00    +0.001 A 
ATOM     33  C   UNL     1       6.059  -5.232   9.841  0.00  0.00    +0.011 A 
ATOM     34  C   UNL     1       6.114  -5.004   8.466  0.00  0.00    +0.019 A 
ATOM     35  C   UNL     1       6.633  -5.987   7.622  0.00  0.00    +0.011 A 
ATOM     36  C   UNL     1       7.098  -7.172   8.153  0.00  0.00    +0.001 A 
ENDBRANCH  25  34
ENDBRANCH  24  28
ENDBRANCH  20  24
ENDBRANCH   1  21
TORSDOF 6
