REMARK  Name = ZINC35711366
REMARK  15 active torsions:
REMARK  status: ('A' for Active; 'I' for Inactive)
REMARK    1  A    between atoms: C_1  and  C_2
REMARK    2  A    between atoms: C_2  and  C_4
REMARK    3  A    between atoms: C_2  and  N_10
REMARK    4  A    between atoms: N_10  and  C_11
REMARK    5  A    between atoms: N_10  and  C_22
REMARK    6  A    between atoms: C_11  and  C_12
REMARK    7  A    between atoms: C_16  and  O_20
REMARK    8  A    between atoms: C_17  and  O_18
REMARK    9  A    between atoms: O_18  and  C_19
REMARK   10  A    between atoms: O_20  and  C_21
REMARK   11  A    between atoms: C_22  and  C_23
REMARK   12  A    between atoms: C_25  and  C_28
REMARK   13  A    between atoms: N_30  and  C_31
REMARK   14  A    between atoms: C_31  and  C_32
REMARK   15  A    between atoms: C_32  and  C_33
REMARK                            x       y       z     vdW  Elec       q    Type
REMARK                         _______ _______ _______ _____ _____    ______ ____
ROOT
ATOM      1  N   UNL     1       1.748  -1.528   1.828  0.00  0.00    +0.393 N 
ATOM      2  H   UNL     1       2.729  -1.567   2.063  0.00  0.00    -0.080 HD
ENDROOT
BRANCH   1   4
ATOM      3  C   UNL     1       1.928   0.728   0.890  0.00  0.00    -0.008 C 
ATOM      4  C   UNL     1       1.569  -0.732   0.606  0.00  0.00    -0.040 C 
BRANCH   4   5
ATOM      5  C   UNL     1       2.468  -1.268  -0.479  0.00  0.00    -0.061 A 
ATOM      6  C   UNL     1       3.802  -1.513  -0.212  0.00  0.00    +0.002 A 
ATOM      7  C   UNL     1       4.626  -2.005  -1.207  0.00  0.00    +0.000 A 
ATOM      8  C   UNL     1       4.117  -2.252  -2.468  0.00  0.00    +0.000 A 
ATOM      9  C   UNL     1       2.782  -2.008  -2.734  0.00  0.00    +0.000 A 
ATOM     10  C   UNL     1       1.957  -1.520  -1.738  0.00  0.00    +0.002 A 
ENDBRANCH   4   5
ENDBRANCH   1   4
BRANCH   1  11
ATOM     11  C   UNL     1       1.244  -2.889   1.604  0.00  0.00    -0.038 C 
BRANCH  11  12
ATOM     12  C   UNL     1       2.234  -3.661   0.771  0.00  0.00    -0.019 A 
ATOM     13  C   UNL     1       1.873  -4.121  -0.482  0.00  0.00    +0.005 A 
ATOM     14  C   UNL     1       2.778  -4.830  -1.249  0.00  0.00    +0.004 A 
ATOM     15  C   UNL     1       4.049  -5.082  -0.767  0.00  0.00    +0.049 A 
ATOM     16  C   UNL     1       4.417  -4.625   0.488  0.00  0.00    +0.162 A 
ATOM     17  C   UNL     1       3.507  -3.906   1.258  0.00  0.00    +0.163 A 
BRANCH  17  18
ATOM     18  O   UNL     1       3.866  -3.450   2.488  0.00  0.00    -0.491 OA
ATOM     19  C   UNL     1       3.628  -4.319   3.597  0.00  0.00    +0.277 C 
ENDBRANCH  17  18
BRANCH  16  20
ATOM     20  O   UNL     1       5.667  -4.872   0.964  0.00  0.00    -0.491 OA
ATOM     21  C   UNL     1       6.549  -5.611   0.117  0.00  0.00    +0.277 C 
ENDBRANCH  16  20
ENDBRANCH  11  12
ENDBRANCH   1  11
BRANCH   1  22
ATOM     22  C   UNL     1       1.005  -0.905   2.931  0.00  0.00    +0.020 C 
BRANCH  22  23
ATOM     23  C   UNL     1       1.752   0.310   3.417  0.00  0.00    +0.179 A 
ATOM     24  N   UNL     1       1.228   1.480   3.631  0.00  0.00    -0.210 NA
ATOM     25  C   UNL     1       2.208   2.319   4.063  0.00  0.00    +0.163 A 
ATOM     26  C   UNL     1       3.362   1.600   4.101  0.00  0.00    +0.230 A 
ATOM     27  O   UNL     1       3.061   0.354   3.703  0.00  0.00    -0.449 OA
BRANCH  25  28
ATOM     28  C   UNL     1       2.049   3.741   4.420  0.00  0.00    +0.266 C 
ATOM     29  O   UNL     1       3.010   4.385   4.794  0.00  0.00    -0.268 OA
ATOM     30  N   UNL     1       0.838   4.326   4.333  0.00  0.00    -0.310 N 
ATOM     31  H   UNL     1       0.071   3.813   4.034  0.00  0.00    +0.149 HD
BRANCH  30  32
ATOM     32  C   UNL     1       0.680   5.739   4.688  0.00  0.00    +0.110 C 
BRANCH  32  33
ATOM     33  C   UNL     1      -0.781   6.151   4.501  0.00  0.00    +0.074 C 
BRANCH  33  34
ATOM     34  C   UNL     1      -0.944   7.604   4.867  0.00  0.00    +0.043 A 
ATOM     35  C   UNL     1      -1.503   8.480   3.955  0.00  0.00    +0.023 A 
ATOM     36  C   UNL     1      -1.648   9.814   4.301  0.00  0.00    +0.003 A 
ATOM     37  C   UNL     1      -1.223  10.220   5.557  0.00  0.00    +0.020 A 
ATOM     38  C   UNL     1      -0.672   9.288   6.416  0.00  0.00    +0.111 A 
ATOM     39  N   UNL     1      -0.555   8.025   6.055  0.00  0.00    -0.260 NA
ENDBRANCH  33  34
ENDBRANCH  32  33
ENDBRANCH  30  32
ENDBRANCH  25  28
ENDBRANCH  22  23
ENDBRANCH   1  22
TORSDOF 12
