REMARK  Name = ZINC20477071
REMARK  9 active torsions:
REMARK  status: ('A' for Active; 'I' for Inactive)
REMARK    1  A    between atoms: C_1  and  C_2
REMARK    2  A    between atoms: C_2  and  O_3
REMARK    3  A    between atoms: O_3  and  C_4
REMARK    4  A    between atoms: C_6  and  C_20
REMARK    5  A    between atoms: C_9  and  O_10
REMARK    6  A    between atoms: O_10  and  C_11
REMARK    7  A    between atoms: C_11  and  C_12
REMARK    8  A    between atoms: C_20  and  N_21
REMARK    9  A    between atoms: N_21  and  C_22
REMARK                            x       y       z     vdW  Elec       q    Type
REMARK                         _______ _______ _______ _____ _____    ______ ____
ROOT
ATOM      1  C   UNL     1      -5.521   1.751  -1.165  0.00  0.00    +0.163 A 
ATOM      2  C   UNL     1      -6.792   1.198  -1.157  0.00  0.00    +0.054 A 
ATOM      3  C   UNL     1      -7.417   0.921   0.044  0.00  0.00    -0.029 A 
ATOM      4  C   UNL     1      -6.775   1.188   1.240  0.00  0.00    +0.024 A 
ATOM      5  C   UNL     1      -5.504   1.734   1.238  0.00  0.00    +0.063 A 
ATOM      6  C   UNL     1      -4.872   2.014   0.037  0.00  0.00    +0.176 A 
ATOM      7 BR   UNL     1      -4.630   2.098   2.875  0.00  0.00    -0.046 Br
ENDROOT
BRANCH   1   8
ATOM      8  O   UNL     1      -4.907   2.029  -2.346  0.00  0.00    -0.489 OA
BRANCH   8  10
ATOM      9  C   UNL     1      -4.788   2.111  -4.759  0.00  0.00    +0.048 C 
ATOM     10  C   UNL     1      -5.633   1.733  -3.541  0.00  0.00    +0.226 C 
ENDBRANCH   8  10
ENDBRANCH   1   8
BRANCH   6  11
ATOM     11  O   UNL     1      -3.622   2.551   0.033  0.00  0.00    -0.483 OA
BRANCH  11  12
ATOM     12  C   UNL     1      -2.524   1.637   0.023  0.00  0.00    +0.266 C 
BRANCH  12  13
ATOM     13  C   UNL     1      -1.228   2.407   0.021  0.00  0.00    +0.008 A 
ATOM     14  C   UNL     1      -1.247   3.789   0.033  0.00  0.00    +0.008 A 
ATOM     15  C   UNL     1      -0.059   4.497   0.025  0.00  0.00    +0.000 A 
ATOM     16  C   UNL     1       1.148   3.822   0.011  0.00  0.00    +0.001 A 
ATOM     17  C   UNL     1       1.167   2.440   0.004  0.00  0.00    +0.020 A 
ATOM     18  C   UNL     1      -0.021   1.732   0.012  0.00  0.00    +0.047 A 
ATOM     19 CL   UNL     1       0.002  -0.004   0.002  0.00  0.00    -0.083 Cl
ENDBRANCH  12  13
ENDBRANCH  11  12
ENDBRANCH   6  11
BRANCH   3  20
ATOM     20  C   UNL     1      -8.802   0.327   0.051  0.00  0.00    +0.116 C 
BRANCH  20  21
ATOM     21  N   UNL     1      -9.798   1.406   0.062  0.00  0.00    -0.311 NA
ATOM     22  H   UNL     1      -9.660   2.024   0.962  0.00  0.00    +0.122 HD
BRANCH  21  23
ATOM     23  C   UNL     1     -11.163   0.863   0.069  0.00  0.00    +0.040 C 
ATOM     24  C   UNL     1     -11.590   0.566   1.510  0.00  0.00    -0.060 C 
ATOM     25  N   UNL     1     -12.780   1.362   1.839  0.00  0.00    +0.381 N 
ATOM     26  C   UNL     1     -13.910   1.006   0.971  0.00  0.00    -0.078 C 
ATOM     27  C   UNL     1     -13.549   1.315  -0.484  0.00  0.00    -0.014 C 
ATOM     28  C   UNL     1     -12.129   1.892  -0.531  0.00  0.00    +0.001 C 
ATOM     29  C   UNL     1     -12.088   3.162   0.329  0.00  0.00    -0.014 C 
ATOM     30  C   UNL     1     -12.490   2.801   1.762  0.00  0.00    -0.078 C 
ATOM     31  H   UNL     1     -13.063   1.130   2.877  0.00  0.00    -0.082 HD
ENDBRANCH  21  23
ENDBRANCH  20  21
ENDBRANCH   3  20
TORSDOF 8
