REMARK  Name = ZINC09468869
REMARK  9 active torsions:
REMARK  status: ('A' for Active; 'I' for Inactive)
REMARK    1  A    between atoms: C_1  and  C_2
REMARK    2  A    between atoms: C_2  and  C_3
REMARK    3  A    between atoms: C_8  and  N_9
REMARK    4  A    between atoms: C_12  and  C_17
REMARK    5  A    between atoms: C_17  and  N_18
REMARK    6  A    between atoms: C_21  and  C_25
REMARK    7  A    between atoms: C_21  and  C_26
REMARK    8  A    between atoms: C_26  and  C_27
REMARK    9  A    between atoms: C_27  and  C_28
REMARK                            x       y       z     vdW  Elec       q    Type
REMARK                         _______ _______ _______ _____ _____    ______ ____
ROOT
ATOM      1  N   UNL     1      -1.198  -0.721   0.009  0.00  0.00    -0.283 N 
ATOM      2  C   UNL     1      -2.401  -0.053   0.128  0.00  0.00    +0.224 A 
ATOM      3  N   UNL     1      -3.537  -0.739   0.235  0.00  0.00    -0.198 NA
ATOM      4  C   UNL     1      -4.689  -0.101   0.349  0.00  0.00    +0.154 A 
ATOM      5  N   UNL     1      -4.718   1.221   0.357  0.00  0.00    -0.198 NA
ATOM      6  C   UNL     1      -3.586   1.914   0.250  0.00  0.00    +0.217 A 
ATOM      7  N   UNL     1      -2.426   1.275   0.141  0.00  0.00    -0.181 NA
ATOM      8  N   UNL     1      -3.617   3.293   0.258  0.00  0.00    -0.327 N 
ATOM      9  H   UNL     1      -1.170  -1.687   0.094  0.00  0.00    +0.155 HD
ATOM     10  H   UNL     1      -4.464   3.759   0.342  0.00  0.00    +0.145 HD
ATOM     11  H   UNL     1      -2.792   3.798   0.180  0.00  0.00    +0.145 HD
ENDROOT
BRANCH   1  17
ATOM     12  C   UNL     1       1.198  -0.499   0.211  0.00  0.00    -0.026 A 
ATOM     13  C   UNL     1       2.358   0.210  -0.030  0.00  0.00    +0.005 A 
ATOM     14  C   UNL     1       2.306   1.410  -0.714  0.00  0.00    +0.000 A 
ATOM     15  C   UNL     1       1.093   1.905  -1.158  0.00  0.00    +0.002 A 
ATOM     16  C   UNL     1      -0.070   1.201  -0.920  0.00  0.00    +0.023 A 
ATOM     17  C   UNL     1      -0.022  -0.005  -0.233  0.00  0.00    +0.037 A 
BRANCH  12  19
ATOM     18  C   UNL     1       1.319  -2.963  -0.046  0.00  0.00    +0.009 C 
ATOM     19  C   UNL     1       1.255  -1.808   0.956  0.00  0.00    +0.033 C 
ENDBRANCH  12  19
ENDBRANCH   1  17
BRANCH   4  20
ATOM     20  C   UNL     1      -5.972  -0.881   0.469  0.00  0.00    +0.194 C 
BRANCH  20  21
ATOM     21  N   UNL     1      -6.255  -1.140   1.883  0.00  0.00    -0.217 N 
ATOM     22  C   UNL     1      -5.832  -2.230   2.553  0.00  0.00    +0.247 C 
ATOM     23  O   UNL     1      -5.169  -3.147   2.116  0.00  0.00    -0.273 OA
ATOM     24  C   UNL     1      -6.354  -2.071   3.967  0.00  0.00    +0.110 C 
ATOM     25  N   UNL     1      -7.086  -0.793   3.924  0.00  0.00    -0.285 N 
ATOM     26  C   UNL     1      -6.971  -0.326   2.667  0.00  0.00    +0.310 C 
ATOM     27  O   UNL     1      -7.463   0.718   2.287  0.00  0.00    -0.252 OA
ATOM     28  C   UNL     1      -7.299  -3.221   4.320  0.00  0.00    +0.041 C 
ATOM     29  H   UNL     1      -7.559  -0.371   4.658  0.00  0.00    +0.151 HD
BRANCH  24  30
ATOM     30  C   UNL     1      -5.200  -1.996   4.970  0.00  0.00    +0.039 C 
BRANCH  30  31
ATOM     31  C   UNL     1      -5.758  -1.731   6.370  0.00  0.00    +0.037 C 
BRANCH  31  32
ATOM     32  C   UNL     1      -4.622  -1.659   7.357  0.00  0.00    -0.047 A 
ATOM     33  C   UNL     1      -4.193  -2.803   8.002  0.00  0.00    +0.003 A 
ATOM     34  C   UNL     1      -3.147  -2.737   8.904  0.00  0.00    +0.000 A 
ATOM     35  C   UNL     1      -2.538  -1.525   9.169  0.00  0.00    +0.000 A 
ATOM     36  C   UNL     1      -2.971  -0.379   8.528  0.00  0.00    +0.000 A 
ATOM     37  C   UNL     1      -4.013  -0.446   7.622  0.00  0.00    +0.003 A 
ENDBRANCH  31  32
ENDBRANCH  30  31
ENDBRANCH  24  30
ENDBRANCH  20  21
ENDBRANCH   4  20
TORSDOF 7
