REMARK  Name = ZINC39661545
REMARK  11 active torsions:
REMARK  status: ('A' for Active; 'I' for Inactive)
REMARK    1  A    between atoms: C_1  and  C_2
REMARK    2  A    between atoms: C_2  and  C_4
REMARK    3  A    between atoms: C_2  and  O_31
REMARK    4  A    between atoms: C_8  and  C_17
REMARK    5  A    between atoms: N_19  and  C_20
REMARK    6  A    between atoms: C_20  and  C_21
REMARK    7  A    between atoms: C_24  and  O_29
REMARK    8  A    between atoms: C_26  and  O_27
REMARK    9  A    between atoms: O_27  and  C_28
REMARK   10  A    between atoms: O_29  and  C_30
REMARK   11  A    between atoms: O_31  and  C_32
REMARK                            x       y       z     vdW  Elec       q    Type
REMARK                         _______ _______ _______ _____ _____    ______ ____
ROOT
ATOM      1  C   UNL     1       0.741  -0.381   1.128  0.00  0.00    +0.256 C 
ATOM      2  O   UNL     1       1.862  -0.795   0.925  0.00  0.00    -0.272 OA
ATOM      3  N   UNL     1       0.348  -0.087   2.384  0.00  0.00    -0.297 N 
ATOM      4  C   UNL     1      -0.972   0.419   2.828  0.00  0.00    +0.121 C 
ATOM      5  C   UNL     1      -1.250  -0.325   4.153  0.00  0.00    +0.100 C 
ATOM      6  C   UNL     1       0.140  -0.725   4.677  0.00  0.00    -0.004 C 
ATOM      7  C   UNL     1       1.138  -0.203   3.633  0.00  0.00    +0.115 C 
ATOM      8  C   UNL     1       0.247  -2.243   4.787  0.00  0.00    -0.010 C 
ATOM      9  C   UNL     1       1.616  -2.613   5.364  0.00  0.00    -0.082 C 
ATOM     10  N   UNL     1       1.776  -1.994   6.685  0.00  0.00    +0.379 N 
ATOM     11  C   UNL     1       1.765  -0.532   6.558  0.00  0.00    -0.082 C 
ATOM     12  C   UNL     1       0.402  -0.074   6.032  0.00  0.00    -0.010 C 
ATOM     13  H   UNL     1       1.018  -2.284   7.285  0.00  0.00    -0.086 HD
ATOM     14  H   UNL     1       2.652  -2.289   7.089  0.00  0.00    -0.086 HD
ENDROOT
BRANCH   5  15
ATOM     15  C   UNL     1      -1.940   0.588   5.133  0.00  0.00    +0.218 C 
ATOM     16  O   UNL     1      -1.722   1.781   5.107  0.00  0.00    -0.275 OA
ATOM     17  N   UNL     1      -2.799   0.080   6.038  0.00  0.00    -0.311 N 
ATOM     18  H   UNL     1      -2.973  -0.874   6.059  0.00  0.00    +0.149 HD
BRANCH  17  19
ATOM     19  C   UNL     1      -3.470   0.968   6.991  0.00  0.00    +0.143 C 
BRANCH  19  20
ATOM     20  C   UNL     1      -4.370   0.156   7.886  0.00  0.00    +0.011 A 
ATOM     21  C   UNL     1      -5.727   0.099   7.631  0.00  0.00    +0.012 A 
ATOM     22  C   UNL     1      -6.556  -0.644   8.450  0.00  0.00    +0.046 A 
ATOM     23  C   UNL     1      -6.026  -1.335   9.531  0.00  0.00    +0.124 A 
ATOM     24  C   UNL     1      -4.665  -1.280   9.789  0.00  0.00    +0.091 A 
ATOM     25  C   UNL     1      -3.836  -0.538   8.962  0.00  0.00    +0.128 A 
BRANCH  25  26
ATOM     26  O   UNL     1      -2.500  -0.486   9.209  0.00  0.00    -0.495 OA
ATOM     27  C   UNL     1      -2.019  -1.224  10.333  0.00  0.00    +0.277 C 
ENDBRANCH  25  26
BRANCH  23  28
ATOM     28  O   UNL     1      -6.841  -2.066  10.336  0.00  0.00    -0.495 OA
ATOM     29  C   UNL     1      -8.233  -2.078  10.011  0.00  0.00    +0.277 C 
ENDBRANCH  23  28
ENDBRANCH  19  20
ENDBRANCH  17  19
ENDBRANCH   5  15
BRANCH   1  31
ATOM     30  C   UNL     1      -0.541   1.291  -0.180  0.00  0.00    +0.062 C 
ATOM     31  C   UNL     1      -0.214  -0.195  -0.023  0.00  0.00    +0.256 C 
BRANCH  31  32
ATOM     32  O   UNL     1       0.388  -0.680  -1.224  0.00  0.00    -0.480 OA
BRANCH  32  33
ATOM     33  C   UNL     1      -0.450  -1.079  -2.217  0.00  0.00    +0.122 A 
ATOM     34  C   UNL     1       0.062  -1.666  -3.365  0.00  0.00    +0.045 A 
ATOM     35  C   UNL     1      -0.792  -2.071  -4.373  0.00  0.00    +0.004 A 
ATOM     36  C   UNL     1      -2.156  -1.891  -4.238  0.00  0.00    +0.000 A 
ATOM     37  C   UNL     1      -2.669  -1.306  -3.095  0.00  0.00    +0.004 A 
ATOM     38  C   UNL     1      -1.820  -0.905  -2.082  0.00  0.00    +0.045 A 
ENDBRANCH  32  33
ENDBRANCH  31  32
ENDBRANCH   1  31
TORSDOF 8
