REMARK  Name = ZINC39359540
REMARK  8 active torsions:
REMARK  status: ('A' for Active; 'I' for Inactive)
REMARK    1  A    between atoms: C_1  and  O_2
REMARK    2  A    between atoms: O_2  and  C_3
REMARK    3  A    between atoms: C_6  and  C_11
REMARK    4  A    between atoms: C_8  and  O_9
REMARK    5  A    between atoms: O_9  and  C_10
REMARK    6  A    between atoms: C_26  and  N_37
REMARK    7  A    between atoms: C_27  and  S_28
REMARK    8  A    between atoms: S_28  and  C_31
REMARK                            x       y       z     vdW  Elec       q    Type
REMARK                         _______ _______ _______ _____ _____    ______ ____
ROOT
ATOM      1  C   UNL     1      -4.609  -1.798   0.333  0.00  0.00    +0.092 C 
ATOM      2  C   UNL     1      -5.317  -2.438  -0.866  0.00  0.00    +0.155 C 
ATOM      3  C   UNL     1      -6.540  -1.570  -1.117  0.00  0.00    +0.129 C 
ATOM      4  C   UNL     1      -6.671  -0.972  -2.362  0.00  0.00    +0.035 A 
ATOM      5  C   UNL     1      -7.788  -0.173  -2.678  0.00  0.00    +0.013 A 
ATOM      6  C   UNL     1      -7.885   0.391  -3.913  0.00  0.00    +0.001 A 
ATOM      7  C   UNL     1      -6.900   0.196  -4.875  0.00  0.00    +0.002 A 
ATOM      8  C   UNL     1      -5.795  -0.563  -4.629  0.00  0.00    +0.024 A 
ATOM      9  C   UNL     1      -5.627  -1.173  -3.375  0.00  0.00    +0.044 A 
ATOM     10  N   UNL     1      -4.536  -1.910  -3.129  0.00  0.00    -0.284 N 
ATOM     11  C   UNL     1      -4.304  -2.549  -1.982  0.00  0.00    +0.229 C 
ATOM     12  O   UNL     1      -3.291  -3.206  -1.823  0.00  0.00    -0.275 OA
ATOM     13  O   UNL     1      -7.418  -1.411  -0.126  0.00  0.00    -0.443 OA
ATOM     14  C   UNL     1      -6.902  -1.253   1.121  0.00  0.00    +0.206 C 
ATOM     15  C   UNL     1      -5.621  -1.424   1.380  0.00  0.00    +0.136 C 
ATOM     16  H   UNL     1      -3.874  -1.992  -3.833  0.00  0.00    +0.155 HD
ENDROOT
BRANCH   1  20
ATOM     17  C   UNL     1      -2.537   1.715  -0.955  0.00  0.00    +0.162 A 
ATOM     18  C   UNL     1      -3.911   1.622  -1.109  0.00  0.00    +0.050 A 
ATOM     19  C   UNL     1      -4.578   0.485  -0.692  0.00  0.00    +0.008 A 
ATOM     20  C   UNL     1      -3.877  -0.561  -0.120  0.00  0.00    -0.034 A 
ATOM     21  C   UNL     1      -2.506  -0.474   0.037  0.00  0.00    +0.053 A 
ATOM     22  C   UNL     1      -1.831   0.660  -0.385  0.00  0.00    +0.162 A 
BRANCH  17  24
ATOM     23  C   UNL     1      -2.669   3.876  -1.940  0.00  0.00    +0.277 C 
ATOM     24  O   UNL     1      -1.879   2.833  -1.364  0.00  0.00    -0.491 OA
ENDBRANCH  17  24
BRANCH  22  25
ATOM     25  O   UNL     1      -0.482   0.745  -0.236  0.00  0.00    -0.491 OA
ATOM     26  C   UNL     1       0.177  -0.376   0.356  0.00  0.00    +0.277 C 
ENDBRANCH  22  25
ENDBRANCH   1  20
BRANCH  15  27
ATOM     27  S   UNL     1      -5.068  -1.205   3.038  0.00  0.00    +0.027 S 
ATOM     28  O   UNL     1      -3.730  -0.732   2.961  0.00  0.00    -0.164 OA
ATOM     29  O   UNL     1      -6.091  -0.489   3.716  0.00  0.00    -0.164 OA
BRANCH  27  30
ATOM     30  C   UNL     1      -4.995  -2.802   3.779  0.00  0.00    +0.093 A 
ATOM     31  C   UNL     1      -6.103  -3.314   4.427  0.00  0.00    +0.027 A 
ATOM     32  C   UNL     1      -6.046  -4.568   5.008  0.00  0.00    +0.002 A 
ATOM     33  C   UNL     1      -4.881  -5.309   4.940  0.00  0.00    +0.000 A 
ATOM     34  C   UNL     1      -3.773  -4.797   4.290  0.00  0.00    +0.002 A 
ATOM     35  C   UNL     1      -3.832  -3.545   3.706  0.00  0.00    +0.027 A 
ENDBRANCH  27  30
ENDBRANCH  15  27
BRANCH  14  36
ATOM     36  N   UNL     1      -7.755  -0.897   2.159  0.00  0.00    -0.328 N 
ATOM     37  H   UNL     1      -8.394  -0.177   2.037  0.00  0.00    +0.145 HD
ATOM     38  H   UNL     1      -7.713  -1.370   3.005  0.00  0.00    +0.145 HD
ENDBRANCH  14  36
TORSDOF 6
