REMARK  Name = ZINC09631145
REMARK  8 active torsions:
REMARK  status: ('A' for Active; 'I' for Inactive)
REMARK    1  A    between atoms: C_3  and  N_20
REMARK    2  A    between atoms: C_6  and  C_7
REMARK    3  A    between atoms: N_9  and  N_10
REMARK    4  A    between atoms: N_10  and  C_11
REMARK    5  A    between atoms: C_11  and  N_13
REMARK    6  A    between atoms: N_13  and  C_14
REMARK    7  A    between atoms: N_20  and  S_21
REMARK    8  A    between atoms: S_21  and  C_24
REMARK                            x       y       z     vdW  Elec       q    Type
REMARK                         _______ _______ _______ _____ _____    ______ ____
ROOT
ATOM      1  C   UNL     1       5.662   0.769  -4.363  0.00  0.00    +0.015 A 
ATOM      2  C   UNL     1       5.432  -0.253  -3.471  0.00  0.00    +0.025 A 
ATOM      3  C   UNL     1       4.467  -0.109  -2.478  0.00  0.00    +0.048 A 
ATOM      4  C   UNL     1       3.727   1.067  -2.389  0.00  0.00    +0.025 A 
ATOM      5  C   UNL     1       3.956   2.095  -3.274  0.00  0.00    +0.015 A 
ATOM      6  C   UNL     1       4.925   1.954  -4.272  0.00  0.00    +0.038 A 
ENDROOT
BRANCH   6   7
ATOM      7  C   UNL     1       5.170   3.051  -5.226  0.00  0.00    +0.260 C 
ATOM      8  O   UNL     1       6.013   2.927  -6.093  0.00  0.00    -0.269 OA
ATOM      9  N   UNL     1       4.458   4.193  -5.137  0.00  0.00    -0.231 N 
ATOM     10  H   UNL     1       3.785   4.292  -4.446  0.00  0.00    +0.173 HD
BRANCH   9  11
ATOM     11  N   UNL     1       4.690   5.236  -6.043  0.00  0.00    -0.246 N 
ATOM     12  H   UNL     1       5.363   5.136  -6.735  0.00  0.00    +0.172 HD
BRANCH  11  13
ATOM     13  C   UNL     1       3.979   6.377  -5.954  0.00  0.00    +0.147 C 
ATOM     14  S   UNL     1       4.263   7.651  -7.062  0.00  0.00    -0.017 S 
BRANCH  13  15
ATOM     15  N   UNL     1       3.044   6.515  -4.993  0.00  0.00    -0.323 N 
ATOM     16  H   UNL     1       2.883   5.793  -4.366  0.00  0.00    +0.148 HD
BRANCH  15  17
ATOM     17  C   UNL     1       2.271   7.755  -4.897  0.00  0.00    +0.072 C 
ATOM     18  C   UNL     1       3.055   8.782  -4.077  0.00  0.00    +0.022 C 
ATOM     19  C   UNL     1       2.247  10.078  -3.975  0.00  0.00    +0.002 C 
ATOM     20  C   UNL     1       0.909   9.792  -3.291  0.00  0.00    +0.000 C 
ATOM     21  C   UNL     1       0.125   8.765  -4.111  0.00  0.00    +0.002 C 
ATOM     22  C   UNL     1       0.933   7.470  -4.212  0.00  0.00    +0.022 C 
ENDBRANCH  15  17
ENDBRANCH  13  15
ENDBRANCH  11  13
ENDBRANCH   9  11
ENDBRANCH   6   7
BRANCH   3  23
ATOM     23  N   UNL     1       4.236  -1.143  -1.579  0.00  0.00    -0.216 N 
ATOM     24  H   UNL     1       3.437  -1.687  -1.659  0.00  0.00    +0.174 HD
BRANCH  23  25
ATOM     25  S   UNL     1       5.327  -1.448  -0.370  0.00  0.00    +0.072 S 
ATOM     26  O   UNL     1       6.604  -1.532  -0.988  0.00  0.00    -0.150 OA
ATOM     27  O   UNL     1       4.785  -2.506   0.408  0.00  0.00    -0.150 OA
BRANCH  25  28
ATOM     28  C   UNL     1       5.363  -0.025   0.669  0.00  0.00    +0.112 A 
ATOM     29  C   UNL     1       4.431   0.115   1.680  0.00  0.00    +0.032 A 
ATOM     30  C   UNL     1       4.455   1.229   2.496  0.00  0.00    +0.051 A 
ATOM     31  C   UNL     1       5.415   2.211   2.303  0.00  0.00    +0.162 A 
ATOM     32  C   UNL     1       6.354   2.070   1.288  0.00  0.00    +0.164 A 
ATOM     33  C   UNL     1       6.324   0.949   0.472  0.00  0.00    +0.078 A 
ATOM     34  O   UNL     1       7.310   3.017   1.086  0.00  0.00    -0.485 OA
ATOM     35  C   UNL     1       7.080   4.300   1.680  0.00  0.00    +0.270 C 
ATOM     36  C   UNL     1       6.625   4.084   3.130  0.00  0.00    +0.270 C 
ATOM     37  O   UNL     1       5.421   3.308   3.109  0.00  0.00    -0.485 OA
ENDBRANCH  25  28
ENDBRANCH  23  25
ENDBRANCH   3  23
TORSDOF 8
