REMARK  Name = ZINC40899307
REMARK  5 active torsions:
REMARK  status: ('A' for Active; 'I' for Inactive)
REMARK    1  A    between atoms: C_9  and  N_11
REMARK    2  A    between atoms: C_12  and  C_14
REMARK    3  A    between atoms: N_19  and  C_21
REMARK    4  A    between atoms: C_24  and  C_28
REMARK    5  A    between atoms: C_30  and  C_33
REMARK                            x       y       z     vdW  Elec       q    Type
REMARK                         _______ _______ _______ _____ _____    ______ ____
ROOT
ATOM      1  C   UNL     1       5.689  -0.302   3.082  0.00  0.00    +0.092 C 
ATOM      2  C   UNL     1       6.367  -1.666   3.228  0.00  0.00    +0.016 C 
ATOM      3  C   UNL     1       6.947  -1.801   4.637  0.00  0.00    +0.020 C 
ATOM      4  C   UNL     1       8.002  -0.712   4.857  0.00  0.00    +0.105 C 
ATOM      5  N   UNL     1       7.395   0.597   4.577  0.00  0.00    -0.327 N 
ATOM      6  C   UNL     1       6.729   0.805   3.284  0.00  0.00    +0.118 C 
ENDROOT
BRANCH   5   7
ATOM      7  C   UNL     1       7.451   1.623   5.521  0.00  0.00    +0.065 A 
ATOM      8  C   UNL     1       8.515   2.517   5.513  0.00  0.00    +0.027 A 
ATOM      9  C   UNL     1       8.572   3.532   6.445  0.00  0.00    +0.013 A 
ATOM     10  C   UNL     1       7.561   3.662   7.396  0.00  0.00    +0.025 A 
ATOM     11  C   UNL     1       6.493   2.765   7.404  0.00  0.00    +0.052 A 
ATOM     12  C   UNL     1       6.437   1.754   6.467  0.00  0.00    +0.145 A 
ATOM     13  F   UNL     1       5.401   0.887   6.470  0.00  0.00    -0.204 F 
BRANCH  10  14
ATOM     14  C   UNL     1       7.622   4.753   8.399  0.00  0.00    +0.202 A 
ATOM     15  N   UNL     1       6.716   4.978   9.365  0.00  0.00    -0.187 NA
ATOM     16  C   UNL     1       7.072   6.021  10.078  0.00  0.00    +0.259 A 
ATOM     17  O   UNL     1       8.228   6.496   9.581  0.00  0.00    -0.332 OA
ATOM     18  N   UNL     1       8.571   5.652   8.492  0.00  0.00    -0.056 NA
BRANCH  16  19
ATOM     19  C   UNL     1       6.330   6.578  11.228  0.00  0.00    +0.040 A 
ATOM     20  C   UNL     1       5.138   5.983  11.647  0.00  0.00    +0.016 A 
ATOM     21  C   UNL     1       4.450   6.506  12.721  0.00  0.00    +0.039 A 
ATOM     22  C   UNL     1       4.939   7.621  13.384  0.00  0.00    +0.123 A 
ATOM     23  C   UNL     1       6.121   8.216  12.972  0.00  0.00    +0.039 A 
ATOM     24  C   UNL     1       6.821   7.697  11.903  0.00  0.00    +0.016 A 
ATOM     25  F   UNL     1       4.260   8.130  14.436  0.00  0.00    -0.205 F 
ENDBRANCH  16  19
ENDBRANCH  10  14
ENDBRANCH   5   7
BRANCH   1  27
ATOM     26  N   UNL     1       4.147  -1.058   1.302  0.00  0.00    -0.308 N 
ATOM     27  C   UNL     1       5.090  -0.183   1.704  0.00  0.00    +0.218 C 
ATOM     28  O   UNL     1       5.456   0.700   0.958  0.00  0.00    -0.275 OA
ATOM     29  H   UNL     1       3.854  -1.764   1.899  0.00  0.00    +0.149 HD
BRANCH  26  38
ATOM     30  C   UNL     1      -0.017   1.377   0.010  0.00  0.00    +0.000 A 
ATOM     31  C   UNL     1       1.172   2.083   0.002  0.00  0.00    +0.000 A 
ATOM     32  C   UNL     1       2.376   1.406  -0.013  0.00  0.00    +0.006 A 
ATOM     33  C   UNL     1       2.396   0.021  -0.021  0.00  0.00    -0.024 A 
ATOM     34  C   UNL     1       1.208  -0.685  -0.013  0.00  0.00    -0.042 A 
ATOM     35  C   UNL     1       0.002  -0.004   0.002  0.00  0.00    +0.004 A 
ATOM     36  C   UNL     1       1.496  -2.171  -0.025  0.00  0.00    +0.037 C 
ATOM     37  C   UNL     1       2.966  -2.294  -0.480  0.00  0.00    +0.032 C 
ATOM     38  C   UNL     1       3.564  -0.942  -0.037  0.00  0.00    +0.104 C 
ENDBRANCH  26  38
ENDBRANCH   1  27
TORSDOF 5
