REMARK  Name = ZINC06137651
REMARK  16 active torsions:
REMARK  status: ('A' for Active; 'I' for Inactive)
REMARK    1  A    between atoms: C_1  and  C_2
REMARK    2  A    between atoms: C_3  and  C_34
REMARK    3  A    between atoms: C_4  and  C_25
REMARK    4  A    between atoms: C_10  and  C_15
REMARK    5  A    between atoms: C_18  and  O_23
REMARK    6  A    between atoms: C_19  and  O_21
REMARK    7  A    between atoms: O_21  and  C_22
REMARK    8  A    between atoms: O_23  and  C_24
REMARK    9  A    between atoms: C_28  and  O_32
REMARK   10  A    between atoms: C_29  and  O_31
REMARK   11  A    between atoms: O_32  and  C_33
REMARK   12  A    between atoms: C_34  and  O_36
REMARK   13  A    between atoms: O_36  and  C_37
REMARK   14  A    between atoms: C_37  and  C_38
REMARK   15  A    between atoms: C_38  and  O_39
REMARK   16  A    between atoms: O_39  and  C_40
REMARK                            x       y       z     vdW  Elec       q    Type
REMARK                         _______ _______ _______ _____ _____    ______ ____
ROOT
ATOM      1  C   UNL     1      -2.140   8.880  -1.438  0.00  0.00    +0.061 C 
ATOM      2  C   UNL     1      -1.311   8.330  -0.306  0.00  0.00    +0.031 C 
ATOM      3  C   UNL     1      -1.911   7.690   0.712  0.00  0.00    +0.154 C 
ATOM      4  C   UNL     1      -1.118   7.125   1.853  0.00  0.00    +0.073 C 
ATOM      5  C   UNL     1       0.264   7.726   1.903  0.00  0.00    +0.025 C 
ATOM      6  C   UNL     1       0.775   8.371   0.833  0.00  0.00    +0.049 C 
ATOM      7  N   UNL     1       0.047   8.487  -0.321  0.00  0.00    -0.260 NA
ATOM      8  C   UNL     1       2.156   8.976   0.876  0.00  0.00    +0.064 C 
ATOM      9  C   UNL     1       3.045   8.166   1.822  0.00  0.00    +0.032 C 
ATOM     10  C   UNL     1       2.395   8.154   3.209  0.00  0.00    +0.088 C 
ATOM     11  C   UNL     1       1.002   7.596   3.093  0.00  0.00    +0.162 C 
ATOM     12  O   UNL     1       0.507   7.024   4.043  0.00  0.00    -0.292 OA
ENDROOT
BRANCH   9  13
ATOM     13  C   UNL     1       4.409   8.800   1.903  0.00  0.00    -0.040 A 
ATOM     14  C   UNL     1       4.540  10.099   2.357  0.00  0.00    +0.008 A 
ATOM     15  C   UNL     1       5.790  10.686   2.433  0.00  0.00    +0.049 A 
ATOM     16  C   UNL     1       6.915   9.970   2.054  0.00  0.00    +0.161 A 
ATOM     17  C   UNL     1       6.783   8.663   1.597  0.00  0.00    +0.162 A 
ATOM     18  C   UNL     1       5.528   8.079   1.528  0.00  0.00    +0.053 A 
BRANCH  17  19
ATOM     19  O   UNL     1       7.884   7.957   1.224  0.00  0.00    -0.491 OA
ATOM     20  C   UNL     1       7.673   6.620   0.766  0.00  0.00    +0.277 C 
ENDBRANCH  17  19
BRANCH  16  21
ATOM     21  O   UNL     1       8.145  10.546   2.128  0.00  0.00    -0.491 OA
ATOM     22  C   UNL     1       8.204  11.891   2.605  0.00  0.00    +0.277 C 
ENDBRANCH  16  21
ENDBRANCH   9  13
BRANCH   4  23
ATOM     23  C   UNL     1      -1.003   5.633   1.675  0.00  0.00    -0.035 A 
ATOM     24  C   UNL     1      -0.367   5.118   0.560  0.00  0.00    +0.008 A 
ATOM     25  C   UNL     1      -0.254   3.750   0.395  0.00  0.00    +0.049 A 
ATOM     26  C   UNL     1      -0.787   2.892   1.343  0.00  0.00    +0.161 A 
ATOM     27  C   UNL     1      -1.426   3.410   2.465  0.00  0.00    +0.159 A 
ATOM     28  C   UNL     1      -1.532   4.782   2.627  0.00  0.00    +0.053 A 
BRANCH  27  29
ATOM     29  O   UNL     1      -1.947   2.571   3.401  0.00  0.00    -0.503 OA
ATOM     30  H   UNL     1      -1.328   2.336   4.106  0.00  0.00    +0.292 HD
ENDBRANCH  27  29
BRANCH  26  31
ATOM     31  O   UNL     1      -0.681   1.546   1.179  0.00  0.00    -0.491 OA
ATOM     32  C   UNL     1      -0.013   1.086   0.003  0.00  0.00    +0.277 C 
ENDBRANCH  26  31
ENDBRANCH   4  23
BRANCH   3  33
ATOM     33  C   UNL     1      -3.318   7.548   0.709  0.00  0.00    +0.317 C 
ATOM     34  O   UNL     1      -3.974   8.004  -0.209  0.00  0.00    -0.250 OA
BRANCH  33  35
ATOM     35  O   UNL     1      -3.934   6.907   1.725  0.00  0.00    -0.462 OA
BRANCH  35  36
ATOM     36  C   UNL     1      -5.357   6.801   1.657  0.00  0.00    +0.260 C 
BRANCH  36  37
ATOM     37  C   UNL     1      -5.872   6.048   2.885  0.00  0.00    +0.200 C 
BRANCH  37  38
ATOM     38  O   UNL     1      -5.606   6.817   4.061  0.00  0.00    -0.380 OA
ATOM     39  C   UNL     1      -6.049   6.200   5.271  0.00  0.00    +0.194 C 
ENDBRANCH  37  38
ENDBRANCH  36  37
ENDBRANCH  35  36
ENDBRANCH  33  35
ENDBRANCH   3  33
TORSDOF 11
