REMARK  Name = ZINC36071746
REMARK  15 active torsions:
REMARK  status: ('A' for Active; 'I' for Inactive)
REMARK    1  A    between atoms: C_1  and  C_2
REMARK    2  A    between atoms: C_3  and  C_33
REMARK    3  A    between atoms: C_4  and  C_23
REMARK    4  A    between atoms: C_7  and  C_12
REMARK    5  A    between atoms: C_13  and  N_15
REMARK    6  A    between atoms: N_15  and  C_16
REMARK    7  A    between atoms: C_16  and  C_17
REMARK    8  A    between atoms: C_25  and  O_31
REMARK    9  A    between atoms: C_28  and  O_29
REMARK   10  A    between atoms: O_29  and  C_30
REMARK   11  A    between atoms: O_31  and  C_32
REMARK   12  A    between atoms: C_33  and  O_35
REMARK   13  A    between atoms: O_35  and  C_36
REMARK   14  A    between atoms: C_36  and  C_37
REMARK   15  A    between atoms: C_36  and  C_38
REMARK                            x       y       z     vdW  Elec       q    Type
REMARK                         _______ _______ _______ _____ _____    ______ ____
ROOT
ATOM      1  C   UNL     1      -0.458   1.780   0.071  0.00  0.00    +0.066 C 
ATOM      2  C   UNL     1      -0.328   0.279   0.090  0.00  0.00    +0.053 C 
ATOM      3  C   UNL     1      -1.462  -0.509   0.078  0.00  0.00    +0.083 C 
ATOM      4  C   UNL     1      -1.279  -2.010   0.097  0.00  0.00    +0.153 C 
ATOM      5  N   UNL     1       0.118  -2.521   0.127  0.00  0.00    -0.267 N 
ATOM      6  C   UNL     1       0.519  -3.842   0.147  0.00  0.00    +0.048 C 
ATOM      7  C   UNL     1       1.847  -4.093   0.173  0.00  0.00    +0.072 C 
ATOM      8  S   UNL     1       2.533  -2.449   0.168  0.00  0.00    -0.060 S 
ATOM      9  C   UNL     1       1.102  -1.573   0.134  0.00  0.00    +0.166 C 
ATOM     10  N   UNL     1       0.874  -0.276   0.112  0.00  0.00    -0.230 NA
ENDROOT
BRANCH   4  11
ATOM     11  C   UNL     1      -1.996  -2.550   1.308  0.00  0.00    +0.023 A 
ATOM     12  C   UNL     1      -3.190  -3.228   1.158  0.00  0.00    +0.055 A 
ATOM     13  C   UNL     1      -3.849  -3.725   2.272  0.00  0.00    +0.121 A 
ATOM     14  C   UNL     1      -3.309  -3.542   3.537  0.00  0.00    +0.049 A 
ATOM     15  C   UNL     1      -2.115  -2.864   3.686  0.00  0.00    +0.049 A 
ATOM     16  C   UNL     1      -1.453  -2.371   2.571  0.00  0.00    +0.126 A 
BRANCH  16  17
ATOM     17  O   UNL     1      -0.275  -1.708   2.718  0.00  0.00    -0.495 OA
ATOM     18  C   UNL     1       0.279  -1.653   4.034  0.00  0.00    +0.277 C 
ENDBRANCH  16  17
BRANCH  13  19
ATOM     19  O   UNL     1      -5.025  -4.392   2.125  0.00  0.00    -0.495 OA
ATOM     20  C   UNL     1      -5.649  -4.877   3.316  0.00  0.00    +0.277 C 
ENDBRANCH  13  19
ENDBRANCH   4  11
BRANCH   6  21
ATOM     21  C   UNL     1      -0.463  -4.936   0.142  0.00  0.00    +0.091 C 
ATOM     22  C   UNL     1      -0.053  -6.209   0.298  0.00  0.00    +0.239 C 
ATOM     23  O   UNL     1       1.272  -6.493   0.349  0.00  0.00    -0.271 OA
BRANCH  22  24
ATOM     24  N   UNL     1      -0.984  -7.228   0.406  0.00  0.00    -0.309 N 
ATOM     25  H   UNL     1      -1.928  -7.035   0.296  0.00  0.00    +0.149 HD
BRANCH  24  26
ATOM     26  C   UNL     1      -0.543  -8.597   0.685  0.00  0.00    +0.136 C 
BRANCH  26  27
ATOM     27  C   UNL     1      -1.746  -9.541   0.631  0.00  0.00    +0.135 C 
ATOM     28  C   UNL     1      -1.313 -10.965   1.042  0.00  0.00    +0.035 C 
ATOM     29  C   UNL     1      -2.122 -11.853   0.058  0.00  0.00    +0.031 C 
ATOM     30  C   UNL     1      -2.135 -10.955  -1.205  0.00  0.00    +0.160 C 
ATOM     31  O   UNL     1      -2.249  -9.610  -0.709  0.00  0.00    -0.375 OA
ENDBRANCH  26  27
ENDBRANCH  24  26
ENDBRANCH  22  24
ENDBRANCH   6  21
BRANCH   3  32
ATOM     32  C   UNL     1      -2.740   0.063   0.050  0.00  0.00    +0.339 C 
ATOM     33  O   UNL     1      -2.869   1.272   0.143  0.00  0.00    -0.245 OA
BRANCH  32  34
ATOM     34  O   UNL     1      -3.830  -0.724  -0.081  0.00  0.00    -0.459 OA
BRANCH  34  35
ATOM     35  C   UNL     1      -5.093  -0.068  -0.215  0.00  0.00    +0.171 C 
ATOM     36  C   UNL     1      -5.432   0.088  -1.698  0.00  0.00    +0.052 C 
ATOM     37  C   UNL     1      -6.176  -0.902   0.471  0.00  0.00    +0.052 C 
ENDBRANCH  34  35
ENDBRANCH  32  34
ENDBRANCH   3  32
TORSDOF 10
