REMARK  Name = ZINC44855007
REMARK  12 active torsions:
REMARK  status: ('A' for Active; 'I' for Inactive)
REMARK    1  A    between atoms: C_1  and  C_2
REMARK    2  A    between atoms: N_7  and  C_9
REMARK    3  A    between atoms: C_12  and  C_15
REMARK    4  A    between atoms: C_15  and  C_17
REMARK    5  A    between atoms: C_15  and  N_18
REMARK    6  A    between atoms: C_19  and  C_21
REMARK    7  A    between atoms: N_24  and  S_36
REMARK    8  A    between atoms: C_27  and  C_32
REMARK    9  A    between atoms: C_32  and  C_33
REMARK   10  A    between atoms: C_32  and  C_34
REMARK   11  A    between atoms: C_32  and  C_35
REMARK   12  A    between atoms: S_36  and  C_39
REMARK                            x       y       z     vdW  Elec       q    Type
REMARK                         _______ _______ _______ _____ _____    ______ ____
ROOT
ATOM      1  N   UNL     1       0.745  -6.244   5.657  0.00  0.00    -0.306 N 
ATOM      2  C   UNL     1       0.609  -6.955   6.793  0.00  0.00    +0.256 C 
ATOM      3  O   UNL     1      -0.070  -6.524   7.701  0.00  0.00    -0.272 OA
ATOM      4  H   UNL     1       1.288  -6.588   4.931  0.00  0.00    +0.149 HD
ENDROOT
BRANCH   2   5
ATOM      5  C   UNL     1       1.300  -8.286   6.936  0.00  0.00    +0.277 C 
ATOM      6  C   UNL     1       0.713  -9.282   5.926  0.00  0.00    +0.185 C 
ATOM      7  N   UNL     1       1.383 -10.577   6.136  0.00  0.00    -0.200 N 
ATOM      8  C   UNL     1       1.599 -10.993   7.460  0.00  0.00    +0.093 A 
ATOM      9  C   UNL     1       1.955 -12.305   7.726  0.00  0.00    +0.032 A 
ATOM     10  C   UNL     1       2.170 -12.710   9.031  0.00  0.00    -0.040 A 
ATOM     11  C   UNL     1       2.029 -11.806  10.068  0.00  0.00    +0.008 A 
ATOM     12  C   UNL     1       1.672 -10.496   9.808  0.00  0.00    +0.048 A 
ATOM     13  C   UNL     1       1.453 -10.082   8.503  0.00  0.00    +0.144 A 
ATOM     14  O   UNL     1       1.097  -8.793   8.258  0.00  0.00    -0.476 OA
BRANCH  10  15
ATOM     15  C   UNL     1       2.557 -14.136   9.323  0.00  0.00    -0.013 C 
ATOM     16  C   UNL     1       3.873 -14.463   8.614  0.00  0.00    +0.015 C 
ATOM     17  C   UNL     1       2.733 -14.318  10.832  0.00  0.00    +0.015 C 
ATOM     18  C   UNL     1       1.460 -15.076   8.821  0.00  0.00    +0.015 C 
ENDBRANCH  10  15
BRANCH   7  19
ATOM     19  S   UNL     1       1.865 -11.510   4.856  0.00  0.00    +0.043 S 
ATOM     20  O   UNL     1       1.902 -10.618   3.751  0.00  0.00    -0.155 OA
ATOM     21  O   UNL     1       3.047 -12.158   5.304  0.00  0.00    -0.155 OA
ATOM     22  C   UNL     1       0.533 -12.723   4.636  0.00  0.00    +0.218 C 
ENDBRANCH   7  19
ENDBRANCH   2   5
BRANCH   1  23
ATOM     23  C   UNL     1       0.073  -4.949   5.518  0.00  0.00    +0.100 C 
ATOM     24  C   UNL     1      -1.362  -5.169   5.035  0.00  0.00    +0.033 C 
BRANCH  23  28
ATOM     25  C   UNL     1       2.180  -2.548   2.679  0.00  0.00    +0.030 A 
ATOM     26  C   UNL     1       1.665  -1.971   3.833  0.00  0.00    +0.023 A 
ATOM     27  C   UNL     1       0.985  -2.750   4.748  0.00  0.00    +0.007 A 
ATOM     28  C   UNL     1       0.815  -4.102   4.517  0.00  0.00    -0.027 A 
ATOM     29  C   UNL     1       1.326  -4.680   3.369  0.00  0.00    +0.007 A 
ATOM     30  C   UNL     1       2.003  -3.906   2.447  0.00  0.00    +0.023 A 
BRANCH  25  36
ATOM     31  C   UNL     1       5.651  -2.460  -0.720  0.00  0.00    +0.009 C 
ATOM     32  C   UNL     1       4.989  -1.939   0.557  0.00  0.00    +0.003 C 
ATOM     33  C   UNL     1       5.059  -0.410   0.581  0.00  0.00    +0.006 C 
ATOM     34  C   UNL     1       4.427   0.111   1.873  0.00  0.00    +0.019 C 
ATOM     35  C   UNL     1       2.953  -0.306   1.920  0.00  0.00    +0.105 C 
ATOM     36  N   UNL     1       2.869  -1.763   1.751  0.00  0.00    -0.330 N 
ATOM     37  C   UNL     1       3.522  -2.379   0.589  0.00  0.00    +0.108 C 
ENDBRANCH  25  36
ENDBRANCH  23  28
ENDBRANCH   1  23
TORSDOF 6
