REMARK  Name = ZINC16819873
REMARK  10 active torsions:
REMARK  status: ('A' for Active; 'I' for Inactive)
REMARK    1  A    between atoms: C_1  and  C_2
REMARK    2  A    between atoms: C_2  and  C_4
REMARK    3  A    between atoms: C_2  and  S_19
REMARK    4  A    between atoms: N_6  and  C_7
REMARK    5  A    between atoms: S_19  and  C_20
REMARK    6  A    between atoms: N_30  and  C_31
REMARK    7  A    between atoms: C_31  and  C_32
REMARK    8  A    between atoms: C_32  and  C_33
REMARK    9  A    between atoms: C_33  and  C_34
REMARK   10  A    between atoms: C_33  and  C_35
REMARK                            x       y       z     vdW  Elec       q    Type
REMARK                         _______ _______ _______ _____ _____    ______ ____
ROOT
ATOM      1  C   UNL     1      -0.149   1.658   0.148  0.00  0.00    +0.029 C 
ATOM      2  C   UNL     1       0.057   0.145   0.046  0.00  0.00    +0.137 C 
ENDROOT
BRANCH   2   3
ATOM      3  C   UNL     1       0.772  -0.347   1.278  0.00  0.00    +0.230 C 
ATOM      4  O   UNL     1       1.978  -0.474   1.269  0.00  0.00    -0.274 OA
ATOM      5  N   UNL     1       0.071  -0.647   2.389  0.00  0.00    -0.285 N 
ATOM      6  H   UNL     1      -0.882  -0.474   2.423  0.00  0.00    +0.155 HD
BRANCH   5   7
ATOM      7  C   UNL     1       0.721  -1.210   3.496  0.00  0.00    +0.035 A 
ATOM      8  C   UNL     1       0.284  -0.911   4.782  0.00  0.00    +0.025 A 
ATOM      9  C   UNL     1       0.919  -1.462   5.877  0.00  0.00    +0.029 A 
ATOM     10  C   UNL     1       1.997  -2.315   5.694  0.00  0.00    +0.067 A 
ATOM     11  C   UNL     1       2.438  -2.617   4.404  0.00  0.00    +0.069 A 
ATOM     12  C   UNL     1       1.794  -2.067   3.307  0.00  0.00    +0.051 A 
ATOM     13  N   UNL     1       3.518  -3.486   4.541  0.00  0.00    -0.306 N 
ATOM     14  H   UNL     1       4.033  -3.869   3.814  0.00  0.00    +0.170 HD
ATOM     15  C   UNL     1       3.725  -3.703   5.853  0.00  0.00    +0.325 A 
ATOM     16  O   UNL     1       4.596  -4.417   6.316  0.00  0.00    -0.247 OA
ATOM     17  N   UNL     1       2.824  -3.011   6.575  0.00  0.00    -0.306 N 
ATOM     18  H   UNL     1       2.761  -2.999   7.543  0.00  0.00    +0.170 HD
ENDBRANCH   5   7
ENDBRANCH   2   3
BRANCH   2  19
ATOM     19  S   UNL     1       1.052  -0.232  -1.423  0.00  0.00    -0.075 S 
BRANCH  19  20
ATOM     20  C   UNL     1       0.029   0.264  -2.769  0.00  0.00    +0.173 A 
ATOM     21  N   UNL     1      -1.149   0.772  -2.504  0.00  0.00    -0.223 NA
ATOM     22  C   UNL     1      -1.984   1.174  -3.491  0.00  0.00    +0.080 A 
ATOM     23  C   UNL     1      -3.241   1.718  -3.210  0.00  0.00    +0.048 A 
ATOM     24  C   UNL     1      -4.057   2.113  -4.248  0.00  0.00    +0.043 A 
ATOM     25  C   UNL     1      -3.645   1.978  -5.569  0.00  0.00    +0.021 A 
ATOM     26  C   UNL     1      -2.420   1.449  -5.868  0.00  0.00    +0.017 A 
ATOM     27  C   UNL     1      -1.574   1.041  -4.837  0.00  0.00    +0.065 A 
ATOM     28  C   UNL     1      -0.249   0.467  -5.105  0.00  0.00    +0.262 A 
ATOM     29  O   UNL     1       0.160   0.327  -6.243  0.00  0.00    -0.267 OA
ATOM     30  N   UNL     1       0.503   0.105  -4.040  0.00  0.00    -0.287 N 
ATOM     31 CL   UNL     1      -5.618   2.788  -3.901  0.00  0.00    -0.083 Cl
BRANCH  30  32
ATOM     32  C   UNL     1       1.835  -0.467  -4.252  0.00  0.00    +0.127 C 
BRANCH  32  33
ATOM     33  C   UNL     1       1.723  -1.988  -4.376  0.00  0.00    +0.025 C 
BRANCH  33  34
ATOM     34  C   UNL     1       3.114  -2.585  -4.597  0.00  0.00    -0.016 C 
ATOM     35  C   UNL     1       3.977  -2.342  -3.357  0.00  0.00    +0.007 C 
ATOM     36  C   UNL     1       2.990  -4.090  -4.845  0.00  0.00    +0.007 C 
ENDBRANCH  33  34
ENDBRANCH  32  33
ENDBRANCH  30  32
ENDBRANCH  19  20
ENDBRANCH   2  19
TORSDOF 7
