REMARK  Name = ZINC09115058
REMARK  3 active torsions:
REMARK  status: ('A' for Active; 'I' for Inactive)
REMARK    1  A    between atoms: C_1  and  N_2
REMARK    2  A    between atoms: C_12  and  C_20
REMARK    3  A    between atoms: N_22  and  C_23
REMARK                            x       y       z     vdW  Elec       q    Type
REMARK                         _______ _______ _______ _____ _____    ______ ____
ROOT
ATOM      1  C   UNL     1       5.436   8.062  -2.031  0.00  0.00    +0.138 C 
ATOM      2  N   UNL     1       4.823   7.187  -1.029  0.00  0.00    -0.275 N 
ATOM      3  C   UNL     1       5.350   5.953  -0.644  0.00  0.00    +0.038 A 
ATOM      4  C   UNL     1       6.494   5.279  -1.069  0.00  0.00    +0.024 A 
ATOM      5  C   UNL     1       6.812   4.049  -0.532  0.00  0.00    +0.002 A 
ATOM      6  C   UNL     1       6.001   3.474   0.429  0.00  0.00    +0.000 A 
ATOM      7  C   UNL     1       4.864   4.136   0.856  0.00  0.00    +0.004 A 
ATOM      8  C   UNL     1       4.543   5.365   0.324  0.00  0.00    -0.027 A 
ATOM      9  C   UNL     1       3.409   6.327   0.559  0.00  0.00    +0.052 C 
ATOM     10  C   UNL     1       3.685   7.480  -0.371  0.00  0.00    +0.214 C 
ATOM     11  O   UNL     1       3.011   8.480  -0.503  0.00  0.00    -0.276 OA
ATOM     12  C   UNL     1       2.060   5.676   0.242  0.00  0.00    +0.076 C 
ATOM     13  C   UNL     1       1.102   6.154   1.350  0.00  0.00    -0.003 C 
ATOM     14  C   UNL     1       1.942   7.068   2.264  0.00  0.00    -0.066 C 
ATOM     15  C   UNL     1       3.752   5.669   2.872  0.00  0.00    -0.077 C 
ATOM     16  C   UNL     1       3.058   6.058   4.202  0.00  0.00    -0.020 C 
ATOM     17  C   UNL     1       1.710   6.649   3.729  0.00  0.00    -0.017 C 
ATOM     18  N   UNL     1       3.326   6.758   1.967  0.00  0.00    +0.394 N 
ATOM     19  H   UNL     1       3.917   7.585   2.114  0.00  0.00    -0.079 HD
ENDROOT
BRANCH  12  20
ATOM     20  C   UNL     1       2.185   4.175   0.273  0.00  0.00    +0.220 C 
ATOM     21  O   UNL     1       1.829   3.556   1.253  0.00  0.00    -0.275 OA
ATOM     22  N   UNL     1       2.693   3.519  -0.790  0.00  0.00    -0.282 N 
ATOM     23  H   UNL     1       3.055   4.018  -1.540  0.00  0.00    +0.155 HD
BRANCH  22  24
ATOM     24  C   UNL     1       2.699   2.118  -0.812  0.00  0.00    +0.083 A 
ATOM     25  C   UNL     1       2.938   1.404   0.357  0.00  0.00    +0.148 A 
ATOM     26  C   UNL     1       2.944   0.021   0.332  0.00  0.00    +0.078 A 
ATOM     27  C   UNL     1       2.711  -0.652  -0.856  0.00  0.00    +0.127 A 
ATOM     28  C   UNL     1       2.473   0.057  -2.020  0.00  0.00    +0.055 A 
ATOM     29  C   UNL     1       2.466   1.440  -2.001  0.00  0.00    +0.045 A 
ATOM     30 BR   UNL     1       2.149   2.407  -3.595  0.00  0.00    -0.048 Br
ATOM     31  F   UNL     1       2.717  -2.003  -0.878  0.00  0.00    -0.205 F 
ATOM     32  F   UNL     1       3.165   2.060   1.516  0.00  0.00    -0.203 F 
ENDBRANCH  22  24
ENDBRANCH  12  20
TORSDOF 2
