REMARK  Name = ZINC43632121
REMARK  13 active torsions:
REMARK  status: ('A' for Active; 'I' for Inactive)
REMARK    1  A    between atoms: C_1  and  C_2
REMARK    2  A    between atoms: C_2  and  C_3
REMARK    3  A    between atoms: C_2  and  C_4
REMARK    4  A    between atoms: C_4  and  C_5
REMARK    5  A    between atoms: C_5  and  N_6
REMARK    6  A    between atoms: N_9  and  C_30
REMARK    7  A    between atoms: N_15  and  C_18
REMARK    8  A    between atoms: C_18  and  C_19
REMARK    9  A    between atoms: C_27  and  C_28
REMARK   10  A    between atoms: C_27  and  C_29
REMARK   11  A    between atoms: C_30  and  C_31
REMARK   12  A    between atoms: C_31  and  C_32
REMARK   13  A    between atoms: C_32  and  C_33
REMARK                            x       y       z     vdW  Elec       q    Type
REMARK                         _______ _______ _______ _____ _____    ______ ____
ROOT
ATOM      1  N   UNL     1       0.676  -0.494   3.720  0.00  0.00    -0.271 N 
ATOM      2  C   UNL     1       0.615  -1.675   4.365  0.00  0.00    +0.312 C 
ATOM      3  O   UNL     1      -0.069  -2.611   3.998  0.00  0.00    -0.252 OA
ATOM      4  N   UNL     1       1.391  -1.702   5.455  0.00  0.00    -0.224 N 
ATOM      5  C   UNL     1       2.041  -0.533   5.631  0.00  0.00    +0.247 C 
ATOM      6  O   UNL     1       2.812  -0.249   6.522  0.00  0.00    -0.273 OA
ATOM      7  C   UNL     1       1.609   0.346   4.481  0.00  0.00    +0.112 C 
ATOM      8  C   UNL     1       2.808   0.730   3.620  0.00  0.00    +0.017 C 
ATOM      9  C   UNL     1       2.346   1.659   2.494  0.00  0.00    -0.076 C 
ATOM     10  N   UNL     1       1.727   2.859   3.070  0.00  0.00    +0.382 N 
ATOM     11  C   UNL     1       0.520   2.488   3.818  0.00  0.00    -0.076 C 
ATOM     12  C   UNL     1       0.904   1.595   5.000  0.00  0.00    +0.017 C 
ATOM     13  H   UNL     1       2.382   3.308   3.692  0.00  0.00    -0.081 HD
ENDROOT
BRANCH   1  14
ATOM     14  C   UNL     1      -0.042  -0.124   2.497  0.00  0.00    +0.110 C 
BRANCH  14  15
ATOM     15  C   UNL     1      -1.543  -0.060   2.786  0.00  0.00    +0.022 C 
BRANCH  15  17
ATOM     16  C   UNL     1      -2.129  -0.564   0.410  0.00  0.00    +0.007 C 
ATOM     17  C   UNL     1      -2.280   0.450   1.546  0.00  0.00    -0.016 C 
ATOM     18  C   UNL     1      -3.763   0.632   1.874  0.00  0.00    +0.007 C 
ENDBRANCH  15  17
ENDBRANCH  14  15
ENDBRANCH   1  14
BRANCH  10  19
ATOM     19  C   UNL     1       1.366   3.788   1.990  0.00  0.00    -0.047 C 
BRANCH  19  20
ATOM     20  C   UNL     1       0.844   5.070   2.584  0.00  0.00    -0.086 C 
ATOM     21  C   UNL     1       1.630   6.106   2.771  0.00  0.00    -0.029 C 
ATOM     22  C   UNL     1       1.065   7.375   3.361  0.00  0.00    +0.031 C 
ATOM     23  C   UNL     1      -0.412   7.164   3.723  0.00  0.00    -0.000 C 
ATOM     24  C   UNL     1      -0.665   5.829   4.443  0.00  0.00    +0.012 C 
ATOM     25  C   UNL     1      -0.614   5.217   2.986  0.00  0.00    +0.019 C 
ATOM     26  C   UNL     1      -1.188   6.567   2.531  0.00  0.00    -0.025 C 
ATOM     27  C   UNL     1      -2.708   6.671   2.668  0.00  0.00    +0.012 C 
ATOM     28  C   UNL     1      -0.675   7.026   1.165  0.00  0.00    +0.012 C 
ENDBRANCH  19  20
ENDBRANCH  10  19
BRANCH   4  29
ATOM     29  C   UNL     1       1.519  -2.857   6.346  0.00  0.00    +0.118 C 
BRANCH  29  30
ATOM     30  C   UNL     1       2.663  -3.751   5.862  0.00  0.00    +0.024 C 
BRANCH  30  31
ATOM     31  C   UNL     1       2.796  -4.958   6.793  0.00  0.00    +0.037 C 
BRANCH  31  32
ATOM     32  C   UNL     1       3.923  -5.837   6.317  0.00  0.00    -0.044 A 
ATOM     33  C   UNL     1       3.691  -6.858   5.407  0.00  0.00    +0.023 A 
ATOM     34  C   UNL     1       4.749  -7.644   4.993  0.00  0.00    +0.111 A 
ATOM     35  N   UNL     1       5.967  -7.433   5.452  0.00  0.00    -0.263 NA
ATOM     36  C   UNL     1       6.225  -6.473   6.318  0.00  0.00    +0.111 A 
ATOM     37  C   UNL     1       5.218  -5.642   6.773  0.00  0.00    +0.023 A 
ENDBRANCH  31  32
ENDBRANCH  30  31
ENDBRANCH  29  30
ENDBRANCH   4  29
TORSDOF 9
