REMARK  Name = ZINC35037178
REMARK  9 active torsions:
REMARK  status: ('A' for Active; 'I' for Inactive)
REMARK    1  A    between atoms: C_1  and  C_2
REMARK    2  A    between atoms: C_2  and  C_4
REMARK    3  A    between atoms: C_2  and  N_21
REMARK    4  A    between atoms: N_14  and  C_15
REMARK    5  A    between atoms: N_21  and  C_22
REMARK    6  A    between atoms: C_22  and  C_23
REMARK    7  A    between atoms: C_23  and  O_24
REMARK    8  A    between atoms: O_24  and  C_25
REMARK    9  A    between atoms: N_28  and  C_29
REMARK                            x       y       z     vdW  Elec       q    Type
REMARK                         _______ _______ _______ _____ _____    ______ ____
ROOT
ATOM      1  C   UNL     1       0.619   0.494   0.879  0.00  0.00    +0.036 C 
ATOM      2  C   UNL     1       0.315  -0.882   0.285  0.00  0.00    +0.141 C 
ENDROOT
BRANCH   2   3
ATOM      3  C   UNL     1       0.747  -0.913  -1.158  0.00  0.00    +0.138 A 
ATOM      4  N   UNL     1       1.973  -0.592  -1.441  0.00  0.00    -0.231 NA
ATOM      5  C   UNL     1       2.433  -0.597  -2.717  0.00  0.00    +0.078 A 
ATOM      6  C   UNL     1       3.751  -0.251  -3.022  0.00  0.00    +0.028 A 
ATOM      7  C   UNL     1       4.176  -0.270  -4.331  0.00  0.00    +0.002 A 
ATOM      8  C   UNL     1       3.309  -0.628  -5.356  0.00  0.00    +0.001 A 
ATOM      9  C   UNL     1       2.003  -0.973  -5.080  0.00  0.00    +0.015 A 
ATOM     10  C   UNL     1       1.554  -0.961  -3.761  0.00  0.00    +0.065 A 
ATOM     11  C   UNL     1       0.173  -1.319  -3.408  0.00  0.00    +0.266 A 
ATOM     12  O   UNL     1      -0.635  -1.642  -4.260  0.00  0.00    -0.267 OA
ATOM     13  N   UNL     1      -0.165  -1.282  -2.098  0.00  0.00    -0.263 N 
BRANCH  13  14
ATOM     14  C   UNL     1      -1.467  -1.619  -1.706  0.00  0.00    +0.051 A 
ATOM     15  C   UNL     1      -2.439  -0.633  -1.599  0.00  0.00    +0.026 A 
ATOM     16  C   UNL     1      -3.722  -0.969  -1.214  0.00  0.00    +0.002 A 
ATOM     17  C   UNL     1      -4.039  -2.286  -0.934  0.00  0.00    +0.000 A 
ATOM     18  C   UNL     1      -3.073  -3.270  -1.040  0.00  0.00    +0.002 A 
ATOM     19  C   UNL     1      -1.790  -2.941  -1.431  0.00  0.00    +0.026 A 
ENDBRANCH  13  14
ENDBRANCH   2   3
BRANCH   2  20
ATOM     20  N   UNL     1       1.043  -1.909   1.035  0.00  0.00    -0.274 N 
ATOM     21  C   UNL     1       0.367  -2.892   1.663  0.00  0.00    +0.303 C 
ATOM     22  O   UNL     1      -0.847  -2.926   1.606  0.00  0.00    -0.253 OA
ATOM     23  N   UNL     1       1.036  -3.836   2.352  0.00  0.00    -0.294 N 
ATOM     24  H   UNL     1       2.005  -3.809   2.397  0.00  0.00    +0.151 HD
BRANCH  23  25
ATOM     25  C   UNL     1       0.302  -4.905   3.034  0.00  0.00    +0.037 C 
ATOM     26  C   UNL     1      -0.645  -4.292   4.069  0.00  0.00    +0.029 C 
ATOM     27  C   UNL     1      -1.412  -5.408   4.781  0.00  0.00    -0.008 C 
ATOM     28  C   UNL     1      -0.422  -6.340   5.484  0.00  0.00    +0.007 C 
ATOM     29  C   UNL     1       0.524  -6.952   4.449  0.00  0.00    -0.008 C 
ATOM     30  C   UNL     1       1.291  -5.837   3.736  0.00  0.00    +0.029 C 
ATOM     31  C   UNL     1      -0.287  -7.748   3.424  0.00  0.00    +0.007 C 
ATOM     32  C   UNL     1      -1.277  -6.816   2.722  0.00  0.00    -0.008 C 
ATOM     33  C   UNL     1      -2.223  -6.204   3.757  0.00  0.00    +0.007 C 
ATOM     34  C   UNL     1      -0.509  -5.700   2.010  0.00  0.00    +0.029 C 
ENDBRANCH  23  25
BRANCH  20  35
ATOM     35  C   UNL     1       2.506  -1.868   1.103  0.00  0.00    +0.138 C 
BRANCH  35  36
ATOM     36  C   UNL     1       2.937  -1.040   2.316  0.00  0.00    +0.178 C 
BRANCH  36  37
ATOM     37  O   UNL     1       2.521  -1.699   3.514  0.00  0.00    -0.381 OA
ATOM     38  C   UNL     1       2.877  -1.006   4.712  0.00  0.00    +0.194 C 
ENDBRANCH  36  37
ENDBRANCH  35  36
ENDBRANCH  20  35
ENDBRANCH   2  20
TORSDOF 7
