REMARK  Name = ZINC07127189
REMARK  1 active torsions:
REMARK  status: ('A' for Active; 'I' for Inactive)
REMARK    1  A    between atoms: C_10  and  C_16
REMARK                            x       y       z     vdW  Elec       q    Type
REMARK                         _______ _______ _______ _____ _____    ______ ____
ROOT
ATOM      1  C   UNL     1       2.170  -0.436  -0.158  0.00  0.00    +0.002 A 
ATOM      2  C   UNL     1       0.910  -1.016  -0.155  0.00  0.00    +0.002 A 
ATOM      3  C   UNL     1      -0.222  -0.229  -0.103  0.00  0.00    +0.028 A 
ATOM      4  C   UNL     1      -0.106   1.152  -0.053  0.00  0.00    +0.072 A 
ATOM      5  C   UNL     1       1.171   1.746  -0.058  0.00  0.00    +0.091 A 
ATOM      6  C   UNL     1       2.307   0.933  -0.110  0.00  0.00    +0.030 A 
ATOM      7  N   UNL     1       0.995   3.093  -0.010  0.00  0.00    -0.214 NA
ATOM      8  C   UNL     1      -0.283   3.369   0.023  0.00  0.00    +0.205 A 
ATOM      9  N   UNL     1      -1.003   2.191   0.011  0.00  0.00    -0.287 N 
ATOM     10  C   UNL     1      -2.469   2.175   0.072  0.00  0.00    +0.219 C 
ATOM     11  N   UNL     1      -2.925   3.490  -0.415  0.00  0.00    -0.337 N 
ATOM     12  C   UNL     1      -2.209   4.616  -0.109  0.00  0.00    +0.159 C 
ATOM     13  N   UNL     1      -0.901   4.573   0.077  0.00  0.00    -0.259 N 
ATOM     14  N   UNL     1      -2.862   5.814   0.005  0.00  0.00    -0.332 N 
ATOM     15  H   UNL     1      -2.299   6.726   0.250  0.00  0.00    +0.145 HD
ATOM     16  H   UNL     1      -0.316   5.484   0.271  0.00  0.00    +0.158 HD
ATOM     17  H   UNL     1      -3.950   5.864  -0.149  0.00  0.00    +0.145 HD
ATOM     18  H   UNL     1      -3.838   3.567  -1.024  0.00  0.00    +0.164 HD
ENDROOT
BRANCH  10  19
ATOM     19  C   UNL     1      -2.925   1.966   1.493  0.00  0.00    +0.013 A 
ATOM     20  C   UNL     1      -2.036   2.149   2.537  0.00  0.00    +0.058 A 
ATOM     21  C   UNL     1      -2.453   1.962   3.844  0.00  0.00    +0.167 A 
ATOM     22  C   UNL     1      -3.767   1.577   4.104  0.00  0.00    +0.167 A 
ATOM     23  C   UNL     1      -4.651   1.390   3.054  0.00  0.00    +0.065 A 
ATOM     24  C   UNL     1      -4.229   1.585   1.751  0.00  0.00    +0.028 A 
ATOM     25 BR   UNL     1      -5.438   1.329   0.320  0.00  0.00    -0.050 Br
ATOM     26  O   UNL     1      -3.926   1.453   5.454  0.00  0.00    -0.453 OA
ATOM     27  C   UNL     1      -2.816   2.160   6.039  0.00  0.00    +0.466 C 
ATOM     28  O   UNL     1      -1.790   2.078   5.032  0.00  0.00    -0.453 OA
ENDBRANCH  10  19
TORSDOF 1
