REMARK  Name = ZINC33957499
REMARK  5 active torsions:
REMARK  status: ('A' for Active; 'I' for Inactive)
REMARK    1  A    between atoms: C_1  and  C_2
REMARK    2  A    between atoms: N_6  and  N_7
REMARK    3  A    between atoms: C_8  and  C_10
REMARK    4  A    between atoms: C_13  and  C_16
REMARK    5  A    between atoms: C_29  and  C_36
REMARK                            x       y       z     vdW  Elec       q    Type
REMARK                         _______ _______ _______ _____ _____    ______ ____
ROOT
ATOM      1  C   UNL     1      -0.019   1.531   0.011  0.00  0.00    +0.016 C 
ATOM      2  C   UNL     1       0.002  -0.004   0.002  0.00  0.00    -0.007 C 
ATOM      3  C   UNL     1       0.712  -0.425  -1.279  0.00  0.00    +0.017 C 
ATOM      4  C   UNL     1       2.212  -0.150  -1.216  0.00  0.00    +0.058 C 
ATOM      5  C   UNL     1       2.773  -0.902  -0.026  0.00  0.00    +0.059 C 
ATOM      6  N   UNL     1       3.907  -1.542  -0.102  0.00  0.00    -0.185 NA
ATOM      7  C   UNL     1       1.989  -0.881   1.216  0.00  0.00    +0.024 C 
ATOM      8  C   UNL     1       0.734  -0.441   1.230  0.00  0.00    -0.062 C 
ATOM      9  C   UNL     1       0.035  -0.350   2.566  0.00  0.00    +0.031 C 
ATOM     10  C   UNL     1      -1.350  -0.945   2.489  0.00  0.00    +0.008 C 
ATOM     11  C   UNL     1      -2.178  -0.492   1.300  0.00  0.00    -0.003 C 
ATOM     12  C   UNL     1      -1.439  -0.456  -0.019  0.00  0.00    +0.002 C 
ATOM     13  C   UNL     1      -1.701  -1.700  -0.854  0.00  0.00    +0.005 C 
ATOM     14  C   UNL     1      -3.168  -1.716  -1.323  0.00  0.00    +0.015 C 
ATOM     15  C   UNL     1      -4.061  -1.274  -0.187  0.00  0.00    +0.029 C 
ATOM     16  C   UNL     1      -3.336  -1.479   1.159  0.00  0.00    +0.006 C 
ATOM     17  C   UNL     1      -4.478  -1.266   2.165  0.00  0.00    +0.012 C 
ATOM     18  C   UNL     1      -5.688  -1.938   1.464  0.00  0.00    +0.075 C 
ATOM     19  C   UNL     1      -5.306  -2.117   0.000  0.00  0.00    +0.139 C 
ATOM     20  O   UNL     1      -5.865  -2.779  -0.834  0.00  0.00    -0.297 OA
ATOM     21  C   UNL     1      -4.501   0.178  -0.375  0.00  0.00    +0.019 C 
ENDROOT
BRANCH   6  22
ATOM     22  N   UNL     1       4.400  -2.228   1.015  0.00  0.00    -0.203 N 
ATOM     23  C   UNL     1       5.572  -2.889   0.936  0.00  0.00    +0.263 C 
ATOM     24  O   UNL     1       6.201  -2.890  -0.104  0.00  0.00    -0.268 OA
ATOM     25  H   UNL     1       3.898  -2.228   1.845  0.00  0.00    +0.178 HD
BRANCH  23  26
ATOM     26  C   UNL     1       6.093  -3.615   2.116  0.00  0.00    +0.038 A 
ATOM     27  C   UNL     1       5.368  -3.619   3.309  0.00  0.00    +0.014 A 
ATOM     28  C   UNL     1       5.852  -4.294   4.408  0.00  0.00    +0.016 A 
ATOM     29  C   UNL     1       7.070  -4.974   4.329  0.00  0.00    +0.063 A 
ATOM     30  C   UNL     1       7.795  -4.970   3.135  0.00  0.00    +0.016 A 
ATOM     31  C   UNL     1       7.306  -4.300   2.035  0.00  0.00    +0.014 A 
BRANCH  29  32
ATOM     32  C   UNL     1       7.590  -5.698   5.507  0.00  0.00    +0.387 C 
ATOM     33  O   UNL     1       6.955  -5.702   6.552  0.00  0.00    -0.241 OA
ATOM     34  O   UNL     1       8.656  -6.294   5.437  0.00  0.00    -0.241 OA
ENDBRANCH  29  32
ENDBRANCH  23  26
ENDBRANCH   6  22
TORSDOF 3
