REMARK  Name = ZINC09008313
REMARK  11 active torsions:
REMARK  status: ('A' for Active; 'I' for Inactive)
REMARK    1  A    between atoms: C_1  and  C_2
REMARK    2  A    between atoms: C_2  and  N_56
REMARK    3  A    between atoms: C_3  and  C_4
REMARK    4  A    between atoms: C_3  and  N_56
REMARK    5  A    between atoms: C_5  and  C_6
REMARK    6  A    between atoms: C_5  and  N_56
REMARK    7  A    between atoms: C_6  and  N_7
REMARK    8  A    between atoms: C_8  and  C_26
REMARK    9  A    between atoms: C_11  and  C_12
REMARK   10  A    between atoms: C_11  and  O_21
REMARK   11  A    between atoms: C_15  and  N_18
REMARK                            x       y       z     vdW  Elec       q    Type
REMARK                         _______ _______ _______ _____ _____    ______ ____
ROOT
ATOM      1  N   UNL     1       2.219   4.739  -0.373  0.00  0.00    -0.285 N 
ATOM      2  C   UNL     1       2.684   3.602   0.426  0.00  0.00    +0.147 C 
ATOM      3  C   UNL     1       3.310   4.177   1.675  0.00  0.00    +0.071 C 
ATOM      4  C   UNL     1       3.882   3.474   2.715  0.00  0.00    +0.133 C 
ATOM      5  C   UNL     1       3.190   5.573   1.564  0.00  0.00    +0.249 C 
ATOM      6  O   UNL     1       3.579   6.391   2.378  0.00  0.00    -0.282 OA
ATOM      7  C   UNL     1       2.508   5.879   0.277  0.00  0.00    +0.288 C 
ATOM      8  O   UNL     1       2.250   6.995  -0.126  0.00  0.00    -0.266 OA
ENDROOT
BRANCH   2   9
ATOM      9  C   UNL     1       1.520   2.718   0.791  0.00  0.00    +0.013 A 
ATOM     10  C   UNL     1       0.948   2.812   2.046  0.00  0.00    +0.008 A 
ATOM     11  C   UNL     1      -0.120   2.001   2.382  0.00  0.00    +0.001 A 
ATOM     12  C   UNL     1      -0.620   1.098   1.462  0.00  0.00    +0.003 A 
ATOM     13  C   UNL     1      -0.046   0.998   0.209  0.00  0.00    +0.039 A 
ATOM     14  C   UNL     1       1.024   1.810  -0.129  0.00  0.00    +0.129 A 
ATOM     15  F   UNL     1       1.582   1.718  -1.356  0.00  0.00    -0.205 F 
ENDBRANCH   2   9
BRANCH   4  16
ATOM     16  C   UNL     1       4.025   2.010   2.623  0.00  0.00    +0.017 A 
ATOM     17  C   UNL     1       3.596   1.195   3.676  0.00  0.00    +0.014 A 
ATOM     18  C   UNL     1       3.728  -0.174   3.581  0.00  0.00    +0.033 A 
ATOM     19  C   UNL     1       4.293  -0.742   2.452  0.00  0.00    +0.126 A 
ATOM     20  C   UNL     1       4.725   0.058   1.408  0.00  0.00    +0.033 A 
ATOM     21  C   UNL     1       4.595   1.429   1.486  0.00  0.00    +0.014 A 
BRANCH  19  22
ATOM     22  N   UNL     1       4.436  -2.212   2.360  0.00  0.00    +0.056 N 
ATOM     23  O   UNL     1       4.933  -2.715   1.368  0.00  0.00    -0.126 OA
ATOM     24  O   UNL     1       4.057  -2.920   3.277  0.00  0.00    -0.126 OA
ENDBRANCH  19  22
ENDBRANCH   4  16
BRANCH   4  25
ATOM     25  O   UNL     1       4.312   4.126   3.816  0.00  0.00    -0.506 OA
ATOM     26  H   UNL     1       4.697   3.469   4.464  0.00  0.00    +0.292 HD
ENDBRANCH   4  25
BRANCH   1  27
ATOM     27  C   UNL     1       1.547   4.648  -1.672  0.00  0.00    +0.090 C 
BRANCH  27  28
ATOM     28  C   UNL     1       0.031   4.687  -1.465  0.00  0.00    -0.060 C 
BRANCH  28  29
ATOM     29  N   UNL     1      -0.630   4.631  -2.786  0.00  0.00    +0.380 N 
ATOM     30  H   UNL     1      -0.167   5.293  -3.419  0.00  0.00    -0.082 HD
BRANCH  29  32
ATOM     31  C   UNL     1      -1.006   3.294  -4.800  0.00  0.00    -0.017 C 
ATOM     32  C   UNL     1      -0.517   3.269  -3.350  0.00  0.00    -0.082 C 
ENDBRANCH  29  32
BRANCH  29  33
ATOM     33  C   UNL     1      -2.053   5.007  -2.655  0.00  0.00    -0.082 C 
ATOM     34  C   UNL     1      -2.148   6.529  -2.532  0.00  0.00    -0.017 C 
ENDBRANCH  29  33
ENDBRANCH  28  29
ENDBRANCH  27  28
ENDBRANCH   1  27
TORSDOF 9
