REMARK  Name = ZINC63746386
REMARK  9 active torsions:
REMARK  status: ('A' for Active; 'I' for Inactive)
REMARK    1  A    between atoms: C_1  and  C_2
REMARK    2  A    between atoms: C_5  and  C_24
REMARK    3  A    between atoms: C_6  and  C_17
REMARK    4  A    between atoms: C_10  and  N_12
REMARK    5  A    between atoms: N_15  and  C_16
REMARK    6  A    between atoms: N_19  and  C_20
REMARK    7  A    between atoms: C_20  and  C_21
REMARK    8  A    between atoms: C_21  and  O_22
REMARK    9  A    between atoms: O_22  and  C_23
REMARK                            x       y       z     vdW  Elec       q    Type
REMARK                         _______ _______ _______ _____ _____    ______ ____
ROOT
ATOM      1  C   UNL     1      -0.677   1.530  -0.071  0.00  0.00    +0.044 C 
ATOM      2  C   UNL     1      -0.506   0.033  -0.042  0.00  0.00    -0.048 A 
ATOM      3  C   UNL     1      -0.432  -0.637  -1.214  0.00  0.00    +0.013 A 
ATOM      4  C   UNL     1      -0.272  -2.045  -1.225  0.00  0.00    +0.006 A 
ATOM      5  C   UNL     1      -0.170  -2.968  -2.251  0.00  0.00    -0.000 C 
ATOM      6  C   UNL     1      -0.015  -4.313  -1.576  0.00  0.00    +0.198 C 
ATOM      7  N   UNL     1      -0.042  -4.048  -0.134  0.00  0.00    -0.368 N 
ATOM      8  C   UNL     1      -0.187  -2.759   0.063  0.00  0.00    +0.065 A 
ATOM      9  C   UNL     1      -0.276  -1.959   1.295  0.00  0.00    +0.059 A 
ATOM     10  C   UNL     1      -0.424  -0.611   1.197  0.00  0.00    +0.028 A 
ATOM     11  H   UNL     1       0.036  -4.718   0.563  0.00  0.00    +0.161 HD
ENDROOT
BRANCH   9  12
ATOM     12  N   UNL     1      -0.203  -2.576   2.548  0.00  0.00    -0.268 N 
ATOM     13  C   UNL     1       0.217  -1.875   3.620  0.00  0.00    +0.304 C 
ATOM     14  O   UNL     1       0.633  -0.741   3.481  0.00  0.00    -0.253 OA
ATOM     15  N   UNL     1       0.176  -2.432   4.847  0.00  0.00    -0.302 N 
ATOM     16  C   UNL     1       0.632  -1.670   6.012  0.00  0.00    +0.129 C 
ATOM     17  H   UNL     1      -0.455  -3.507   2.645  0.00  0.00    +0.156 HD
ATOM     18  H   UNL     1      -0.156  -3.336   4.958  0.00  0.00    +0.150 HD
ENDBRANCH   9  12
BRANCH   5  19
ATOM     19  C   UNL     1      -0.204  -2.700  -3.690  0.00  0.00    -0.019 A 
ATOM     20  C   UNL     1       0.177  -1.444  -4.182  0.00  0.00    +0.008 A 
ATOM     21  C   UNL     1       0.141  -1.200  -5.538  0.00  0.00    +0.001 A 
ATOM     22  C   UNL     1      -0.270  -2.192  -6.413  0.00  0.00    +0.000 A 
ATOM     23  C   UNL     1      -0.649  -3.435  -5.936  0.00  0.00    +0.001 A 
ATOM     24  C   UNL     1      -0.614  -3.699  -4.584  0.00  0.00    +0.008 A 
ENDBRANCH   5  19
BRANCH   6  25
ATOM     25  C   UNL     1       1.298  -4.942  -1.965  0.00  0.00    +0.240 C 
ATOM     26  O   UNL     1       2.222  -4.952  -1.179  0.00  0.00    -0.273 OA
ATOM     27  N   UNL     1       1.446  -5.492  -3.187  0.00  0.00    -0.311 N 
ATOM     28  H   UNL     1       0.733  -5.421  -3.840  0.00  0.00    +0.149 HD
BRANCH  27  29
ATOM     29  C   UNL     1       2.684  -6.197  -3.527  0.00  0.00    +0.132 C 
BRANCH  29  30
ATOM     30  C   UNL     1       2.595  -6.721  -4.962  0.00  0.00    +0.178 C 
BRANCH  30  31
ATOM     31  O   UNL     1       2.525  -5.619  -5.868  0.00  0.00    -0.381 OA
ATOM     32  C   UNL     1       2.438  -6.001  -7.243  0.00  0.00    +0.194 C 
ENDBRANCH  30  31
ENDBRANCH  29  30
ENDBRANCH  27  29
ENDBRANCH   6  25
TORSDOF 6
