REMARK  Name = ZINC43291130
REMARK  7 active torsions:
REMARK  status: ('A' for Active; 'I' for Inactive)
REMARK    1  A    between atoms: C_1  and  C_2
REMARK    2  A    between atoms: C_2  and  C_3
REMARK    3  A    between atoms: C_3  and  C_5
REMARK    4  A    between atoms: C_3  and  N_19
REMARK    5  A    between atoms: C_5  and  C_7
REMARK    6  A    between atoms: C_5  and  S_13
REMARK    7  A    between atoms: S_13  and  C_14
REMARK                            x       y       z     vdW  Elec       q    Type
REMARK                         _______ _______ _______ _____ _____    ______ ____
ROOT
ATOM      1  C   UNL     1       0.844  -2.022  -1.347  0.00  0.00    +0.075 C 
ENDROOT
BRANCH   1   2
ATOM      2  C   UNL     1       1.619  -2.455  -2.566  0.00  0.00    +0.003 A 
ATOM      3  C   UNL     1       2.780  -3.150  -2.636  0.00  0.00    +0.027 A 
ATOM      4  C   UNL     1       3.315  -3.437  -3.878  0.00  0.00    +0.025 A 
ATOM      5  C   UNL     1       2.662  -3.015  -4.989  0.00  0.00    +0.060 A 
ATOM      6  S   UNL     1       1.241  -2.190  -4.290  0.00  0.00    -0.099 S 
ATOM      7 BR   UNL     1       4.933  -4.404  -4.026  0.00  0.00    -0.050 Br
ENDBRANCH   1   2
BRANCH   1   8
ATOM      8  C   UNL     1       0.723  -0.497  -1.334  0.00  0.00    -0.057 C 
BRANCH   8   9
ATOM      9  N   UNL     1      -0.135  -0.084  -0.216  0.00  0.00    +0.381 N 
ATOM     10  H   UNL     1      -0.214   0.922  -0.207  0.00  0.00    -0.090 HD
ATOM     11  H   UNL     1      -1.051  -0.493  -0.325  0.00  0.00    -0.090 HD
ATOM     12  H   UNL     1       0.272  -0.396   0.653  0.00  0.00    -0.090 HD
ENDBRANCH   8   9
BRANCH   8  14
ATOM     13  C   UNL     1       2.008   1.645  -1.290  0.00  0.00    +0.002 C 
ATOM     14  C   UNL     1       2.112   0.123  -1.169  0.00  0.00    -0.018 C 
ENDBRANCH   8  14
ENDBRANCH   1   8
BRANCH   1  15
ATOM     15  S   UNL     1      -0.813  -2.760  -1.391  0.00  0.00    -0.092 S 
BRANCH  15  16
ATOM     16  C   UNL     1      -0.518  -4.484  -1.175  0.00  0.00    +0.135 A 
ATOM     17  N   UNL     1       0.636  -5.112  -1.091  0.00  0.00    -0.241 NA
ATOM     18  C   UNL     1       0.688  -6.422  -0.928  0.00  0.00    +0.120 A 
ATOM     19  C   UNL     1      -0.493  -7.081  -0.852  0.00  0.00    +0.067 A 
ATOM     20  S   UNL     1      -1.643  -5.726  -1.019  0.00  0.00    -0.069 S 
ENDBRANCH  15  16
ENDBRANCH   1  15
TORSDOF 6
