REMARK  Name = ZINC05553617
REMARK  4 active torsions:
REMARK  status: ('A' for Active; 'I' for Inactive)
REMARK    1  A    between atoms: C_1  and  C_2
REMARK    2  A    between atoms: C_9  and  C_12
REMARK    3  A    between atoms: C_15  and  C_18
REMARK    4  A    between atoms: C_18  and  N_20
REMARK                            x       y       z     vdW  Elec       q    Type
REMARK                         _______ _______ _______ _____ _____    ______ ____
ROOT
ATOM      1  C   UNL     1      -0.018   1.503   0.010  0.00  0.00    +0.044 C 
ATOM      2  C   UNL     1       0.002  -0.004   0.002  0.00  0.00    -0.049 A 
ATOM      3  C   UNL     1       0.006  -0.687  -1.200  0.00  0.00    +0.005 A 
ATOM      4  C   UNL     1       0.024  -2.069  -1.212  0.00  0.00    +0.025 A 
ATOM      5  C   UNL     1       0.039  -2.777  -0.017  0.00  0.00    +0.050 A 
ATOM      6  C   UNL     1       0.036  -2.090   1.193  0.00  0.00    +0.050 A 
ATOM      7  C   UNL     1       0.023  -0.700   1.196  0.00  0.00    +0.028 A 
ATOM      8  N   UNL     1       0.052  -3.002   2.257  0.00  0.00    -0.321 N 
ATOM      9  C   UNL     1       0.067  -4.350   1.678  0.00  0.00    +0.187 C 
ATOM     10  N   UNL     1       0.058  -4.158   0.222  0.00  0.00    -0.321 N 
ATOM     11  H   UNL     1       0.054  -2.782   3.202  0.00  0.00    +0.148 HD
ATOM     12  H   UNL     1       0.064  -4.858  -0.450  0.00  0.00    +0.148 HD
ENDROOT
BRANCH   9  13
ATOM     13  C   UNL     1      -1.156  -5.116   2.111  0.00  0.00    -0.010 A 
ATOM     14  C   UNL     1      -1.743  -4.842   3.334  0.00  0.00    +0.008 A 
ATOM     15  C   UNL     1      -2.863  -5.539   3.736  0.00  0.00    +0.010 A 
ATOM     16  C   UNL     1      -3.405  -6.523   2.907  0.00  0.00    +0.003 A 
ATOM     17  C   UNL     1      -2.808  -6.794   1.674  0.00  0.00    +0.010 A 
ATOM     18  C   UNL     1      -1.691  -6.086   1.281  0.00  0.00    +0.008 A 
BRANCH  16  19
ATOM     19  C   UNL     1      -4.604  -7.273   3.331  0.00  0.00    +0.077 C 
ATOM     20  S   UNL     1      -5.822  -6.493   4.246  0.00  0.00    -0.035 S 
BRANCH  19  21
ATOM     21  N   UNL     1      -4.738  -8.572   2.998  0.00  0.00    -0.352 N 
ATOM     22  H   UNL     1      -4.048  -9.014   2.480  0.00  0.00    +0.143 HD
ATOM     23  H   UNL     1      -5.526  -9.065   3.277  0.00  0.00    +0.143 HD
ENDBRANCH  19  21
ENDBRANCH  16  19
ENDBRANCH   9  13
TORSDOF 3
