REMARK  Name = ZINC20149069
REMARK  10 active torsions:
REMARK  status: ('A' for Active; 'I' for Inactive)
REMARK    1  A    between atoms: C_1  and  O_2
REMARK    2  A    between atoms: O_2  and  C_3
REMARK    3  A    between atoms: C_3  and  C_5
REMARK    4  A    between atoms: C_5  and  C_6
REMARK    5  A    between atoms: C_6  and  C_7
REMARK    6  A    between atoms: N_10  and  C_28
REMARK    7  A    between atoms: C_13  and  N_15
REMARK    8  A    between atoms: N_18  and  C_21
REMARK    9  A    between atoms: C_28  and  C_29
REMARK   10  A    between atoms: C_33  and  C_35
REMARK                            x       y       z     vdW  Elec       q    Type
REMARK                         _______ _______ _______ _____ _____    ______ ____
ROOT
ATOM      1  C   UNL     1       0.726   7.689   4.383  0.00  0.00    -0.010 C 
ATOM      2  C   UNL     1      -0.557   7.093   3.800  0.00  0.00    -0.073 C 
ATOM      3  N   UNL     1      -0.447   5.629   3.766  0.00  0.00    +0.383 N 
ATOM      4  C   UNL     1      -0.288   5.077   5.117  0.00  0.00    -0.077 C 
ATOM      5  C   UNL     1       1.003   5.612   5.740  0.00  0.00    +0.000 C 
ATOM      6  C   UNL     1       0.940   7.141   5.797  0.00  0.00    +0.056 C 
ATOM      7  H   UNL     1       0.456   5.374   3.191  0.00  0.00    -0.081 HD
ENDROOT
BRANCH   6   8
ATOM      8  N   UNL     1       2.201   7.664   6.340  0.00  0.00    -0.296 NA
ATOM      9  C   UNL     1       2.494   7.073   7.653  0.00  0.00    +0.103 C 
ATOM     10  C   UNL     1       3.850   7.582   8.147  0.00  0.00    +0.120 C 
ATOM     11  N   UNL     1       3.820   9.049   8.229  0.00  0.00    -0.325 N 
ATOM     12  C   UNL     1       3.527   9.640   6.915  0.00  0.00    +0.120 C 
ATOM     13  C   UNL     1       2.171   9.131   6.421  0.00  0.00    +0.103 C 
BRANCH  11  14
ATOM     14  C   UNL     1       5.021   9.547   8.745  0.00  0.00    +0.065 A 
ATOM     15  C   UNL     1       5.169  10.908   8.972  0.00  0.00    +0.026 A 
ATOM     16  C   UNL     1       6.354  11.397   9.488  0.00  0.00    +0.002 A 
ATOM     17  C   UNL     1       7.396  10.533   9.769  0.00  0.00    +0.003 A 
ATOM     18  C   UNL     1       7.255   9.177   9.540  0.00  0.00    +0.040 A 
ATOM     19  C   UNL     1       6.071   8.680   9.029  0.00  0.00    +0.144 A 
ATOM     20  F   UNL     1       5.933   7.354   8.806  0.00  0.00    -0.204 F 
ENDBRANCH  11  14
ENDBRANCH   6   8
BRANCH   1  21
ATOM     21  C   UNL     1       1.915   7.304   3.501  0.00  0.00    +0.014 C 
BRANCH  21  22
ATOM     22  C   UNL     1       1.769   7.969   2.131  0.00  0.00    +0.121 C 
BRANCH  22  23
ATOM     23  C   UNL     1       2.941   7.590   1.261  0.00  0.00    +0.307 C 
ATOM     24  O   UNL     1       3.803   6.863   1.693  0.00  0.00    -0.251 OA
BRANCH  23  26
ATOM     25  C   UNL     1       4.181   7.654  -0.773  0.00  0.00    +0.280 C 
ATOM     26  O   UNL     1       3.025   8.060   0.007  0.00  0.00    -0.468 OA
ENDBRANCH  23  26
ENDBRANCH  22  23
ENDBRANCH  21  22
ENDBRANCH   1  21
BRANCH   3  27
ATOM     27  C   UNL     1      -1.603   5.030   3.085  0.00  0.00    -0.043 C 
BRANCH  27  28
ATOM     28  C   UNL     1      -1.343   3.564   2.850  0.00  0.00    -0.063 A 
ATOM     29  C   UNL     1      -1.716   2.635   3.804  0.00  0.00    +0.002 A 
ATOM     30  C   UNL     1      -1.479   1.290   3.589  0.00  0.00    +0.001 A 
ATOM     31  C   UNL     1      -0.869   0.874   2.420  0.00  0.00    +0.012 A 
ATOM     32  C   UNL     1      -0.495   1.803   1.467  0.00  0.00    +0.055 A 
ATOM     33  C   UNL     1      -0.728   3.148   1.685  0.00  0.00    +0.014 A 
BRANCH  32  34
ATOM     34  C   UNL     1       0.170   1.350   0.193  0.00  0.00    +0.417 C 
ATOM     35  F   UNL     1       0.302  -0.043   0.206  0.00  0.00    -0.166 F 
ATOM     36  F   UNL     1       1.436   1.937   0.095  0.00  0.00    -0.166 F 
ATOM     37  F   UNL     1      -0.609   1.735  -0.903  0.00  0.00    -0.166 F 
ENDBRANCH  32  34
ENDBRANCH  27  28
ENDBRANCH   3  27
TORSDOF 9
