REMARK  Name = ZINC01074674
REMARK  11 active torsions:
REMARK  status: ('A' for Active; 'I' for Inactive)
REMARK    1  A    between atoms: C_1  and  C_2
REMARK    2  A    between atoms: C_3  and  C_31
REMARK    3  A    between atoms: C_4  and  C_24
REMARK    4  A    between atoms: C_10  and  C_15
REMARK    5  A    between atoms: C_18  and  N_21
REMARK    6  A    between atoms: N_21  and  C_22
REMARK    7  A    between atoms: N_21  and  C_23
REMARK    8  A    between atoms: C_31  and  O_33
REMARK    9  A    between atoms: O_33  and  C_34
REMARK   10  A    between atoms: C_34  and  C_35
REMARK   11  A    between atoms: C_34  and  C_36
REMARK                            x       y       z     vdW  Elec       q    Type
REMARK                         _______ _______ _______ _____ _____    ______ ____
ROOT
ATOM      1  C   UNL     1      -2.411   5.713   0.886  0.00  0.00    +0.061 C 
ATOM      2  C   UNL     1      -2.533   4.922   2.163  0.00  0.00    +0.016 C 
ATOM      3  C   UNL     1      -1.992   3.694   2.241  0.00  0.00    +0.065 C 
ATOM      4  C   UNL     1      -2.095   2.876   3.495  0.00  0.00    +0.092 C 
ATOM      5  C   UNL     1      -2.460   3.739   4.676  0.00  0.00    +0.024 C 
ATOM      6  C   UNL     1      -2.984   4.970   4.495  0.00  0.00    +0.016 C 
ATOM      7  N   UNL     1      -3.196   5.456   3.233  0.00  0.00    -0.321 N 
ATOM      8  C   UNL     1      -3.346   5.841   5.672  0.00  0.00    +0.059 C 
ATOM      9  C   UNL     1      -3.761   4.963   6.854  0.00  0.00    +0.032 C 
ATOM     10  C   UNL     1      -2.599   4.023   7.192  0.00  0.00    +0.088 C 
ATOM     11  C   UNL     1      -2.242   3.226   5.967  0.00  0.00    +0.162 C 
ATOM     12  O   UNL     1      -1.756   2.120   6.095  0.00  0.00    -0.292 OA
ATOM     13  H   UNL     1      -3.905   6.283   3.083  0.00  0.00    +0.152 HD
ENDROOT
BRANCH   4  14
ATOM     14  C   UNL     1      -3.152   1.818   3.310  0.00  0.00    -0.034 A 
ATOM     15  C   UNL     1      -2.817   0.480   3.413  0.00  0.00    +0.004 A 
ATOM     16  C   UNL     1      -3.786  -0.491   3.244  0.00  0.00    +0.002 A 
ATOM     17  C   UNL     1      -5.091  -0.125   2.971  0.00  0.00    +0.020 A 
ATOM     18  C   UNL     1      -5.427   1.213   2.868  0.00  0.00    +0.041 A 
ATOM     19  C   UNL     1      -4.458   2.184   3.043  0.00  0.00    +0.024 A 
ATOM     20 CL   UNL     1      -7.066   1.673   2.526  0.00  0.00    -0.084 Cl
ENDBRANCH   4  14
BRANCH   9  21
ATOM     21  C   UNL     1      -4.073   5.831   8.046  0.00  0.00    -0.043 A 
ATOM     22  C   UNL     1      -3.095   6.653   8.575  0.00  0.00    +0.006 A 
ATOM     23  C   UNL     1      -3.379   7.454   9.664  0.00  0.00    +0.023 A 
ATOM     24  C   UNL     1      -4.645   7.426  10.233  0.00  0.00    +0.029 A 
ATOM     25  C   UNL     1      -5.624   6.595   9.703  0.00  0.00    +0.023 A 
ATOM     26  C   UNL     1      -5.335   5.800   8.611  0.00  0.00    +0.006 A 
BRANCH  24  27
ATOM     27  N   UNL     1      -4.934   8.231  11.338  0.00  0.00    -0.336 N 
ATOM     28  C   UNL     1      -6.233   8.119  12.006  0.00  0.00    +0.129 C 
ATOM     29  C   UNL     1      -3.939   9.188  11.827  0.00  0.00    +0.129 C 
ENDBRANCH  24  27
ENDBRANCH   9  21
BRANCH   3  30
ATOM     30  C   UNL     1      -1.309   3.164   1.122  0.00  0.00    +0.338 C 
ATOM     31  O   UNL     1      -1.305   3.772   0.068  0.00  0.00    -0.245 OA
BRANCH  30  32
ATOM     32  O   UNL     1      -0.660   1.985   1.223  0.00  0.00    -0.459 OA
BRANCH  32  33
ATOM     33  C   UNL     1       0.009   1.510   0.053  0.00  0.00    +0.171 C 
ATOM     34  C   UNL     1       0.024  -0.020   0.059  0.00  0.00    +0.052 C 
ATOM     35  C   UNL     1       1.446   2.034   0.039  0.00  0.00    +0.052 C 
ENDBRANCH  32  33
ENDBRANCH  30  32
ENDBRANCH   3  30
TORSDOF 6
