REMARK  Name = ZINC10066933
REMARK  9 active torsions:
REMARK  status: ('A' for Active; 'I' for Inactive)
REMARK    1  A    between atoms: C_1  and  C_2
REMARK    2  A    between atoms: C_2  and  N_59
REMARK    3  A    between atoms: C_3  and  C_4
REMARK    4  A    between atoms: C_3  and  N_59
REMARK    5  A    between atoms: C_5  and  C_6
REMARK    6  A    between atoms: C_5  and  N_59
REMARK    7  A    between atoms: C_6  and  N_7
REMARK    8  A    between atoms: C_21  and  C_23
REMARK    9  A    between atoms: C_27  and  N_32
REMARK                            x       y       z     vdW  Elec       q    Type
REMARK                         _______ _______ _______ _____ _____    ______ ____
ROOT
ATOM      1  N   UNL     1       1.111   3.598   0.216  0.00  0.00    -0.248 N 
ATOM      2  C   UNL     1       0.944   2.224   0.252  0.00  0.00    +0.168 A 
ATOM      3  N   UNL     1      -0.168   1.528   0.201  0.00  0.00    -0.224 NA
ATOM      4  C   UNL     1      -0.182   0.177   0.246  0.00  0.00    +0.084 A 
ATOM      5  C   UNL     1      -1.302  -0.684   0.201  0.00  0.00    +0.078 A 
ATOM      6  C   UNL     1      -1.149  -2.051   0.260  0.00  0.00    +0.164 A 
ATOM      7  C   UNL     1       0.118  -2.625   0.363  0.00  0.00    +0.163 A 
ATOM      8  C   UNL     1       1.235  -1.807   0.411  0.00  0.00    +0.066 A 
ATOM      9  C   UNL     1       1.082  -0.444   0.354  0.00  0.00    +0.044 A 
ATOM     10  S   UNL     1       2.187   0.947   0.381  0.00  0.00    -0.052 S 
ATOM     11  O   UNL     1       0.275  -3.976   0.415  0.00  0.00    -0.485 OA
ATOM     12  C   UNL     1      -0.887  -4.747   0.740  0.00  0.00    +0.270 C 
ATOM     13  C   UNL     1      -2.059  -4.222  -0.100  0.00  0.00    +0.270 C 
ATOM     14  O   UNL     1      -2.261  -2.842   0.221  0.00  0.00    -0.485 OA
ATOM     15  C   UNL     1       0.036   4.405   0.115  0.00  0.00    +0.259 C 
ATOM     16  O   UNL     1      -1.075   3.926  -0.012  0.00  0.00    -0.269 OA
ENDROOT
BRANCH  15  17
ATOM     17  C   UNL     1       0.206   5.864   0.158  0.00  0.00    +0.076 A 
ATOM     18  C   UNL     1      -0.752   6.828   0.200  0.00  0.00    +0.029 A 
ATOM     19  C   UNL     1      -0.382   8.184   0.242  0.00  0.00    -0.008 A 
ATOM     20  C   UNL     1      -1.226   9.324   0.293  0.00  0.00    +0.041 A 
ATOM     21  C   UNL     1      -0.701  10.576   0.323  0.00  0.00    +0.127 A 
ATOM     22  C   UNL     1       0.672  10.791   0.305  0.00  0.00    +0.034 A 
ATOM     23  C   UNL     1       1.529   9.711   0.257  0.00  0.00    +0.018 A 
ATOM     24  C   UNL     1       1.011   8.433   0.225  0.00  0.00    +0.020 A 
ATOM     25  S   UNL     1       1.720   6.808   0.161  0.00  0.00    -0.084 S 
BRANCH  21  26
ATOM     26  N   UNL     1      -1.614  11.740   0.375  0.00  0.00    +0.056 N 
ATOM     27  O   UNL     1      -2.820  11.568   0.391  0.00  0.00    -0.126 OA
ATOM     28  O   UNL     1      -1.159  12.870   0.402  0.00  0.00    -0.126 OA
ENDBRANCH  21  26
ENDBRANCH  15  17
BRANCH   1  29
ATOM     29  C   UNL     1       2.455   4.175   0.288  0.00  0.00    +0.097 C 
BRANCH  29  30
ATOM     30  C   UNL     1       2.954   4.484  -1.125  0.00  0.00    -0.059 C 
BRANCH  30  31
ATOM     31  N   UNL     1       4.249   5.189  -1.027  0.00  0.00    +0.380 N 
ATOM     32  H   UNL     1       4.189   5.894  -0.283  0.00  0.00    -0.082 HD
BRANCH  31  34
ATOM     33  C   UNL     1       6.601   5.010  -0.380  0.00  0.00    -0.017 C 
ATOM     34  C   UNL     1       5.323   4.230  -0.694  0.00  0.00    -0.082 C 
ENDBRANCH  31  34
BRANCH  31  35
ATOM     35  C   UNL     1       4.554   5.865  -2.306  0.00  0.00    -0.082 C 
ATOM     36  C   UNL     1       3.707   7.136  -2.403  0.00  0.00    -0.017 C 
ENDBRANCH  31  35
ENDBRANCH  30  31
ENDBRANCH  29  30
ENDBRANCH   1  29
TORSDOF 7
