REMARK  Name = ZINC14478238
REMARK  5 active torsions:
REMARK  status: ('A' for Active; 'I' for Inactive)
REMARK    1  A    between atoms: C_4  and  N_31
REMARK    2  A    between atoms: C_5  and  C_7
REMARK    3  A    between atoms: C_18  and  O_23
REMARK    4  A    between atoms: O_23  and  C_24
REMARK    5  A    between atoms: C_24  and  C_25
REMARK                            x       y       z     vdW  Elec       q    Type
REMARK                         _______ _______ _______ _____ _____    ______ ____
ROOT
ATOM      1  C   UNL     1      -3.131  -5.929  -5.527  0.00  0.00    +0.107 C 
ATOM      2  C   UNL     1      -3.244  -6.768  -4.269  0.00  0.00    +0.029 C 
ATOM      3  C   UNL     1      -4.624  -6.577  -3.595  0.00  0.00    +0.033 C 
ATOM      4  C   UNL     1      -4.327  -6.851  -2.132  0.00  0.00    -0.030 C 
ATOM      5  C   UNL     1      -3.052  -6.682  -1.883  0.00  0.00    -0.023 C 
ATOM      6  C   UNL     1      -2.315  -6.265  -3.149  0.00  0.00    +0.049 C 
ATOM      7  C   UNL     1      -2.200  -4.765  -3.130  0.00  0.00    -0.016 A 
ATOM      8  C   UNL     1      -1.522  -4.177  -2.069  0.00  0.00    +0.051 A 
ATOM      9  C   UNL     1      -1.397  -2.801  -1.994  0.00  0.00    +0.121 A 
ATOM     10  C   UNL     1      -1.936  -1.996  -2.987  0.00  0.00    +0.047 A 
ATOM     11  C   UNL     1      -2.603  -2.575  -4.049  0.00  0.00    +0.027 A 
ATOM     12  C   UNL     1      -2.732  -3.957  -4.118  0.00  0.00    +0.032 A 
ATOM     13  N   UNL     1      -3.409  -4.525  -5.208  0.00  0.00    -0.336 N 
ATOM     14  H   UNL     1      -4.039  -4.006  -5.732  0.00  0.00    +0.147 HD
ENDROOT
BRANCH   1  19
ATOM     15  C   UNL     1       0.453  -5.139  -6.412  0.00  0.00    +0.000 A 
ATOM     16  C   UNL     1       0.820  -6.272  -7.116  0.00  0.00    +0.002 A 
ATOM     17  C   UNL     1      -0.092  -7.293  -7.306  0.00  0.00    +0.033 A 
ATOM     18  C   UNL     1      -1.371  -7.182  -6.792  0.00  0.00    +0.131 A 
ATOM     19  C   UNL     1      -1.737  -6.050  -6.088  0.00  0.00    +0.003 A 
ATOM     20  C   UNL     1      -0.827  -5.027  -5.902  0.00  0.00    +0.008 A 
BRANCH  18  21
ATOM     21  N   UNL     1      -2.348  -8.275  -6.995  0.00  0.00    +0.057 N 
ATOM     22  O   UNL     1      -1.997  -9.315  -7.524  0.00  0.00    -0.126 OA
ATOM     23  O   UNL     1      -3.503  -8.135  -6.634  0.00  0.00    -0.126 OA
ENDBRANCH  18  21
ENDBRANCH   1  19
BRANCH   9  24
ATOM     24  O   UNL     1      -0.738  -2.236  -0.947  0.00  0.00    -0.489 OA
BRANCH  24  25
ATOM     25  C   UNL     1      -0.639  -0.810  -0.935  0.00  0.00    +0.260 C 
BRANCH  25  26
ATOM     26  C   UNL     1       0.130  -0.362   0.309  0.00  0.00    +0.156 C 
ATOM     27  C   UNL     1       0.133   1.176   0.397  0.00  0.00    +0.037 C 
ATOM     28  C   UNL     1       1.635   1.553   0.398  0.00  0.00    +0.031 C 
ATOM     29  C   UNL     1       2.301   0.230   0.854  0.00  0.00    +0.160 C 
ATOM     30  O   UNL     1       1.499  -0.788   0.217  0.00  0.00    -0.373 OA
ENDBRANCH  25  26
ENDBRANCH  24  25
ENDBRANCH   9  24
TORSDOF 5
