REMARK  Name = ZINC14995759
REMARK  3 active torsions:
REMARK  status: ('A' for Active; 'I' for Inactive)
REMARK    1  A    between atoms: C_10  and  C_11
REMARK    2  A    between atoms: C_11  and  N_12
REMARK    3  A    between atoms: N_12  and  C_13
REMARK                            x       y       z     vdW  Elec       q    Type
REMARK                         _______ _______ _______ _____ _____    ______ ____
ROOT
ATOM      1  C   UNL     1       5.046  -0.669   2.166  0.00  0.00    +0.015 A 
ATOM      2  C   UNL     1       3.689  -0.485   1.835  0.00  0.00    +0.004 A 
ATOM      3  C   UNL     1       3.204   0.768   1.427  0.00  0.00    +0.059 A 
ATOM      4  C   UNL     1       1.884   0.916   1.114  0.00  0.00    +0.167 A 
ATOM      5  C   UNL     1       1.003  -0.175   1.196  0.00  0.00    +0.168 A 
ATOM      6  C   UNL     1       1.450  -1.404   1.589  0.00  0.00    +0.078 A 
ATOM      7  C   UNL     1       2.803  -1.587   1.918  0.00  0.00    +0.077 A 
ATOM      8  N   UNL     1       3.260  -2.783   2.308  0.00  0.00    -0.232 NA
ATOM      9  C   UNL     1       4.528  -2.961   2.619  0.00  0.00    +0.123 A 
ATOM     10  C   UNL     1       5.453  -1.910   2.556  0.00  0.00    -0.024 A 
ATOM     11  N   UNL     1       4.957  -4.219   3.018  0.00  0.00    -0.315 N 
ATOM     12  C   UNL     1       4.636  -4.462   4.448  0.00  0.00    +0.106 C 
ATOM     13  C   UNL     1       4.683  -6.006   4.565  0.00  0.00    +0.020 C 
ATOM     14  C   UNL     1       4.077  -6.473   3.221  0.00  0.00    +0.020 C 
ATOM     15  C   UNL     1       4.260  -5.282   2.262  0.00  0.00    +0.106 C 
ATOM     16  O   UNL     1      -0.243   0.249   0.831  0.00  0.00    -0.453 OA
ATOM     17  C   UNL     1      -0.205   1.685   0.926  0.00  0.00    +0.466 C 
ATOM     18  O   UNL     1       1.178   2.010   0.699  0.00  0.00    -0.453 OA
ENDROOT
BRANCH  10  19
ATOM     19  C   UNL     1       6.895  -2.152   2.919  0.00  0.00    -0.043 C 
BRANCH  19  20
ATOM     20  N   UNL     1       7.574  -2.829   1.806  0.00  0.00    +0.384 N 
ATOM     21  H   UNL     1       7.080  -3.791   1.607  0.00  0.00    -0.085 HD
ATOM     22  H   UNL     1       7.523  -2.197   0.907  0.00  0.00    -0.085 HD
BRANCH  20  23
ATOM     23  C   UNL     1       8.985  -3.081   2.125  0.00  0.00    -0.071 C 
ATOM     24  C   UNL     1       9.803  -1.810   1.815  0.00  0.00    -0.016 C 
ATOM     25  C   UNL     1      11.091  -1.870   2.590  0.00  0.00    -0.002 C 
ATOM     26  C   UNL     1      12.247  -2.467   1.764  0.00  0.00    -0.000 C 
ATOM     27  C   UNL     1      11.816  -3.687   0.928  0.00  0.00    -0.000 C 
ATOM     28  C   UNL     1      10.902  -4.611   1.686  0.00  0.00    -0.002 C 
ATOM     29  C   UNL     1       9.443  -4.233   1.362  0.00  0.00    -0.016 C 
ENDBRANCH  20  23
ENDBRANCH  19  20
ENDBRANCH  10  19
TORSDOF 3
