REMARK  Name = ZINC36666955
REMARK  3 active torsions:
REMARK  status: ('A' for Active; 'I' for Inactive)
REMARK    1  A    between atoms: C_2  and  N_13
REMARK    2  A    between atoms: C_5  and  S_8
REMARK    3  A    between atoms: S_8  and  N_11
REMARK                            x       y       z     vdW  Elec       q    Type
REMARK                         _______ _______ _______ _____ _____    ______ ____
ROOT
ATOM      1  C   UNL     1      -0.017   1.379   0.010  0.00  0.00    +0.054 A 
ATOM      2  C   UNL     1       1.171   2.087   0.002  0.00  0.00    +0.129 A 
ATOM      3  C   UNL     1       2.377   1.413  -0.013  0.00  0.00    +0.054 A 
ATOM      4  C   UNL     1       2.397   0.030  -0.022  0.00  0.00    +0.071 A 
ATOM      5  C   UNL     1       1.209  -0.679  -0.014  0.00  0.00    +0.142 A 
ATOM      6  C   UNL     1       0.002  -0.004   0.002  0.00  0.00    +0.071 A 
ATOM      7 CL   UNL     1      -1.489  -0.893   0.012  0.00  0.00    -0.081 Cl
ATOM      8 CL   UNL     1       3.913  -0.817  -0.042  0.00  0.00    -0.081 Cl
ENDROOT
BRANCH   5   9
ATOM      9  S   UNL     1       1.234  -2.441  -0.025  0.00  0.00    +0.059 S 
ATOM     10  O   UNL     1      -0.011  -2.861  -0.565  0.00  0.00    -0.153 OA
ATOM     11  O   UNL     1       2.479  -2.826  -0.591  0.00  0.00    -0.153 OA
BRANCH   9  12
ATOM     12  N   UNL     1       1.257  -2.940   1.554  0.00  0.00    -0.203 NA
ATOM     13  H   UNL     1       0.852  -3.786   1.802  0.00  0.00    +0.144 HD
ATOM     14  H   UNL     1       1.677  -2.387   2.232  0.00  0.00    +0.144 HD
ENDBRANCH   9  12
ENDBRANCH   5   9
BRANCH   2  15
ATOM     15  N   UNL     1       1.150   3.567   0.010  0.00  0.00    +0.057 N 
ATOM     16  O   UNL     1       0.095   4.157   0.024  0.00  0.00    -0.126 OA
ATOM     17  O   UNL     1       2.188   4.186   0.004  0.00  0.00    -0.126 OA
ENDBRANCH   2  15
TORSDOF 3
