REMARK  Name = ZINC20687746
REMARK  9 active torsions:
REMARK  status: ('A' for Active; 'I' for Inactive)
REMARK    1  A    between atoms: C_1  and  C_2
REMARK    2  A    between atoms: C_2  and  C_4
REMARK    3  A    between atoms: C_2  and  N_20
REMARK    4  A    between atoms: N_9  and  C_10
REMARK    5  A    between atoms: N_20  and  C_21
REMARK    6  A    between atoms: N_20  and  C_22
REMARK    7  A    between atoms: C_22  and  C_23
REMARK    8  A    between atoms: C_26  and  O_29
REMARK    9  A    between atoms: O_29  and  C_30
REMARK                            x       y       z     vdW  Elec       q    Type
REMARK                         _______ _______ _______ _____ _____    ______ ____
ROOT
ATOM      1  C   UNL     1      -7.192   1.201   2.099  0.00  0.00    +0.207 C 
ATOM      2  O   UNL     1      -6.796   1.898   3.008  0.00  0.00    -0.277 OA
ATOM      3  N   UNL     1      -6.368   0.892   1.079  0.00  0.00    -0.242 N 
ATOM      4  C   UNL     1      -5.103   1.358   1.069  0.00  0.00    +0.306 C 
ATOM      5  O   UNL     1      -4.707   2.057   1.980  0.00  0.00    -0.252 OA
ATOM      6  N   UNL     1      -4.279   1.049   0.049  0.00  0.00    -0.294 N 
ATOM      7  H   UNL     1      -6.727   0.259   0.254  0.00  0.00    +0.159 HD
ATOM      8  H   UNL     1      -4.638   0.417  -0.776  0.00  0.00    +0.151 HD
ENDROOT
BRANCH   6   9
ATOM      9  C   UNL     1      -2.904   1.556   0.038  0.00  0.00    +0.037 C 
ATOM     10  C   UNL     1      -2.188   1.063  -1.221  0.00  0.00    +0.029 C 
ATOM     11  C   UNL     1      -0.753   1.593  -1.232  0.00  0.00    -0.008 C 
ATOM     12  C   UNL     1      -0.013   1.086   0.008  0.00  0.00    +0.007 C 
ATOM     13  C   UNL     1      -0.729   1.579   1.267  0.00  0.00    -0.008 C 
ATOM     14  C   UNL     1      -2.164   1.050   1.278  0.00  0.00    +0.029 C 
ATOM     15  C   UNL     1      -0.750   3.109   1.275  0.00  0.00    +0.007 C 
ATOM     16  C   UNL     1      -1.490   3.616   0.036  0.00  0.00    -0.008 C 
ATOM     17  C   UNL     1      -0.773   3.123  -1.223  0.00  0.00    +0.007 C 
ATOM     18  C   UNL     1      -2.925   3.086   0.047  0.00  0.00    +0.029 C 
ENDBRANCH   6   9
BRANCH   1  20
ATOM     19  C   UNL     1      -8.585  -0.851   2.101  0.00  0.00    -0.004 C 
ATOM     20  C   UNL     1      -8.606   0.679   2.110  0.00  0.00    +0.017 C 
BRANCH  20  21
ATOM     21  N   UNL     1      -9.293   1.153   3.318  0.00  0.00    +0.388 N 
ATOM     22  C   UNL     1      -8.624   0.664   4.531  0.00  0.00    -0.095 C 
ATOM     23  H   UNL     1      -9.246   2.252   3.326  0.00  0.00    -0.081 HD
BRANCH  21  24
ATOM     24  C   UNL     1     -10.710   0.763   3.305  0.00  0.00    -0.042 C 
BRANCH  24  25
ATOM     25  C   UNL     1     -11.435   1.466   4.424  0.00  0.00    -0.064 A 
ATOM     26  C   UNL     1     -11.526   0.871   5.668  0.00  0.00    +0.005 A 
ATOM     27  C   UNL     1     -12.185   1.516   6.697  0.00  0.00    +0.046 A 
ATOM     28  C   UNL     1     -12.765   2.757   6.477  0.00  0.00    +0.127 A 
ATOM     29  C   UNL     1     -12.677   3.349   5.226  0.00  0.00    +0.046 A 
ATOM     30  C   UNL     1     -12.012   2.703   4.202  0.00  0.00    +0.005 A 
BRANCH  28  31
ATOM     31  O   UNL     1     -13.419   3.391   7.486  0.00  0.00    -0.434 OA
BRANCH  31  32
ATOM     32  C   UNL     1     -13.470   2.722   8.747  0.00  0.00    +0.541 C 
ATOM     33  F   UNL     1     -14.117   1.491   8.596  0.00  0.00    -0.166 F 
ATOM     34  F   UNL     1     -12.169   2.511   9.216  0.00  0.00    -0.166 F 
ENDBRANCH  31  32
ENDBRANCH  28  31
ENDBRANCH  24  25
ENDBRANCH  21  24
ENDBRANCH  20  21
ENDBRANCH   1  20
TORSDOF 7
