REMARK  Name = ZINC38971456
REMARK  10 active torsions:
REMARK  status: ('A' for Active; 'I' for Inactive)
REMARK    1  A    between atoms: C_1  and  C_2
REMARK    2  A    between atoms: C_2  and  C_3
REMARK    3  A    between atoms: C_3  and  C_4
REMARK    4  A    between atoms: C_4  and  C_5
REMARK    5  A    between atoms: C_8  and  N_11
REMARK    6  A    between atoms: N_11  and  C_12
REMARK    7  A    between atoms: N_15  and  S_16
REMARK    8  A    between atoms: S_16  and  C_19
REMARK    9  A    between atoms: C_22  and  C_26
REMARK   10  A    between atoms: C_23  and  C_25
REMARK                            x       y       z     vdW  Elec       q    Type
REMARK                         _______ _______ _______ _____ _____    ______ ____
ROOT
ATOM      1  C   UNL     1       2.787  -4.082   7.094  0.00  0.00    +0.237 C 
ATOM      2  C   UNL     1       3.204  -5.405   7.694  0.00  0.00    +0.192 C 
ATOM      3  N   UNL     1       3.035  -6.512   7.033  0.00  0.00    -0.110 NA
ATOM      4  N   UNL     1       3.752  -5.421   8.920  0.00  0.00    -0.226 NA
ATOM      5  C   UNL     1       3.933  -4.314   9.609  0.00  0.00    +0.089 A 
ATOM      6  C   UNL     1       4.515  -4.368  10.902  0.00  0.00    +0.030 A 
ATOM      7  C   UNL     1       4.703  -3.235  11.613  0.00  0.00    +0.002 A 
ATOM      8  C   UNL     1       4.344  -1.966  11.130  0.00  0.00    +0.002 A 
ATOM      9  C   UNL     1       3.783  -1.802   9.912  0.00  0.00    +0.027 A 
ATOM     10  C   UNL     1       3.544  -2.986   9.074  0.00  0.00    +0.063 A 
ATOM     11  N   UNL     1       3.006  -2.866   7.893  0.00  0.00    -0.359 N 
ATOM     12  H   UNL     1       2.755  -1.995   7.549  0.00  0.00    +0.162 HD
ENDROOT
BRANCH   3  13
ATOM     13  S   UNL     1       3.497  -7.955   7.702  0.00  0.00    +0.100 S 
ATOM     14  O   UNL     1       4.912  -7.917   7.815  0.00  0.00    -0.146 OA
ATOM     15  O   UNL     1       2.649  -8.173   8.822  0.00  0.00    -0.146 OA
BRANCH  13  16
ATOM     16  C   UNL     1       3.119  -9.217   6.532  0.00  0.00    +0.113 A 
ATOM     17  C   UNL     1       1.880  -9.831   6.553  0.00  0.00    +0.029 A 
ATOM     18  C   UNL     1       1.584 -10.821   5.635  0.00  0.00    +0.005 A 
ATOM     19  C   UNL     1       2.526 -11.196   4.695  0.00  0.00    -0.047 A 
ATOM     20  C   UNL     1       3.764 -10.582   4.673  0.00  0.00    -0.046 A 
ATOM     21  C   UNL     1       4.059  -9.589   5.589  0.00  0.00    +0.032 A 
ATOM     22  C   UNL     1       4.790 -10.991   3.649  0.00  0.00    +0.044 C 
ATOM     23  C   UNL     1       2.203 -12.276   3.694  0.00  0.00    +0.044 C 
ENDBRANCH  13  16
ENDBRANCH   3  13
BRANCH   1  24
ATOM     24  N   UNL     1       3.505  -3.920   5.827  0.00  0.00    -0.318 N 
ATOM     25  H   UNL     1       4.468  -4.033   5.798  0.00  0.00    +0.148 HD
BRANCH  24  29
ATOM     26  C   UNL     1       1.413  -2.970   2.354  0.00  0.00    -0.047 A 
ATOM     27  C   UNL     1       0.766  -2.955   3.576  0.00  0.00    +0.005 A 
ATOM     28  C   UNL     1       1.457  -3.269   4.730  0.00  0.00    +0.023 A 
ATOM     29  C   UNL     1       2.804  -3.602   4.662  0.00  0.00    +0.029 A 
ATOM     30  C   UNL     1       3.451  -3.616   3.433  0.00  0.00    +0.023 A 
ATOM     31  C   UNL     1       2.753  -3.306   2.283  0.00  0.00    +0.005 A 
BRANCH  26  32
ATOM     32  C   UNL     1       0.656  -2.627   1.098  0.00  0.00    +0.035 C 
BRANCH  32  33
ATOM     33  C   UNL     1       0.043  -3.898   0.508  0.00  0.00    +0.004 C 
BRANCH  33  35
ATOM     34  C   UNL     1      -1.339  -4.821  -1.358  0.00  0.00    +0.004 C 
ATOM     35  C   UNL     1      -0.726  -3.549  -0.768  0.00  0.00    -0.003 C 
ENDBRANCH  33  35
ENDBRANCH  32  33
ENDBRANCH  26  32
ENDBRANCH  24  29
ENDBRANCH   1  24
TORSDOF 7
