REMARK  Name = ZINC11862294
REMARK  6 active torsions:
REMARK  status: ('A' for Active; 'I' for Inactive)
REMARK    1  A    between atoms: C_9  and  O_14
REMARK    2  A    between atoms: C_10  and  C_11
REMARK    3  A    between atoms: C_11  and  N_13
REMARK    4  A    between atoms: O_14  and  C_15
REMARK    5  A    between atoms: C_15  and  C_16
REMARK    6  A    between atoms: C_19  and  N_22
REMARK                            x       y       z     vdW  Elec       q    Type
REMARK                         _______ _______ _______ _____ _____    ______ ____
ROOT
ATOM      1  C   UNL     1      -5.101   4.976   0.205  0.00  0.00    +0.001 A 
ATOM      2  C   UNL     1      -5.017   3.586   0.200  0.00  0.00    +0.001 A 
ATOM      3  C   UNL     1      -3.808   2.958   0.142  0.00  0.00    +0.009 A 
ATOM      4  C   UNL     1      -2.635   3.719   0.086  0.00  0.00    -0.005 A 
ATOM      5  C   UNL     1      -2.716   5.132   0.090  0.00  0.00    -0.017 A 
ATOM      6  C   UNL     1      -3.979   5.746   0.151  0.00  0.00    +0.008 A 
ATOM      7  C   UNL     1      -1.536   5.895   0.034  0.00  0.00    +0.012 A 
ATOM      8  C   UNL     1      -0.320   5.293  -0.024  0.00  0.00    +0.047 A 
ATOM      9  C   UNL     1      -0.187   3.904  -0.026  0.00  0.00    +0.131 A 
ATOM     10  C   UNL     1      -1.318   3.086   0.023  0.00  0.00    +0.052 A 
ENDROOT
BRANCH  10  11
ATOM     11  C   UNL     1      -1.187   1.624   0.017  0.00  0.00    +0.081 C 
ATOM     12  S   UNL     1      -1.063   0.782  -1.469  0.00  0.00    -0.035 S 
BRANCH  11  13
ATOM     13  N   UNL     1      -1.165   0.944   1.180  0.00  0.00    -0.352 N 
ATOM     14  H   UNL     1      -1.153  -0.026   1.175  0.00  0.00    +0.143 HD
ATOM     15  H   UNL     1      -1.157   1.425   2.023  0.00  0.00    +0.143 HD
ENDBRANCH  11  13
ENDBRANCH  10  11
BRANCH   9  16
ATOM     16  O   UNL     1       1.047   3.345  -0.080  0.00  0.00    -0.487 OA
BRANCH  16  17
ATOM     17  C   UNL     1       2.162   4.238  -0.128  0.00  0.00    +0.264 C 
BRANCH  17  18
ATOM     18  C   UNL     1       3.440   3.442  -0.184  0.00  0.00    -0.010 A 
ATOM     19  C   UNL     1       4.082   3.081   0.986  0.00  0.00    +0.009 A 
ATOM     20  C   UNL     1       5.252   2.347   0.935  0.00  0.00    +0.033 A 
ATOM     21  C   UNL     1       5.786   1.982  -0.287  0.00  0.00    +0.126 A 
ATOM     22  C   UNL     1       5.147   2.347  -1.457  0.00  0.00    +0.033 A 
ATOM     23  C   UNL     1       3.975   3.078  -1.406  0.00  0.00    +0.009 A 
BRANCH  21  24
ATOM     24  N   UNL     1       7.042   1.201  -0.342  0.00  0.00    +0.056 N 
ATOM     25  O   UNL     1       7.512   0.879  -1.419  0.00  0.00    -0.126 OA
ATOM     26  O   UNL     1       7.605   0.879   0.689  0.00  0.00    -0.126 OA
ENDBRANCH  21  24
ENDBRANCH  17  18
ENDBRANCH  16  17
ENDBRANCH   9  16
TORSDOF 6
