REMARK  Name = ZINC64353878
REMARK  8 active torsions:
REMARK  status: ('A' for Active; 'I' for Inactive)
REMARK    1  A    between atoms: C_1  and  C_2
REMARK    2  A    between atoms: C_4  and  C_9
REMARK    3  A    between atoms: C_5  and  C_8
REMARK    4  A    between atoms: C_9  and  C_10
REMARK    5  A    between atoms: N_12  and  C_13
REMARK    6  A    between atoms: C_13  and  C_15
REMARK    7  A    between atoms: C_13  and  C_21
REMARK    8  A    between atoms: C_28  and  C_31
REMARK                            x       y       z     vdW  Elec       q    Type
REMARK                         _______ _______ _______ _____ _____    ______ ____
ROOT
ATOM      1  C   UNL     1      -2.153  -2.263  -4.753  0.00  0.00    +0.134 C 
ENDROOT
BRANCH   1   2
ATOM      2  C   UNL     1      -2.977  -1.708  -5.886  0.00  0.00    -0.021 A 
ATOM      3  C   UNL     1      -2.362  -0.964  -6.883  0.00  0.00    +0.008 A 
ATOM      4  C   UNL     1      -3.100  -0.449  -7.927  0.00  0.00    +0.028 A 
ATOM      5  C   UNL     1      -4.468  -0.678  -7.981  0.00  0.00    +0.066 A 
ATOM      6  C   UNL     1      -5.091  -1.432  -6.972  0.00  0.00    +0.090 A 
ATOM      7  C   UNL     1      -4.321  -1.948  -5.925  0.00  0.00    +0.035 A 
ATOM      8  N   UNL     1      -6.412  -1.492  -7.280  0.00  0.00    -0.224 NA
ATOM      9  C   UNL     1      -6.633  -0.840  -8.384  0.00  0.00    +0.213 A 
ATOM     10  N   UNL     1      -5.470  -0.318  -8.860  0.00  0.00    -0.335 N 
ATOM     11  H   UNL     1      -5.364   0.210  -9.667  0.00  0.00    +0.167 HD
BRANCH   9  12
ATOM     12  C   UNL     1      -7.980  -0.687  -9.041  0.00  0.00    +0.450 C 
ATOM     13  F   UNL     1      -8.984  -1.041  -8.134  0.00  0.00    -0.163 F 
ATOM     14  F   UNL     1      -8.157   0.644  -9.437  0.00  0.00    -0.163 F 
ATOM     15  F   UNL     1      -8.050  -1.520 -10.163  0.00  0.00    -0.163 F 
ENDBRANCH   9  12
ENDBRANCH   1   2
BRANCH   1  16
ATOM     16  C   UNL     1      -1.446  -3.512  -5.210  0.00  0.00    -0.023 A 
ATOM     17  C   UNL     1      -0.285  -3.417  -5.955  0.00  0.00    +0.006 A 
ATOM     18  C   UNL     1       0.363  -4.563  -6.375  0.00  0.00    +0.000 A 
ATOM     19  C   UNL     1      -0.149  -5.805  -6.049  0.00  0.00    +0.000 A 
ATOM     20  C   UNL     1      -1.309  -5.901  -5.304  0.00  0.00    +0.000 A 
ATOM     21  C   UNL     1      -1.955  -4.755  -4.881  0.00  0.00    +0.006 A 
ENDBRANCH   1  16
BRANCH   1  24
ATOM     22  C   UNL     1      -0.669  -1.291  -3.082  0.00  0.00    +0.218 C 
ATOM     23  O   UNL     1      -1.044  -2.137  -2.299  0.00  0.00    -0.275 OA
ATOM     24  N   UNL     1      -1.163  -1.266  -4.336  0.00  0.00    -0.304 N 
ATOM     25  H   UNL     1      -0.863  -0.589  -4.963  0.00  0.00    +0.150 HD
BRANCH  22  26
ATOM     26  C   UNL     1       0.349  -0.266  -2.654  0.00  0.00    +0.131 C 
BRANCH  26  29
ATOM     27  C   UNL     1      -0.019   1.526   0.010  0.00  0.00    +0.045 C 
ATOM     28  C   UNL     1       0.002  -0.004   0.002  0.00  0.00    +0.174 C 
ATOM     29  C   UNL     1       0.735  -0.512  -1.218  0.00  0.00    -0.010 C 
ATOM     30  C   UNL     1       1.772  -1.208  -0.801  0.00  0.00    +0.038 C 
ATOM     31  N   UNL     1       1.832  -1.235   0.581  0.00  0.00    -0.270 N 
ATOM     32  O   UNL     1       0.748  -0.498   1.124  0.00  0.00    -0.267 OA
ATOM     33  C   UNL     1       2.763  -1.888  -1.710  0.00  0.00    +0.065 C 
ATOM     34  H   UNL     1       2.513  -1.690   1.100  0.00  0.00    +0.194 HD
ENDBRANCH  26  29
ENDBRANCH  22  26
ENDBRANCH   1  24
TORSDOF 6
