REMARK  Name = ZINC48743417
REMARK  10 active torsions:
REMARK  status: ('A' for Active; 'I' for Inactive)
REMARK    1  A    between atoms: C_1  and  N_2
REMARK    2  A    between atoms: N_2  and  C_3
REMARK    3  A    between atoms: N_2  and  C_4
REMARK    4  A    between atoms: C_4  and  C_6
REMARK    5  A    between atoms: C_4  and  C_23
REMARK    6  A    between atoms: C_6  and  N_7
REMARK    7  A    between atoms: C_8  and  C_10
REMARK    8  A    between atoms: N_12  and  C_13
REMARK    9  A    between atoms: C_18  and  C_19
REMARK   10  A    between atoms: C_19  and  C_20
REMARK                            x       y       z     vdW  Elec       q    Type
REMARK                         _______ _______ _______ _____ _____    ______ ____
ROOT
ATOM      1  C   UNL     1      -1.956   3.721  -2.276  0.00  0.00    +0.303 C 
ATOM      2  O   UNL     1      -1.253   4.244  -1.437  0.00  0.00    -0.265 OA
ATOM      3  N   UNL     1      -2.470   4.459  -3.279  0.00  0.00    -0.277 N 
ATOM      4  H   UNL     1      -3.084   4.056  -3.913  0.00  0.00    +0.155 HD
ENDROOT
BRANCH   3   5
ATOM      5  C   UNL     1      -2.120   5.806  -3.406  0.00  0.00    +0.037 A 
ATOM      6  C   UNL     1      -1.725   6.531  -2.288  0.00  0.00    +0.023 A 
ATOM      7  C   UNL     1      -1.380   7.862  -2.417  0.00  0.00    +0.002 A 
ATOM      8  C   UNL     1      -1.427   8.473  -3.657  0.00  0.00    +0.000 A 
ATOM      9  C   UNL     1      -1.820   7.755  -4.771  0.00  0.00    +0.006 A 
ATOM     10  C   UNL     1      -2.161   6.422  -4.651  0.00  0.00    -0.017 A 
BRANCH  10  11
ATOM     11  C   UNL     1      -2.582   5.638  -5.867  0.00  0.00    +0.132 C 
BRANCH  11  12
ATOM     12  C   UNL     1      -4.085   5.647  -5.974  0.00  0.00    +0.215 C 
ATOM     13  O   UNL     1      -4.749   6.232  -5.145  0.00  0.00    -0.276 OA
ATOM     14  N   UNL     1      -4.692   5.005  -6.992  0.00  0.00    -0.329 N 
ATOM     15  H   UNL     1      -4.161   4.537  -7.655  0.00  0.00    +0.145 HD
ATOM     16  H   UNL     1      -5.659   5.011  -7.061  0.00  0.00    +0.145 HD
ENDBRANCH  11  12
ENDBRANCH  10  11
ENDBRANCH   3   5
BRANCH   1  18
ATOM     17  N   UNL     1      -1.736   1.520  -1.195  0.00  0.00    -0.309 N 
ATOM     18  C   UNL     1      -2.251   2.259  -2.198  0.00  0.00    +0.299 C 
ATOM     19  O   UNL     1      -2.954   1.736  -3.038  0.00  0.00    -0.265 OA
ATOM     20  H   UNL     1      -1.174   1.938  -0.524  0.00  0.00    +0.149 HD
BRANCH  17  21
ATOM     21  C   UNL     1      -2.026   0.086  -1.119  0.00  0.00    +0.094 C 
BRANCH  21  22
ATOM     22  C   UNL     1      -1.229  -0.534   0.030  0.00  0.00    -0.014 C 
BRANCH  22  23
ATOM     23  C   UNL     1      -1.710   0.034   1.340  0.00  0.00    -0.022 A 
ATOM     24  C   UNL     1      -1.165   1.019   2.095  0.00  0.00    +0.009 A 
ATOM     25  C   UNL     1      -1.788   1.381   3.275  0.00  0.00    +0.008 A 
ATOM     26  C   UNL     1      -2.925   0.741   3.642  0.00  0.00    +0.045 A 
ATOM     27  S   UNL     1      -3.151  -0.410   2.296  0.00  0.00    -0.103 S 
ENDBRANCH  22  23
BRANCH  22  29
ATOM     28  C   UNL     1      -0.853  -2.558  -1.202  0.00  0.00    -0.096 C 
ATOM     29  N   UNL     1      -1.420  -1.991   0.029  0.00  0.00    +0.382 N 
ATOM     30  C   UNL     1      -0.742  -2.575   1.194  0.00  0.00    -0.096 C 
ATOM     31  H   UNL     1      -2.406  -2.201   0.073  0.00  0.00    -0.082 HD
ENDBRANCH  22  29
ENDBRANCH  21  22
ENDBRANCH  17  21
ENDBRANCH   1  18
TORSDOF 8
