REMARK  Name = ZINC63623091
REMARK  10 active torsions:
REMARK  status: ('A' for Active; 'I' for Inactive)
REMARK    1  A    between atoms: C_1  and  C_2
REMARK    2  A    between atoms: C_4  and  C_22
REMARK    3  A    between atoms: N_12  and  C_13
REMARK    4  A    between atoms: C_13  and  C_14
REMARK    5  A    between atoms: C_19  and  C_20
REMARK    6  A    between atoms: C_23  and  C_24
REMARK    7  A    between atoms: C_23  and  C_26
REMARK    8  A    between atoms: N_28  and  C_29
REMARK    9  A    between atoms: C_29  and  C_30
REMARK   10  A    between atoms: C_30  and  C_31
REMARK                            x       y       z     vdW  Elec       q    Type
REMARK                         _______ _______ _______ _____ _____    ______ ____
ROOT
ATOM      1  C   UNL     1       2.083   0.162  -1.916  0.00  0.00    +0.007 C 
ATOM      2  C   UNL     1       1.898   0.232  -3.248  0.00  0.00    +0.110 C 
ENDROOT
BRANCH   1   5
ATOM      3  C   UNL     1       0.616   1.349  -0.136  0.00  0.00    +0.029 C 
ATOM      4  C   UNL     1       0.459  -0.171  -0.044  0.00  0.00    +0.082 C 
ATOM      5  C   UNL     1       1.332  -0.862  -1.104  0.00  0.00    +0.065 C 
ATOM      6  C   UNL     1       2.293  -1.715  -0.306  0.00  0.00    -0.018 A 
ATOM      7  C   UNL     1       3.308  -2.558  -0.714  0.00  0.00    +0.006 A 
ATOM      8  C   UNL     1       4.061  -3.242   0.223  0.00  0.00    +0.000 A 
ATOM      9  C   UNL     1       3.795  -3.079   1.570  0.00  0.00    +0.002 A 
ATOM     10  C   UNL     1       2.783  -2.239   1.982  0.00  0.00    +0.023 A 
ATOM     11  C   UNL     1       2.018  -1.545   1.042  0.00  0.00    +0.034 A 
ATOM     12  N   UNL     1       0.958  -0.657   1.245  0.00  0.00    -0.322 N 
BRANCH  12  13
ATOM     13  C   UNL     1       0.425  -0.267   2.553  0.00  0.00    +0.141 C 
BRANCH  13  14
ATOM     14  C   UNL     1      -0.582  -1.291   3.010  0.00  0.00    -0.013 A 
ATOM     15  C   UNL     1      -0.213  -2.271   3.909  0.00  0.00    +0.006 A 
ATOM     16  C   UNL     1      -1.136  -3.211   4.329  0.00  0.00    +0.000 A 
ATOM     17  C   UNL     1      -2.434  -3.177   3.852  0.00  0.00    +0.001 A 
ATOM     18  C   UNL     1      -2.817  -2.204   2.952  0.00  0.00    +0.019 A 
ATOM     19  C   UNL     1      -1.892  -1.247   2.529  0.00  0.00    +0.056 A 
BRANCH  19  20
ATOM     20  C   UNL     1      -2.283  -0.230   1.600  0.00  0.00    +0.099 C 
ATOM     21  N   UNL     1      -2.594   0.577   0.863  0.00  0.00    -0.191 NA
ENDBRANCH  19  20
ENDBRANCH  13  14
ENDBRANCH  12  13
ENDBRANCH   1   5
BRANCH   2  22
ATOM     22  C   UNL     1       2.635   1.236  -4.044  0.00  0.00    +0.254 C 
ATOM     23  O   UNL     1       3.407   1.998  -3.496  0.00  0.00    -0.269 OA
ATOM     24  N   UNL     1       2.449   1.306  -5.377  0.00  0.00    -0.310 N 
ATOM     25  H   UNL     1       1.833   0.698  -5.814  0.00  0.00    +0.149 HD
BRANCH  24  26
ATOM     26  C   UNL     1       3.180   2.301  -6.166  0.00  0.00    +0.109 C 
BRANCH  26  27
ATOM     27  C   UNL     1       2.790   2.169  -7.640  0.00  0.00    +0.052 C 
BRANCH  27  28
ATOM     28  C   UNL     1       3.541   3.192  -8.452  0.00  0.00    -0.040 C 
ATOM     29  C   UNL     1       4.702   3.007  -9.121  0.00  0.00    -0.001 A 
ATOM     30  C   UNL     1       5.579   1.842  -9.286  0.00  0.00    +0.010 A 
ATOM     31  C   UNL     1       6.700   1.966 -10.032  0.00  0.00    +0.001 A 
ATOM     32  C   UNL     1       7.045   3.176 -10.650  0.00  0.00    +0.002 A 
ATOM     33  C   UNL     1       6.289   4.290 -10.544  0.00  0.00    +0.026 A 
ATOM     34  C   UNL     1       5.088   4.273  -9.784  0.00  0.00    +0.043 A 
ATOM     35  N   UNL     1       4.200   5.205  -9.534  0.00  0.00    -0.380 N 
ATOM     36  C   UNL     1       3.146   4.633  -8.689  0.00  0.00    +0.144 C 
ATOM     37  H   UNL     1       4.232   6.119  -9.858  0.00  0.00    +0.160 HD
ENDBRANCH  27  28
ENDBRANCH  26  27
ENDBRANCH  24  26
ENDBRANCH   2  22
BRANCH   2  38
ATOM     38  C   UNL     1       0.988  -0.666  -3.893  0.00  0.00    +0.104 C 
ATOM     39  N   UNL     1       0.266  -1.378  -4.404  0.00  0.00    -0.191 NA
ENDBRANCH   2  38
TORSDOF 9
