REMARK  Name = ZINC20739914
REMARK  6 active torsions:
REMARK  status: ('A' for Active; 'I' for Inactive)
REMARK    1  A    between atoms: C_1  and  C_2
REMARK    2  A    between atoms: N_13  and  C_16
REMARK    3  A    between atoms: C_19  and  N_25
REMARK    4  A    between atoms: C_20  and  N_22
REMARK    5  A    between atoms: C_28  and  C_31
REMARK    6  A    between atoms: C_28  and  N_34
REMARK                            x       y       z     vdW  Elec       q    Type
REMARK                         _______ _______ _______ _____ _____    ______ ____
ROOT
ATOM      1  C   UNL     1       7.041  -1.234   7.848  0.00  0.00    +0.046 A 
ATOM      2  C   UNL     1       7.581  -0.513   6.791  0.00  0.00    +0.026 A 
ATOM      3  C   UNL     1       6.779  -0.134   5.733  0.00  0.00    +0.027 A 
ATOM      4  C   UNL     1       5.433  -0.474   5.726  0.00  0.00    +0.060 A 
ATOM      5  C   UNL     1       4.892  -1.191   6.785  0.00  0.00    +0.149 A 
ATOM      6  C   UNL     1       5.695  -1.574   7.841  0.00  0.00    +0.058 A 
ENDROOT
BRANCH   1  16
ATOM      7  C   UNL     1      12.436  -2.980  12.537  0.00  0.00    +0.007 C 
ATOM      8  C   UNL     1      11.063  -2.395  12.198  0.00  0.00    -0.013 C 
ATOM      9  C   UNL     1       9.982  -3.356  12.678  0.00  0.00    +0.004 C 
ATOM     10  C   UNL     1       8.575  -2.914  12.234  0.00  0.00    +0.014 C 
ATOM     11  C   UNL     1       8.613  -2.792  10.729  0.00  0.00    +0.088 C 
ATOM     12  C   UNL     1       9.592  -1.624  10.406  0.00  0.00    +0.088 C 
ATOM     13  C   UNL     1      10.990  -2.137  10.679  0.00  0.00    +0.016 C 
ATOM     14  C   UNL     1       9.182  -1.323   8.999  0.00  0.00    +0.230 C 
ATOM     15  O   UNL     1       9.887  -0.899   8.109  0.00  0.00    -0.275 OA
ATOM     16  N   UNL     1       7.856  -1.619   8.924  0.00  0.00    -0.210 N 
ATOM     17  C   UNL     1       7.397  -2.321   9.995  0.00  0.00    +0.230 C 
ATOM     18  O   UNL     1       6.239  -2.525  10.292  0.00  0.00    -0.275 OA
ENDBRANCH   1  16
BRANCH   4  19
ATOM     19  N   UNL     1       4.620  -0.090   4.654  0.00  0.00    -0.328 N 
ATOM     20  C   UNL     1       4.508   1.372   4.576  0.00  0.00    +0.104 C 
ATOM     21  C   UNL     1       3.501   1.750   3.488  0.00  0.00    +0.016 C 
ATOM     22  C   UNL     1       3.970   1.183   2.146  0.00  0.00    +0.015 C 
ATOM     23  C   UNL     1       4.126  -0.335   2.267  0.00  0.00    +0.016 C 
ATOM     24  C   UNL     1       5.115  -0.653   3.391  0.00  0.00    +0.104 C 
BRANCH  22  25
ATOM     25  N   UNL     1       2.977   1.494   1.108  0.00  0.00    +0.389 N 
ATOM     26  C   UNL     1       3.437   1.043  -0.212  0.00  0.00    -0.077 C 
ATOM     27  C   UNL     1       2.450   1.510  -1.284  0.00  0.00    -0.019 C 
ATOM     28  C   UNL     1       1.065   0.933  -0.982  0.00  0.00    -0.004 C 
ATOM     29  C   UNL     1       0.630   1.377   0.418  0.00  0.00    -0.019 C 
ATOM     30  C   UNL     1       1.670   0.914   1.441  0.00  0.00    -0.077 C 
ATOM     31  H   UNL     1       2.859   2.586   1.067  0.00  0.00    -0.080 HD
ENDBRANCH  22  25
BRANCH  22  32
ATOM     32  C   UNL     1       5.295   1.798   1.775  0.00  0.00    +0.200 C 
ATOM     33  O   UNL     1       6.324   1.190   1.980  0.00  0.00    -0.278 OA
ATOM     34  N   UNL     1       5.336   3.024   1.215  0.00  0.00    -0.330 N 
ATOM     35  H   UNL     1       6.303   3.472   0.945  0.00  0.00    +0.145 HD
ATOM     36  H   UNL     1       4.403   3.575   1.029  0.00  0.00    +0.145 HD
ENDBRANCH  22  32
ENDBRANCH   4  19
BRANCH   5  37
ATOM     37  N   UNL     1       3.456  -1.549   6.780  0.00  0.00    +0.058 N 
ATOM     38  O   UNL     1       2.961  -2.094   7.750  0.00  0.00    -0.126 OA
ATOM     39  O   UNL     1       2.769  -1.298   5.806  0.00  0.00    -0.126 OA
ENDBRANCH   5  37
TORSDOF 5
