REMARK  Name = ZINC13495825
REMARK  12 active torsions:
REMARK  status: ('A' for Active; 'I' for Inactive)
REMARK    1  A    between atoms: C_1  and  C_2
REMARK    2  A    between atoms: C_2  and  C_3
REMARK    3  A    between atoms: C_3  and  C_5
REMARK    4  A    between atoms: C_3  and  N_69
REMARK    5  A    between atoms: N_9  and  C_10
REMARK    6  A    between atoms: C_10  and  C_11
REMARK    7  A    between atoms: C_17  and  C_18
REMARK    8  A    between atoms: C_17  and  N_69
REMARK    9  A    between atoms: C_18  and  C_19
REMARK   10  A    between atoms: C_25  and  C_26
REMARK   11  A    between atoms: C_25  and  N_69
REMARK   12  A    between atoms: C_30  and  C_38
REMARK                            x       y       z     vdW  Elec       q    Type
REMARK                         _______ _______ _______ _____ _____    ______ ____
ROOT
ATOM      1  N   UNL     1       3.892   0.850  -2.891  0.00  0.00    +0.389 N 
ATOM      2  H   UNL     1       4.406   0.854  -3.780  0.00  0.00    -0.080 HD
ENDROOT
BRANCH   1   3
ATOM      3  C   UNL     1       4.043   2.169  -2.242  0.00  0.00    +0.003 C 
BRANCH   3   4
ATOM      4  C   UNL     1       3.362   3.214  -3.088  0.00  0.00    +0.138 A 
ATOM      5  N   UNL     1       3.429   3.330  -4.391  0.00  0.00    -0.115 NA
ATOM      6  N   UNL     1       2.717   4.347  -4.737  0.00  0.00    -0.023 NA
ATOM      7  N   UNL     1       2.193   4.879  -3.688  0.00  0.00    -0.044 NA
ATOM      8  N   UNL     1       2.565   4.207  -2.651  0.00  0.00    -0.226 N 
BRANCH   8   9
ATOM      9  C   UNL     1       2.195   4.478  -1.260  0.00  0.00    +0.182 C 
BRANCH   9  10
ATOM     10  C   UNL     1       0.932   3.728  -0.921  0.00  0.00    -0.026 A 
ATOM     11  C   UNL     1       1.006   2.446  -0.410  0.00  0.00    +0.005 A 
ATOM     12  C   UNL     1      -0.152   1.758  -0.099  0.00  0.00    +0.000 A 
ATOM     13  C   UNL     1      -1.384   2.351  -0.305  0.00  0.00    +0.000 A 
ATOM     14  C   UNL     1      -1.458   3.635  -0.812  0.00  0.00    +0.000 A 
ATOM     15  C   UNL     1      -0.300   4.322  -1.122  0.00  0.00    +0.005 A 
ENDBRANCH   9  10
ENDBRANCH   8   9
ENDBRANCH   3   4
BRANCH   3  17
ATOM     16  C   UNL     1       5.709   3.824  -1.388  0.00  0.00    +0.002 C 
ATOM     17  C   UNL     1       5.533   2.496  -2.128  0.00  0.00    -0.011 C 
ENDBRANCH   3  17
ENDBRANCH   1   3
BRANCH   1  18
ATOM     18  C   UNL     1       2.464   0.581  -3.163  0.00  0.00    -0.073 C 
BRANCH  18  19
ATOM     19  C   UNL     1       2.362  -0.587  -4.146  0.00  0.00    +0.016 C 
BRANCH  19  20
ATOM     20  C   UNL     1       0.923  -0.782  -4.546  0.00  0.00    -0.049 A 
ATOM     21  C   UNL     1       0.090  -1.567  -3.770  0.00  0.00    +0.003 A 
ATOM     22  C   UNL     1      -1.232  -1.743  -4.135  0.00  0.00    +0.000 A 
ATOM     23  C   UNL     1      -1.718  -1.142  -5.281  0.00  0.00    +0.000 A 
ATOM     24  C   UNL     1      -0.884  -0.362  -6.060  0.00  0.00    +0.000 A 
ATOM     25  C   UNL     1       0.436  -0.182  -5.693  0.00  0.00    +0.003 A 
ENDBRANCH  19  20
ENDBRANCH  18  19
ENDBRANCH   1  18
BRANCH   1  26
ATOM     26  C   UNL     1       4.448  -0.208  -2.021  0.00  0.00    -0.037 C 
BRANCH  26  27
ATOM     27  C   UNL     1       3.650  -0.319  -0.747  0.00  0.00    +0.001 A 
ATOM     28  C   UNL     1       2.643  -1.223  -0.657  0.00  0.00    +0.017 A 
ATOM     29  C   UNL     1       1.887  -1.305   0.594  0.00  0.00    -0.001 A 
ATOM     30  C   UNL     1       0.838  -2.219   0.746  0.00  0.00    +0.013 A 
ATOM     31  C   UNL     1       0.152  -2.271   1.927  0.00  0.00    -0.050 A 
ATOM     32  C   UNL     1       0.487  -1.426   2.976  0.00  0.00    +0.005 A 
ATOM     33  C   UNL     1       1.516  -0.519   2.848  0.00  0.00    +0.026 A 
ATOM     34  C   UNL     1       2.229  -0.447   1.655  0.00  0.00    +0.049 A 
ATOM     35  N   UNL     1       3.264   0.451   1.500  0.00  0.00    -0.322 N 
ATOM     36  H   UNL     1       3.498   1.042   2.233  0.00  0.00    +0.169 HD
ATOM     37  C   UNL     1       3.956   0.515   0.349  0.00  0.00    +0.251 A 
ATOM     38  O   UNL     1       4.868   1.318   0.249  0.00  0.00    -0.268 OA
ATOM     39  C   UNL     1      -0.978  -3.254   2.091  0.00  0.00    +0.044 C 
ENDBRANCH  26  27
ENDBRANCH   1  26
TORSDOF 10
