REMARK  Name = ZINC39675452
REMARK  10 active torsions:
REMARK  status: ('A' for Active; 'I' for Inactive)
REMARK    1  A    between atoms: C_1  and  C_2
REMARK    2  A    between atoms: C_2  and  C_4
REMARK    3  A    between atoms: C_2  and  N_14
REMARK    4  A    between atoms: C_4  and  C_5
REMARK    5  A    between atoms: C_5  and  C_6
REMARK    6  A    between atoms: C_9  and  O_12
REMARK    7  A    between atoms: O_12  and  C_13
REMARK    8  A    between atoms: C_15  and  C_17
REMARK    9  A    between atoms: C_28  and  C_30
REMARK   10  A    between atoms: C_33  and  C_35
REMARK                            x       y       z     vdW  Elec       q    Type
REMARK                         _______ _______ _______ _____ _____    ______ ____
ROOT
ATOM      1  C   UNL     1       2.736  -1.073  -2.455  0.00  0.00    +0.100 C 
ATOM      2  C   UNL     1       2.403  -0.160  -3.656  0.00  0.00    +0.121 C 
ATOM      3  N   UNL     1       3.518   0.815  -3.706  0.00  0.00    -0.294 N 
ATOM      4  C   UNL     1       4.723   0.013  -3.386  0.00  0.00    +0.115 C 
ATOM      5  C   UNL     1       4.260  -0.959  -2.283  0.00  0.00    -0.004 C 
ATOM      6  C   UNL     1       4.917  -2.324  -2.472  0.00  0.00    -0.010 C 
ATOM      7  C   UNL     1       6.425  -2.196  -2.239  0.00  0.00    -0.082 C 
ATOM      8  N   UNL     1       6.671  -1.696  -0.881  0.00  0.00    +0.379 N 
ATOM      9  C   UNL     1       6.117  -0.345  -0.737  0.00  0.00    -0.082 C 
ATOM     10  C   UNL     1       4.596  -0.394  -0.907  0.00  0.00    -0.010 C 
ATOM     11  C   UNL     1       3.451   2.133  -3.980  0.00  0.00    +0.282 C 
ATOM     12  O   UNL     1       4.465   2.806  -3.983  0.00  0.00    -0.267 OA
ATOM     13  H   UNL     1       6.232  -2.312  -0.213  0.00  0.00    -0.086 HD
ATOM     14  H   UNL     1       7.665  -1.671  -0.709  0.00  0.00    -0.086 HD
ENDROOT
BRANCH  11  15
ATOM     15  C   UNL     1       2.159   2.755  -4.276  0.00  0.00    +0.190 A 
ATOM     16  C   UNL     1       1.950   4.083  -4.577  0.00  0.00    +0.055 A 
ATOM     17  C   UNL     1       0.576   4.238  -4.786  0.00  0.00    +0.051 A 
ATOM     18  C   UNL     1       0.001   3.012  -4.608  0.00  0.00    +0.139 A 
ATOM     19  O   UNL     1       0.965   2.126  -4.306  0.00  0.00    -0.450 OA
BRANCH  18  20
ATOM     20  C   UNL     1      -1.438   2.710  -4.732  0.00  0.00    +0.052 A 
ATOM     21  C   UNL     1      -2.381   3.499  -4.068  0.00  0.00    +0.014 A 
ATOM     22  C   UNL     1      -3.724   3.211  -4.189  0.00  0.00    +0.001 A 
ATOM     23  C   UNL     1      -4.141   2.143  -4.964  0.00  0.00    +0.003 A 
ATOM     24  C   UNL     1      -3.216   1.356  -5.625  0.00  0.00    +0.039 A 
ATOM     25  C   UNL     1      -1.866   1.636  -5.519  0.00  0.00    +0.134 A 
ATOM     26  F   UNL     1      -0.962   0.871  -6.169  0.00  0.00    -0.205 F 
ENDBRANCH  18  20
ENDBRANCH  11  15
BRANCH   1  28
ATOM     27  N   UNL     1       1.684  -1.462  -0.251  0.00  0.00    -0.312 N 
ATOM     28  C   UNL     1       2.031  -0.587  -1.215  0.00  0.00    +0.218 C 
ATOM     29  O   UNL     1       1.776   0.592  -1.085  0.00  0.00    -0.275 OA
ATOM     30  H   UNL     1       1.888  -2.405  -0.354  0.00  0.00    +0.149 HD
BRANCH  27  32
ATOM     31  C   UNL     1      -0.507  -0.911   0.688  0.00  0.00    +0.028 C 
ATOM     32  C   UNL     1       0.998  -0.990   0.955  0.00  0.00    +0.070 C 
BRANCH  32  33
ATOM     33  C   UNL     1       1.262  -1.962   2.106  0.00  0.00    +0.026 C 
BRANCH  33  34
ATOM     34  C   UNL     1       2.752  -1.946   2.455  0.00  0.00    +0.037 C 
BRANCH  34  35
ATOM     35  C   UNL     1       3.012  -2.904   3.589  0.00  0.00    -0.047 A 
ATOM     36  C   UNL     1       2.931  -2.463   4.897  0.00  0.00    +0.007 A 
ATOM     37  C   UNL     1       3.169  -3.339   5.939  0.00  0.00    +0.046 A 
ATOM     38  C   UNL     1       3.490  -4.662   5.671  0.00  0.00    +0.120 A 
ATOM     39  C   UNL     1       3.569  -5.103   4.358  0.00  0.00    +0.046 A 
ATOM     40  C   UNL     1       3.325  -4.224   3.320  0.00  0.00    +0.007 A 
BRANCH  38  41
ATOM     41  O   UNL     1       3.725  -5.526   6.694  0.00  0.00    -0.495 OA
ATOM     42  C   UNL     1       4.049  -6.873   6.344  0.00  0.00    +0.277 C 
ENDBRANCH  38  41
ENDBRANCH  34  35
ENDBRANCH  33  34
ENDBRANCH  32  33
ENDBRANCH  27  32
ENDBRANCH   1  28
TORSDOF 8
