REMARK  Name = ZINC22672394
REMARK  14 active torsions:
REMARK  status: ('A' for Active; 'I' for Inactive)
REMARK    1  A    between atoms: C_1  and  C_2
REMARK    2  A    between atoms: C_2  and  N_3
REMARK    3  A    between atoms: N_3  and  C_4
REMARK    4  A    between atoms: N_3  and  C_35
REMARK    5  A    between atoms: C_4  and  C_5
REMARK    6  A    between atoms: C_8  and  C_11
REMARK    7  A    between atoms: C_21  and  O_23
REMARK    8  A    between atoms: O_23  and  C_24
REMARK    9  A    between atoms: C_27  and  C_30
REMARK   10  A    between atoms: C_30  and  O_32
REMARK   11  A    between atoms: O_32  and  C_33
REMARK   12  A    between atoms: C_33  and  C_34
REMARK   13  A    between atoms: C_35  and  C_36
REMARK   14  A    between atoms: C_36  and  C_38
REMARK                            x       y       z     vdW  Elec       q    Type
REMARK                         _______ _______ _______ _____ _____    ______ ____
ROOT
ATOM      1  C   UNL     1      -1.869   1.855   0.545  0.00  0.00    +0.247 C 
ATOM      2  O   UNL     1      -2.903   1.238   0.375  0.00  0.00    -0.270 OA
ATOM      3  N   UNL     1      -1.909   3.172   0.826  0.00  0.00    -0.291 N 
ATOM      4  C   UNL     1      -0.774   4.118   0.951  0.00  0.00    +0.080 C 
ATOM      5  C   UNL     1      -1.269   5.399   0.231  0.00  0.00    +0.024 C 
ATOM      6  C   UNL     1      -2.808   5.332   0.326  0.00  0.00    +0.024 C 
ATOM      7  C   UNL     1      -3.098   4.019   1.089  0.00  0.00    +0.080 C 
ATOM      8  C   UNL     1      -3.106   4.340   2.592  0.00  0.00    +0.067 C 
ATOM      9  C   UNL     1      -1.874   5.173   2.928  0.00  0.00    +0.177 C 
ATOM     10  C   UNL     1      -0.616   4.447   2.444  0.00  0.00    +0.067 C 
ENDROOT
BRANCH   1  14
ATOM     11  C   UNL     1       1.865  -0.150   0.265  0.00  0.00    -0.064 A 
ATOM     12  C   UNL     1       1.758   1.006   1.019  0.00  0.00    +0.002 A 
ATOM     13  C   UNL     1       0.549   1.662   1.113  0.00  0.00    +0.013 A 
ATOM     14  C   UNL     1      -0.569   1.159   0.444  0.00  0.00    +0.037 A 
ATOM     15  C   UNL     1      -0.454  -0.006  -0.315  0.00  0.00    +0.013 A 
ATOM     16  C   UNL     1       0.761  -0.654  -0.400  0.00  0.00    +0.002 A 
BRANCH  11  17
ATOM     17  C   UNL     1       3.189  -0.862   0.168  0.00  0.00    -0.043 C 
BRANCH  17  18
ATOM     18  N   UNL     1       3.294  -1.851   1.250  0.00  0.00    +0.385 N 
ATOM     19  H   UNL     1       3.076  -1.338   2.198  0.00  0.00    -0.081 HD
BRANCH  18  21
ATOM     20  C   UNL     1       2.619  -3.707  -0.198  0.00  0.00    -0.017 C 
ATOM     21  C   UNL     1       2.306  -2.924   1.079  0.00  0.00    -0.081 C 
ENDBRANCH  18  21
BRANCH  18  22
ATOM     22  C   UNL     1       4.655  -2.396   1.334  0.00  0.00    -0.048 C 
BRANCH  22  23
ATOM     23  C   UNL     1       4.758  -3.307   2.530  0.00  0.00    -0.096 C 
ATOM     24  C   UNL     1       4.670  -4.605   2.375  0.00  0.00    +0.005 C 
ATOM     25  C   UNL     1       4.963  -2.725   3.905  0.00  0.00    +0.036 C 
ENDBRANCH  22  23
ENDBRANCH  18  22
ENDBRANCH  17  18
ENDBRANCH  11  17
ENDBRANCH   1  14
BRANCH   9  26
ATOM     26  O   UNL     1      -1.802   5.358   4.343  0.00  0.00    -0.489 OA
BRANCH  26  27
ATOM     27  C   UNL     1      -2.513   6.389   4.866  0.00  0.00    +0.121 A 
ATOM     28  C   UNL     1      -3.345   7.143   4.047  0.00  0.00    +0.046 A 
ATOM     29  C   UNL     1      -4.072   8.186   4.575  0.00  0.00    +0.018 A 
ATOM     30  C   UNL     1      -3.965   8.493   5.935  0.00  0.00    +0.059 A 
ATOM     31  C   UNL     1      -3.123   7.735   6.754  0.00  0.00    +0.018 A 
ATOM     32  C   UNL     1      -2.403   6.690   6.219  0.00  0.00    +0.046 A 
BRANCH  30  33
ATOM     33  C   UNL     1      -4.738   9.612   6.504  0.00  0.00    +0.339 C 
ATOM     34  O   UNL     1      -4.644   9.877   7.686  0.00  0.00    -0.245 OA
BRANCH  33  35
ATOM     35  O   UNL     1      -5.549  10.342   5.713  0.00  0.00    -0.461 OA
BRANCH  35  36
ATOM     36  C   UNL     1      -6.280  11.428   6.341  0.00  0.00    +0.229 C 
ATOM     37  C   UNL     1      -7.141  12.136   5.293  0.00  0.00    +0.048 C 
ENDBRANCH  35  36
ENDBRANCH  33  35
ENDBRANCH  30  33
ENDBRANCH  26  27
ENDBRANCH   9  26
TORSDOF 11
