REMARK  Name = ZINC20568994
REMARK  11 active torsions:
REMARK  status: ('A' for Active; 'I' for Inactive)
REMARK    1  A    between atoms: C_1  and  C_2
REMARK    2  A    between atoms: C_3  and  C_25
REMARK    3  A    between atoms: C_12  and  N_20
REMARK    4  A    between atoms: C_13  and  C_14
REMARK    5  A    between atoms: C_14  and  O_16
REMARK    6  A    between atoms: O_16  and  C_17
REMARK    7  A    between atoms: C_17  and  C_18
REMARK    8  A    between atoms: C_17  and  C_19
REMARK    9  A    between atoms: C_25  and  O_27
REMARK   10  A    between atoms: O_27  and  C_28
REMARK   11  A    between atoms: C_28  and  C_29
REMARK                            x       y       z     vdW  Elec       q    Type
REMARK                         _______ _______ _______ _____ _____    ______ ____
ROOT
ATOM      1  C   UNL     1       5.280   3.753   2.289  0.00  0.00    +0.087 C 
ATOM      2  C   UNL     1       4.292   4.045   1.190  0.00  0.00    +0.117 C 
ATOM      3  C   UNL     1       3.117   4.664   1.390  0.00  0.00    +0.100 C 
ATOM      4  C   UNL     1       2.460   4.745   0.029  0.00  0.00    +0.164 C 
ATOM      5  C   UNL     1       1.171   3.976   0.029  0.00  0.00    +0.001 A 
ATOM      6  C   UNL     1       1.198   2.593   0.040  0.00  0.00    +0.022 A 
ATOM      7  C   UNL     1       0.018   1.873   0.043  0.00  0.00    +0.018 A 
ATOM      8  C   UNL     1      -1.199   2.533   0.031  0.00  0.00    +0.017 A 
ATOM      9  C   UNL     1      -1.234   3.913   0.025  0.00  0.00    +0.024 A 
ATOM     10  C   UNL     1      -0.049   4.638   0.020  0.00  0.00    +0.037 A 
ATOM     11  N   UNL     1      -0.092   6.035   0.004  0.00  0.00    -0.302 N 
ATOM     12  C   UNL     1       1.014   6.755  -0.363  0.00  0.00    +0.097 C 
ATOM     13  C   UNL     1       2.258   6.174  -0.369  0.00  0.00    +0.098 C 
ATOM     14 BR   UNL     1       0.066  -0.017   0.056  0.00  0.00    -0.050 Br
ATOM     15  C   UNL     1       3.466   4.080  -0.885  0.00  0.00    +0.332 C 
ATOM     16  O   UNL     1       3.370   3.911  -2.077  0.00  0.00    -0.249 OA
ATOM     17  O   UNL     1       4.489   3.715  -0.093  0.00  0.00    -0.429 OA
ATOM     18  H   UNL     1      -1.016   6.561   0.285  0.00  0.00    +0.153 HD
ENDROOT
BRANCH  12  19
ATOM     19  N   UNL     1       0.878   8.070  -0.727  0.00  0.00    -0.346 N 
ATOM     20  H   UNL     1       1.762   8.653  -1.023  0.00  0.00    +0.143 HD
ATOM     21  H   UNL     1      -0.116   8.541  -0.725  0.00  0.00    +0.143 HD
ENDBRANCH  12  19
BRANCH  13  22
ATOM     22  C   UNL     1       3.366   6.938  -0.757  0.00  0.00    +0.340 C 
ATOM     23  O   UNL     1       4.110   7.405   0.087  0.00  0.00    -0.245 OA
BRANCH  22  24
ATOM     24  O   UNL     1       3.610   7.156  -2.068  0.00  0.00    -0.459 OA
BRANCH  24  25
ATOM     25  C   UNL     1       4.757   7.943  -2.392  0.00  0.00    +0.171 C 
ATOM     26  C   UNL     1       5.973   7.029  -2.556  0.00  0.00    +0.052 C 
ATOM     27  C   UNL     1       4.506   8.698  -3.699  0.00  0.00    +0.052 C 
ENDBRANCH  24  25
ENDBRANCH  22  24
ENDBRANCH  13  22
BRANCH   3  28
ATOM     28  C   UNL     1       2.599   5.142   2.620  0.00  0.00    +0.340 C 
ATOM     29  O   UNL     1       3.242   5.008   3.644  0.00  0.00    -0.245 OA
BRANCH  28  30
ATOM     30  O   UNL     1       1.394   5.747   2.656  0.00  0.00    -0.457 OA
BRANCH  30  31
ATOM     31  C   UNL     1       0.934   6.204   3.929  0.00  0.00    +0.259 C 
BRANCH  31  32
ATOM     32  C   UNL     1      -0.419   6.848   3.773  0.00  0.00    +0.006 C 
ATOM     33  C   UNL     1      -1.379   6.569   4.621  0.00  0.00    +0.007 C 
ENDBRANCH  31  32
ENDBRANCH  30  31
ENDBRANCH  28  30
ENDBRANCH   3  28
TORSDOF 8
