REMARK  Name = ZINC19961343
REMARK  5 active torsions:
REMARK  status: ('A' for Active; 'I' for Inactive)
REMARK    1  A    between atoms: C_1  and  C_2
REMARK    2  A    between atoms: C_6  and  C_14
REMARK    3  A    between atoms: N_7  and  C_10
REMARK    4  A    between atoms: C_10  and  C_11
REMARK    5  A    between atoms: C_16  and  C_17
REMARK                            x       y       z     vdW  Elec       q    Type
REMARK                         _______ _______ _______ _____ _____    ______ ____
ROOT
ATOM      1  C   UNL     1       3.720   3.263  -0.003  0.00  0.00    +0.046 C 
ATOM      2  C   UNL     1       2.338   3.865   0.006  0.00  0.00    -0.015 A 
ATOM      3  C   UNL     1       2.179   5.252   0.009  0.00  0.00    +0.076 A 
ATOM      4  C   UNL     1       0.844   5.718   0.025  0.00  0.00    +0.116 A 
ATOM      5  N   UNL     1       0.555   7.013   0.035  0.00  0.00    -0.227 NA
ATOM      6  C   UNL     1       1.491   7.923   0.031  0.00  0.00    +0.111 A 
ATOM      7  N   UNL     1       2.807   7.598   0.016  0.00  0.00    -0.285 N 
ATOM      8  C   UNL     1       3.212   6.313   0.004  0.00  0.00    +0.263 A 
ATOM      9  O   UNL     1       4.397   6.031  -0.011  0.00  0.00    -0.267 OA
ATOM     10  C   UNL     1       1.097   9.378   0.043  0.00  0.00    +0.086 C 
ATOM     11  S   UNL     1      -0.111   4.222   0.026  0.00  0.00    -0.062 S 
ATOM     12  C   UNL     1       1.239   3.055   0.007  0.00  0.00    +0.106 A 
ENDROOT
BRANCH  12  13
ATOM     13  C   UNL     1       1.183   1.592  -0.001  0.00  0.00    +0.393 C 
ATOM     14  O   UNL     1       2.211   0.943  -0.014  0.00  0.00    -0.240 OA
ATOM     15  O   UNL     1      -0.011   0.963   0.007  0.00  0.00    -0.240 OA
ENDBRANCH  12  13
BRANCH   7  16
ATOM     16  C   UNL     1       3.810   8.666   0.012  0.00  0.00    +0.251 C 
BRANCH  16  17
ATOM     17  C   UNL     1       4.169   9.024   1.431  0.00  0.00    +0.375 C 
ATOM     18  O   UNL     1       3.640   8.446   2.351  0.00  0.00    -0.244 OA
ATOM     19  O   UNL     1       5.074   9.984   1.672  0.00  0.00    -0.244 OA
ENDBRANCH  16  17
ENDBRANCH   7  16
TORSDOF 3
