REMARK  Name = ZINC28058898
REMARK  9 active torsions:
REMARK  status: ('A' for Active; 'I' for Inactive)
REMARK    1  A    between atoms: C_1  and  C_2
REMARK    2  A    between atoms: C_10  and  C_13
REMARK    3  A    between atoms: C_16  and  S_19
REMARK    4  A    between atoms: S_19  and  C_20
REMARK    5  A    between atoms: C_21  and  C_29
REMARK    6  A    between atoms: C_32  and  O_37
REMARK    7  A    between atoms: C_34  and  O_35
REMARK    8  A    between atoms: O_35  and  C_36
REMARK    9  A    between atoms: O_37  and  C_38
REMARK                            x       y       z     vdW  Elec       q    Type
REMARK                         _______ _______ _______ _____ _____    ______ ____
ROOT
ATOM      1  C   UNL     1       4.319   4.805  -5.753  0.00  0.00    +0.044 C 
ATOM      2  C   UNL     1       3.828   3.384  -5.858  0.00  0.00    -0.050 A 
ATOM      3  C   UNL     1       2.576   3.126  -6.389  0.00  0.00    +0.007 A 
ATOM      4  C   UNL     1       2.111   1.827  -6.492  0.00  0.00    +0.046 A 
ATOM      5  C   UNL     1       2.902   0.778  -6.060  0.00  0.00    +0.131 A 
ATOM      6  C   UNL     1       4.169   1.038  -5.523  0.00  0.00    +0.038 A 
ATOM      7  C   UNL     1       4.629   2.346  -5.422  0.00  0.00    +0.016 A 
ATOM      8  C   UNL     1       4.992  -0.109  -5.073  0.00  0.00    +0.050 C 
ATOM      9  C   UNL     1       4.391  -1.285  -4.880  0.00  0.00    +0.026 C 
ATOM     10  C   UNL     1       2.901  -1.397  -5.106  0.00  0.00    +0.234 C 
ATOM     11  O   UNL     1       2.481  -0.509  -6.142  0.00  0.00    -0.479 OA
ATOM     12  C   UNL     1       5.148  -2.517  -4.446  0.00  0.00    +0.177 C 
ATOM     13  N   UNL     1       6.479  -2.150  -3.984  0.00  0.00    -0.201 N 
ATOM     14  C   UNL     1       7.043  -0.931  -4.189  0.00  0.00    +0.240 A 
ATOM     15  N   UNL     1       8.229  -0.956  -3.654  0.00  0.00    -0.092 NA
ATOM     16  N   UNL     1       8.453  -2.108  -3.120  0.00  0.00    -0.021 NA
ATOM     17  N   UNL     1       7.431  -2.886  -3.280  0.00  0.00    -0.042 NA
ATOM     18  N   UNL     1       6.364   0.074  -4.859  0.00  0.00    -0.282 N 
ATOM     19  H   UNL     1       6.859   0.988  -5.217  0.00  0.00    +0.155 HD
ENDROOT
BRANCH  10  20
ATOM     20  C   UNL     1       2.177  -1.049  -3.831  0.00  0.00    -0.003 A 
ATOM     21  C   UNL     1       2.055   0.273  -3.446  0.00  0.00    +0.008 A 
ATOM     22  C   UNL     1       1.393   0.596  -2.277  0.00  0.00    +0.015 A 
ATOM     23  C   UNL     1       0.849  -0.411  -1.488  0.00  0.00    +0.008 A 
ATOM     24  C   UNL     1       0.979  -1.739  -1.876  0.00  0.00    +0.015 A 
ATOM     25  C   UNL     1       1.637  -2.054  -3.048  0.00  0.00    +0.008 A 
BRANCH  23  26
ATOM     26  S   UNL     1       0.004  -0.004   0.003  0.00  0.00    -0.129 S 
ATOM     27  C   UNL     1      -0.514  -1.611   0.666  0.00  0.00    +0.090 C 
ENDBRANCH  23  26
ENDBRANCH  10  20
BRANCH  12  28
ATOM     28  C   UNL     1       5.267  -3.466  -5.610  0.00  0.00    +0.023 A 
ATOM     29  C   UNL     1       5.912  -3.065  -6.765  0.00  0.00    +0.013 A 
ATOM     30  C   UNL     1       6.023  -3.933  -7.834  0.00  0.00    +0.046 A 
ATOM     31  C   UNL     1       5.486  -5.211  -7.750  0.00  0.00    +0.124 A 
ATOM     32  C   UNL     1       4.838  -5.615  -6.593  0.00  0.00    +0.091 A 
ATOM     33  C   UNL     1       4.734  -4.744  -5.520  0.00  0.00    +0.129 A 
BRANCH  33  34
ATOM     34  O   UNL     1       4.104  -5.139  -4.382  0.00  0.00    -0.495 OA
ATOM     35  C   UNL     1       3.579  -6.468  -4.359  0.00  0.00    +0.277 C 
ENDBRANCH  33  34
BRANCH  31  36
ATOM     36  O   UNL     1       5.595  -6.064  -8.802  0.00  0.00    -0.495 OA
ATOM     37  C   UNL     1       6.275  -5.581  -9.962  0.00  0.00    +0.277 C 
ENDBRANCH  31  36
ENDBRANCH  12  28
TORSDOF 5
