REMARK  Name = ZINC09144873
REMARK  9 active torsions:
REMARK  status: ('A' for Active; 'I' for Inactive)
REMARK    1  A    between atoms: C_1  and  C_2
REMARK    2  A    between atoms: C_2  and  C_35
REMARK    3  A    between atoms: C_3  and  N_24
REMARK    4  A    between atoms: N_5  and  C_18
REMARK    5  A    between atoms: N_8  and  C_9
REMARK    6  A    between atoms: C_9  and  C_10
REMARK    7  A    between atoms: C_10  and  C_11
REMARK    8  A    between atoms: N_24  and  O_34
REMARK    9  A    between atoms: N_27  and  C_28
REMARK                            x       y       z     vdW  Elec       q    Type
REMARK                         _______ _______ _______ _____ _____    ______ ____
ROOT
ATOM      1  C   UNL     1       0.486  -0.607   1.231  0.00  0.00    +0.035 C 
ATOM      2  C   UNL     1       1.959  -0.709   0.831  0.00  0.00    +0.071 C 
ATOM      3  C   UNL     1       2.304   0.349  -0.235  0.00  0.00    +0.224 C 
ATOM      4  N   UNL     1       3.330   1.180   0.412  0.00  0.00    -0.232 N 
ATOM      5  C   UNL     1       3.563   0.711   1.645  0.00  0.00    +0.311 C 
ATOM      6  O   UNL     1       4.370   1.213   2.404  0.00  0.00    -0.252 OA
ATOM      7  N   UNL     1       2.828  -0.361   1.966  0.00  0.00    -0.276 N 
ATOM      8  C   UNL     1       2.282  -2.114   0.318  0.00  0.00    +0.035 C 
ENDROOT
BRANCH   4   9
ATOM      9  C   UNL     1       3.963   2.286  -0.168  0.00  0.00    +0.040 A 
ATOM     10  C   UNL     1       3.542   2.759  -1.404  0.00  0.00    +0.023 A 
ATOM     11  C   UNL     1       4.165   3.853  -1.971  0.00  0.00    +0.002 A 
ATOM     12  C   UNL     1       5.214   4.471  -1.315  0.00  0.00    +0.000 A 
ATOM     13  C   UNL     1       5.639   3.999  -0.087  0.00  0.00    +0.002 A 
ATOM     14  C   UNL     1       5.016   2.908   0.488  0.00  0.00    +0.023 A 
ENDBRANCH   4   9
BRANCH   3  15
ATOM     15  N   UNL     1       1.124   1.152  -0.564  0.00  0.00    -0.144 N 
ATOM     16  C   UNL     1       0.597   1.983   0.357  0.00  0.00    +0.331 C 
ATOM     17  O   UNL     1       1.155   2.139   1.426  0.00  0.00    -0.250 OA
ATOM     18  N   UNL     1      -0.549   2.642   0.093  0.00  0.00    -0.268 N 
ATOM     19  H   UNL     1      -0.961   2.568  -0.782  0.00  0.00    +0.156 HD
BRANCH  18  20
ATOM     20  C   UNL     1      -1.144   3.434   1.081  0.00  0.00    +0.035 A 
ATOM     21  C   UNL     1      -2.528   3.506   1.175  0.00  0.00    +0.023 A 
ATOM     22  C   UNL     1      -3.113   4.285   2.155  0.00  0.00    +0.002 A 
ATOM     23  C   UNL     1      -2.322   5.000   3.035  0.00  0.00    +0.000 A 
ATOM     24  C   UNL     1      -0.944   4.935   2.941  0.00  0.00    +0.002 A 
ATOM     25  C   UNL     1      -0.353   4.154   1.967  0.00  0.00    +0.023 A 
ENDBRANCH  18  20
BRANCH  15  26
ATOM     26  O   UNL     1       0.537   1.056  -1.849  0.00  0.00    -0.289 OA
ATOM     27  H   UNL     1       1.027   0.494  -2.464  0.00  0.00    +0.242 HD
ENDBRANCH  15  26
ENDBRANCH   3  15
BRANCH   7  28
ATOM     28  C   UNL     1       2.879  -1.074   3.244  0.00  0.00    +0.115 C 
BRANCH  28  29
ATOM     29  C   UNL     1       3.927  -2.186   3.166  0.00  0.00    +0.057 C 
BRANCH  29  30
ATOM     30  C   UNL     1       3.981  -2.920   4.481  0.00  0.00    -0.011 A 
ATOM     31  C   UNL     1       4.917  -2.564   5.434  0.00  0.00    +0.006 A 
ATOM     32  C   UNL     1       4.963  -3.233   6.642  0.00  0.00    +0.000 A 
ATOM     33  C   UNL     1       4.079  -4.266   6.896  0.00  0.00    +0.003 A 
ATOM     34  C   UNL     1       3.146  -4.627   5.943  0.00  0.00    +0.038 A 
ATOM     35  C   UNL     1       3.095  -3.954   4.734  0.00  0.00    +0.127 A 
ATOM     36  F   UNL     1       2.183  -4.306   3.802  0.00  0.00    -0.205 F 
ENDBRANCH  29  30
ENDBRANCH  28  29
ENDBRANCH   7  28
TORSDOF 7
