REMARK  Name = ZINC28670567
REMARK  15 active torsions:
REMARK  status: ('A' for Active; 'I' for Inactive)
REMARK    1  A    between atoms: C_1  and  C_2
REMARK    2  A    between atoms: C_2  and  O_3
REMARK    3  A    between atoms: O_3  and  C_4
REMARK    4  A    between atoms: C_11  and  C_18
REMARK    5  A    between atoms: C_13  and  O_14
REMARK    6  A    between atoms: C_18  and  O_19
REMARK    7  A    between atoms: O_19  and  C_20
REMARK    8  A    between atoms: C_20  and  C_22
REMARK    9  A    between atoms: C_23  and  C_24
REMARK   10  A    between atoms: C_26  and  O_34
REMARK   11  A    between atoms: C_27  and  O_32
REMARK   12  A    between atoms: C_28  and  O_30
REMARK   13  A    between atoms: O_30  and  C_31
REMARK   14  A    between atoms: O_32  and  C_33
REMARK   15  A    between atoms: O_34  and  C_35
REMARK                            x       y       z     vdW  Elec       q    Type
REMARK                         _______ _______ _______ _____ _____    ______ ____
ROOT
ATOM      1  C   UNL     1      -1.125   3.077   0.611  0.00  0.00    +0.405 C 
ATOM      2  O   UNL     1      -2.107   3.542   1.155  0.00  0.00    -0.226 OA
ATOM      3  N   UNL     1      -1.191   1.869   0.018  0.00  0.00    -0.251 N 
ATOM      4  C   UNL     1      -2.358   1.109   0.109  0.00  0.00    +0.040 A 
ATOM      5  C   UNL     1      -2.274  -0.281   0.191  0.00  0.00    +0.024 A 
ATOM      6  C   UNL     1      -3.406  -1.036   0.286  0.00  0.00    +0.014 A 
ATOM      7  C   UNL     1      -4.660  -0.414   0.290  0.00  0.00    +0.024 A 
ATOM      8  C   UNL     1      -5.891  -1.200   0.386  0.00  0.00    +0.007 A 
ATOM      9  C   UNL     1      -7.078  -0.538   0.386  0.00  0.00    +0.095 A 
ATOM     10  C   UNL     1      -7.096   0.869   0.295  0.00  0.00    +0.285 A 
ATOM     11  O   UNL     1      -5.963   1.584   0.207  0.00  0.00    -0.425 OA
ATOM     12  C   UNL     1      -4.752   0.988   0.203  0.00  0.00    +0.141 A 
ATOM     13  C   UNL     1      -3.591   1.742   0.112  0.00  0.00    +0.070 A 
ATOM     14  H   UNL     1      -0.324   1.481  -0.538  0.00  0.00    +0.158 HD
ENDROOT
BRANCH  10  15
ATOM     15  O   UNL     1      -8.166   1.450   0.296  0.00  0.00    -0.480 OA
ATOM     16  H   UNL     1      -8.196   2.547   0.226  0.00  0.00    +0.295 HD
ENDBRANCH  10  15
BRANCH   1  17
ATOM     17  O   UNL     1       0.031   3.768   0.606  0.00  0.00    -0.450 OA
BRANCH  17  19
ATOM     18  C   UNL     1       1.421   5.689   1.161  0.00  0.00    +0.048 C 
ATOM     19  C   UNL     1       0.031   5.059   1.269  0.00  0.00    +0.230 C 
ENDBRANCH  17  19
ENDBRANCH   1  17
BRANCH   8  20
ATOM     20  C   UNL     1      -5.844  -2.704   0.482  0.00  0.00    +0.268 C 
BRANCH  20  21
ATOM     21  O   UNL     1      -7.175  -3.218   0.563  0.00  0.00    -0.457 OA
BRANCH  21  22
ATOM     22  C   UNL     1      -7.309  -4.557   0.654  0.00  0.00    +0.332 C 
ATOM     23  O   UNL     1      -6.322  -5.269   0.665  0.00  0.00    -0.246 OA
BRANCH  22  24
ATOM     24  C   UNL     1      -8.601  -5.136   0.738  0.00  0.00    +0.092 C 
ATOM     25  C   UNL     1      -8.735  -6.477   0.830  0.00  0.00    +0.015 C 
BRANCH  25  26
ATOM     26  C   UNL     1     -10.074  -7.077   0.917  0.00  0.00    -0.018 A 
ATOM     27  C   UNL     1     -11.211  -6.260   0.910  0.00  0.00    +0.057 A 
ATOM     28  C   UNL     1     -12.468  -6.828   0.986  0.00  0.00    +0.166 A 
ATOM     29  C   UNL     1     -12.605  -8.211   1.081  0.00  0.00    +0.204 A 
ATOM     30  C   UNL     1     -11.476  -9.027   1.093  0.00  0.00    +0.166 A 
ATOM     31  C   UNL     1     -10.216  -8.466   1.012  0.00  0.00    +0.057 A 
BRANCH  30  32
ATOM     32  O   UNL     1     -11.614 -10.376   1.186  0.00  0.00    -0.491 OA
ATOM     33  C   UNL     1     -10.415 -11.153   1.194  0.00  0.00    +0.277 C 
ENDBRANCH  30  32
BRANCH  29  34
ATOM     34  O   UNL     1     -13.843  -8.765   1.161  0.00  0.00    -0.488 OA
ATOM     35  C   UNL     1     -14.388  -8.948   2.470  0.00  0.00    +0.277 C 
ENDBRANCH  29  34
BRANCH  28  36
ATOM     36  O   UNL     1     -13.573  -6.035   0.975  0.00  0.00    -0.491 OA
ATOM     37  C   UNL     1     -13.359  -4.626   0.876  0.00  0.00    +0.277 C 
ENDBRANCH  28  36
ENDBRANCH  25  26
ENDBRANCH  22  24
ENDBRANCH  21  22
ENDBRANCH  20  21
ENDBRANCH   8  20
TORSDOF 11
