REMARK  Name = ZINC15067250
REMARK  6 active torsions:
REMARK  status: ('A' for Active; 'I' for Inactive)
REMARK    1  A    between atoms: C_4  and  C_7
REMARK    2  A    between atoms: C_7  and  N_59
REMARK    3  A    between atoms: C_13  and  C_15
REMARK    4  A    between atoms: C_15  and  C_16
REMARK    5  A    between atoms: C_21  and  O_24
REMARK    6  A    between atoms: O_24  and  C_25
REMARK                            x       y       z     vdW  Elec       q    Type
REMARK                         _______ _______ _______ _____ _____    ______ ____
ROOT
ATOM      1  C   UNL     1       6.971  -0.159  -1.062  0.00  0.00    +0.090 C 
ENDROOT
BRANCH   1   7
ATOM      2  C   UNL     1       5.134  -3.334  -1.863  0.00  0.00    -0.058 C 
ATOM      3  C   UNL     1       3.744  -2.849  -1.450  0.00  0.00    +0.085 C 
ATOM      4  N   UNL     1       3.620  -1.415  -1.696  0.00  0.00    -0.318 N 
ATOM      5  C   UNL     1       4.677  -0.614  -1.869  0.00  0.00    +0.200 C 
ATOM      6  O   UNL     1       4.485   0.572  -2.039  0.00  0.00    -0.278 OA
ATOM      7  C   UNL     1       6.091  -1.121  -1.863  0.00  0.00    +0.028 C 
ATOM      8  H   UNL     1       2.732  -1.026  -1.737  0.00  0.00    +0.149 HD
ATOM      9  N   UNL     1       6.134  -2.452  -1.229  0.00  0.00    +0.391 N 
ATOM     10  H   UNL     1       5.912  -2.356  -0.231  0.00  0.00    -0.080 HD
BRANCH   9  11
ATOM     11  C   UNL     1       7.488  -3.035  -1.367  0.00  0.00    -0.042 C 
BRANCH  11  15
ATOM     12  C   UNL     1       7.857  -6.329   1.328  0.00  0.00    +0.000 A 
ATOM     13  C   UNL     1       8.193  -5.054   1.744  0.00  0.00    +0.000 A 
ATOM     14  C   UNL     1       8.072  -3.988   0.872  0.00  0.00    +0.002 A 
ATOM     15  C   UNL     1       7.618  -4.197  -0.416  0.00  0.00    -0.064 A 
ATOM     16  C   UNL     1       7.283  -5.472  -0.833  0.00  0.00    +0.002 A 
ATOM     17  C   UNL     1       7.402  -6.538   0.040  0.00  0.00    +0.000 A 
ENDBRANCH  11  15
ENDBRANCH   9  11
ENDBRANCH   1   7
BRANCH   1  18
ATOM     18  C   UNL     1       6.503  -0.124   0.370  0.00  0.00    +0.214 C 
ATOM     19  O   UNL     1       5.617  -0.867   0.737  0.00  0.00    -0.276 OA
ATOM     20  N   UNL     1       7.067   0.734   1.243  0.00  0.00    -0.301 N 
ATOM     21  C   UNL     1       8.145   1.636   0.816  0.00  0.00    +0.111 C 
ATOM     22  C   UNL     1       7.755   3.074   1.187  0.00  0.00    +0.063 C 
ATOM     23  C   UNL     1       7.436   3.141   2.682  0.00  0.00    +0.176 C 
ATOM     24  C   UNL     1       6.251   2.224   2.994  0.00  0.00    +0.063 C 
ATOM     25  C   UNL     1       6.621   0.780   2.642  0.00  0.00    +0.111 C 
BRANCH  23  26
ATOM     26  O   UNL     1       7.106   4.484   3.039  0.00  0.00    -0.487 OA
BRANCH  26  27
ATOM     27  C   UNL     1       8.141   5.320   3.320  0.00  0.00    +0.139 A 
ATOM     28  C   UNL     1       9.448   4.888   3.153  0.00  0.00    +0.047 A 
ATOM     29  C   UNL     1      10.498   5.739   3.439  0.00  0.00    +0.004 A 
ATOM     30  C   UNL     1      10.247   7.022   3.891  0.00  0.00    +0.002 A 
ATOM     31  C   UNL     1       8.945   7.456   4.058  0.00  0.00    +0.023 A 
ATOM     32  C   UNL     1       7.891   6.610   3.768  0.00  0.00    +0.083 A 
ATOM     33 CL   UNL     1       6.256   7.158   3.971  0.00  0.00    -0.080 Cl
ENDBRANCH  26  27
ENDBRANCH  23  26
ENDBRANCH   1  18
TORSDOF 6
