REMARK  Name = ZINC11163151
REMARK  7 active torsions:
REMARK  status: ('A' for Active; 'I' for Inactive)
REMARK    1  A    between atoms: C_1  and  C_2
REMARK    2  A    between atoms: C_4  and  N_7
REMARK    3  A    between atoms: C_8  and  C_10
REMARK    4  A    between atoms: C_10  and  S_11
REMARK    5  A    between atoms: S_11  and  C_12
REMARK    6  A    between atoms: C_17  and  C_19
REMARK    7  A    between atoms: N_27  and  C_28
REMARK                            x       y       z     vdW  Elec       q    Type
REMARK                         _______ _______ _______ _____ _____    ______ ____
ROOT
ATOM      1  C   UNL     1      -5.426   0.831   0.717  0.00  0.00    +0.178 A 
ATOM      2  N   UNL     1      -5.192  -0.467   0.727  0.00  0.00    -0.215 NA
ATOM      3  C   UNL     1      -5.988  -1.308   0.083  0.00  0.00    +0.117 A 
ATOM      4  C   UNL     1      -7.117  -0.869  -0.640  0.00  0.00    +0.073 A 
ATOM      5  C   UNL     1      -7.865  -1.879  -1.271  0.00  0.00    +0.031 A 
ATOM      6  C   UNL     1      -7.482  -3.175  -1.158  0.00  0.00    +0.022 A 
ATOM      7  S   UNL     1      -6.018  -3.069  -0.142  0.00  0.00    -0.068 S 
ATOM      8  C   UNL     1      -7.346   0.545  -0.633  0.00  0.00    +0.267 A 
ATOM      9  O   UNL     1      -8.297   1.020  -1.230  0.00  0.00    -0.267 OA
ATOM     10  N   UNL     1      -6.501   1.343   0.046  0.00  0.00    -0.255 N 
ENDROOT
BRANCH   6  11
ATOM     11  C   UNL     1      -8.118  -4.378  -1.734  0.00  0.00    -0.011 A 
ATOM     12  C   UNL     1      -9.275  -4.257  -2.506  0.00  0.00    +0.009 A 
ATOM     13  C   UNL     1      -9.861  -5.383  -3.046  0.00  0.00    +0.001 A 
ATOM     14  C   UNL     1      -9.312  -6.632  -2.813  0.00  0.00    +0.000 A 
ATOM     15  C   UNL     1      -8.168  -6.759  -2.044  0.00  0.00    +0.001 A 
ATOM     16  C   UNL     1      -7.569  -5.640  -1.504  0.00  0.00    +0.009 A 
ENDBRANCH   6  11
BRANCH  10  17
ATOM     17  C   UNL     1      -6.725   2.726   0.060  0.00  0.00    +0.052 A 
ATOM     18  C   UNL     1      -7.513   3.292   1.053  0.00  0.00    +0.026 A 
ATOM     19  C   UNL     1      -7.727   4.657   1.068  0.00  0.00    +0.002 A 
ATOM     20  C   UNL     1      -7.167   5.457   0.090  0.00  0.00    +0.000 A 
ATOM     21  C   UNL     1      -6.385   4.895  -0.903  0.00  0.00    +0.002 A 
ATOM     22  C   UNL     1      -6.163   3.532  -0.921  0.00  0.00    +0.026 A 
ENDBRANCH  10  17
BRANCH   1  23
ATOM     23  S   UNL     1      -4.345   1.917   1.585  0.00  0.00    -0.078 S 
BRANCH  23  24
ATOM     24  C   UNL     1      -3.165   0.718   2.254  0.00  0.00    +0.173 C 
BRANCH  24  26
ATOM     25  N   UNL     1      -1.127   0.747   3.655  0.00  0.00    -0.254 N 
ATOM     26  C   UNL     1      -2.116   1.441   3.058  0.00  0.00    +0.230 C 
ATOM     27  O   UNL     1      -2.160   2.648   3.168  0.00  0.00    -0.274 OA
ATOM     28  H   UNL     1      -1.091  -0.219   3.568  0.00  0.00    +0.158 HD
BRANCH  25  32
ATOM     29  C   UNL     1       2.812   1.918   6.466  0.00  0.00    +0.069 C 
ATOM     30  C   UNL     1       1.564   1.956   5.622  0.00  0.00    +0.082 A 
ATOM     31  C   UNL     1       0.902   0.854   5.045  0.00  0.00    +0.092 A 
ATOM     32  C   UNL     1      -0.158   1.413   4.391  0.00  0.00    +0.224 A 
ATOM     33  O   UNL     1      -0.070   2.736   4.596  0.00  0.00    -0.339 OA
ATOM     34  N   UNL     1       0.885   3.016   5.284  0.00  0.00    -0.081 NA
ENDBRANCH  25  32
ENDBRANCH  24  26
ENDBRANCH  23  24
ENDBRANCH   1  23
TORSDOF 6
