REMARK  Name = ZINC39700530
REMARK  10 active torsions:
REMARK  status: ('A' for Active; 'I' for Inactive)
REMARK    1  A    between atoms: C_1  and  C_2
REMARK    2  A    between atoms: C_9  and  N_19
REMARK    3  A    between atoms: C_10  and  C_11
REMARK    4  A    between atoms: N_13  and  C_14
REMARK    5  A    between atoms: N_17  and  C_18
REMARK    6  A    between atoms: C_20  and  C_22
REMARK    7  A    between atoms: C_25  and  S_28
REMARK    8  A    between atoms: S_28  and  N_31
REMARK    9  A    between atoms: N_31  and  C_32
REMARK   10  A    between atoms: N_31  and  C_33
REMARK                            x       y       z     vdW  Elec       q    Type
REMARK                         _______ _______ _______ _____ _____    ______ ____
ROOT
ATOM      1  C   UNL     1      -0.019   1.526   0.010  0.00  0.00    +0.008 C 
ATOM      2  C   UNL     1       0.002  -0.004   0.002  0.00  0.00    -0.009 C 
ATOM      3  C   UNL     1       0.724  -0.500  -1.254  0.00  0.00    +0.008 C 
ATOM      4  C   UNL     1       0.537  -2.012  -1.399  0.00  0.00    +0.037 C 
ATOM      5  C   UNL     1       0.935  -2.680  -0.091  0.00  0.00    -0.023 A 
ATOM      6  C   UNL     1       1.019  -1.977   1.059  0.00  0.00    -0.004 A 
ATOM      7  S   UNL     1       1.507  -3.164   2.276  0.00  0.00    -0.077 S 
ATOM      8  C   UNL     1       1.599  -4.539   1.316  0.00  0.00    +0.085 A 
ATOM      9  C   UNL     1       1.254  -4.091   0.050  0.00  0.00    +0.069 A 
ATOM     10  C   UNL     1       0.750  -0.515   1.242  0.00  0.00    +0.046 C 
ENDROOT
BRANCH   9  11
ATOM     11  C   UNL     1       1.212  -5.001  -1.097  0.00  0.00    +0.256 C 
ATOM     12  O   UNL     1       2.208  -5.170  -1.776  0.00  0.00    -0.269 OA
ATOM     13  N   UNL     1       0.071  -5.651  -1.401  0.00  0.00    -0.225 N 
ATOM     14  C   UNL     1      -1.128  -5.447  -0.584  0.00  0.00    +0.143 C 
ATOM     15  C   UNL     1       0.033  -6.488  -2.457  0.00  0.00    +0.308 C 
ATOM     16  O   UNL     1       1.028  -6.657  -3.134  0.00  0.00    -0.252 OA
ATOM     17  N   UNL     1      -1.108  -7.138  -2.760  0.00  0.00    -0.302 N 
ATOM     18  C   UNL     1      -1.149  -8.048  -3.907  0.00  0.00    +0.129 C 
ATOM     19  H   UNL     1      -1.902  -7.003  -2.219  0.00  0.00    +0.150 HD
ENDBRANCH   9  11
BRANCH   8  20
ATOM     20  N   UNL     1       1.941  -5.825   1.701  0.00  0.00    -0.275 N 
ATOM     21  C   UNL     1       2.251  -6.084   2.986  0.00  0.00    +0.249 C 
ATOM     22  O   UNL     1       2.231  -5.189   3.809  0.00  0.00    -0.270 OA
ATOM     23  H   UNL     1       1.957  -6.539   1.044  0.00  0.00    +0.156 HD
BRANCH  21  24
ATOM     24  C   UNL     1       2.616  -7.456   3.397  0.00  0.00    +0.037 A 
ATOM     25  C   UNL     1       2.646  -8.485   2.454  0.00  0.00    +0.015 A 
ATOM     26  C   UNL     1       2.988  -9.763   2.843  0.00  0.00    +0.029 A 
ATOM     27  C   UNL     1       3.300 -10.027   4.165  0.00  0.00    +0.105 A 
ATOM     28  C   UNL     1       3.271  -9.012   5.105  0.00  0.00    +0.029 A 
ATOM     29  C   UNL     1       2.938  -7.728   4.728  0.00  0.00    +0.015 A 
BRANCH  27  30
ATOM     30  S   UNL     1       3.734 -11.663   4.654  0.00  0.00    +0.060 S 
ATOM     31  O   UNL     1       3.452 -11.760   6.044  0.00  0.00    -0.153 OA
ATOM     32  O   UNL     1       3.157 -12.540   3.697  0.00  0.00    -0.153 OA
BRANCH  30  33
ATOM     33  N   UNL     1       5.377 -11.802   4.495  0.00  0.00    -0.183 NA
ATOM     34  C   UNL     1       6.253 -11.466   5.619  0.00  0.00    +0.131 C 
ATOM     35  C   UNL     1       5.953 -12.261   3.228  0.00  0.00    +0.131 C 
ENDBRANCH  30  33
ENDBRANCH  27  30
ENDBRANCH  21  24
ENDBRANCH   8  20
TORSDOF 5
