REMARK  Name = ZINC38884145
REMARK  12 active torsions:
REMARK  status: ('A' for Active; 'I' for Inactive)
REMARK    1  A    between atoms: C_1  and  C_2
REMARK    2  A    between atoms: C_2  and  C_3
REMARK    3  A    between atoms: C_3  and  O_4
REMARK    4  A    between atoms: O_4  and  C_5
REMARK    5  A    between atoms: C_10  and  C_11
REMARK    6  A    between atoms: C_11  and  C_12
REMARK    7  A    between atoms: C_12  and  C_13
REMARK    8  A    between atoms: C_13  and  N_14
REMARK    9  A    between atoms: C_15  and  C_17
REMARK   10  A    between atoms: N_20  and  C_23
REMARK   11  A    between atoms: C_23  and  C_24
REMARK   12  A    between atoms: C_26  and  C_29
REMARK                            x       y       z     vdW  Elec       q    Type
REMARK                         _______ _______ _______ _____ _____    ______ ____
ROOT
ATOM      1  C   UNL     1      -4.981  -6.885  -0.149  0.00  0.00    +0.071 C 
ATOM      2  C   UNL     1      -5.675  -5.520  -0.183  0.00  0.00    -0.006 C 
ATOM      3  C   UNL     1      -7.179  -5.723  -0.381  0.00  0.00    -0.077 C 
ATOM      4  N   UNL     1      -7.718  -6.521   0.728  0.00  0.00    +0.386 N 
ATOM      5  C   UNL     1      -7.109  -7.857   0.722  0.00  0.00    -0.077 C 
ATOM      6  C   UNL     1      -5.602  -7.735   0.962  0.00  0.00    -0.006 C 
ATOM      7  H   UNL     1      -7.512  -6.062   1.602  0.00  0.00    -0.081 HD
ENDROOT
BRANCH   1   9
ATOM      8  N   UNL     1      -2.755  -5.976  -0.729  0.00  0.00    -0.315 N 
ATOM      9  C   UNL     1      -3.511  -6.696   0.123  0.00  0.00    +0.216 C 
ATOM     10  O   UNL     1      -3.008  -7.192   1.109  0.00  0.00    -0.276 OA
ATOM     11  H   UNL     1      -3.157  -5.579  -1.518  0.00  0.00    +0.149 HD
BRANCH   8  12
ATOM     12  C   UNL     1      -1.326  -5.792  -0.465  0.00  0.00    +0.104 C 
BRANCH  12  13
ATOM     13  C   UNL     1      -0.706  -4.942  -1.576  0.00  0.00    +0.023 C 
BRANCH  13  14
ATOM     14  C   UNL     1       0.786  -4.750  -1.300  0.00  0.00    +0.040 C 
BRANCH  14  20
ATOM     15  C   UNL     1       1.341  -2.529  -2.322  0.00  0.00    +0.124 A 
ATOM     16  C   UNL     1       1.909  -1.762  -3.329  0.00  0.00    +0.046 A 
ATOM     17  C   UNL     1       2.522  -2.377  -4.403  0.00  0.00    +0.004 A 
ATOM     18  C   UNL     1       2.571  -3.757  -4.475  0.00  0.00    +0.000 A 
ATOM     19  C   UNL     1       2.006  -4.524  -3.473  0.00  0.00    +0.007 A 
ATOM     20  C   UNL     1       1.396  -3.913  -2.394  0.00  0.00    -0.006 A 
BRANCH  15  21
ATOM     21  O   UNL     1       0.738  -1.926  -1.265  0.00  0.00    -0.492 OA
BRANCH  21  22
ATOM     22  C   UNL     1       0.718  -0.497  -1.257  0.00  0.00    +0.229 C 
BRANCH  22  24
ATOM     23  C   UNL     1      -0.019   1.526   0.010  0.00  0.00    +0.007 C 
ATOM     24  C   UNL     1       0.002  -0.004   0.002  0.00  0.00    +0.038 C 
ENDBRANCH  22  24
ENDBRANCH  21  22
ENDBRANCH  15  21
ENDBRANCH  14  20
ENDBRANCH  13  14
ENDBRANCH  12  13
ENDBRANCH   8  12
ENDBRANCH   1   9
BRANCH   4  25
ATOM     25  C   UNL     1      -9.173  -6.648   0.575  0.00  0.00    +0.022 C 
BRANCH  25  26
ATOM     26  C   UNL     1      -9.744  -7.360   1.774  0.00  0.00    +0.211 A 
ATOM     27  N   UNL     1     -10.169  -6.791   2.865  0.00  0.00    -0.192 NA
ATOM     28  C   UNL     1     -10.613  -7.724   3.729  0.00  0.00    +0.209 A 
ATOM     29  N   UNL     1     -10.468  -8.907   3.177  0.00  0.00    -0.056 NA
ATOM     30  O   UNL     1      -9.905  -8.684   1.893  0.00  0.00    -0.340 OA
BRANCH  28  31
ATOM     31  C   UNL     1     -11.169  -7.461   5.072  0.00  0.00    +0.060 A 
ATOM     32  C   UNL     1     -11.633  -8.352   6.004  0.00  0.00    +0.019 A 
ATOM     33  C   UNL     1     -12.110  -7.869   7.201  0.00  0.00    +0.008 A 
ATOM     34  C   UNL     1     -12.108  -6.528   7.422  0.00  0.00    +0.046 A 
ATOM     35  S   UNL     1     -11.405  -5.900   5.906  0.00  0.00    -0.093 S 
ENDBRANCH  28  31
ENDBRANCH  25  26
ENDBRANCH   4  25
TORSDOF 11
