REMARK  Name = ZINC38576857
REMARK  6 active torsions:
REMARK  status: ('A' for Active; 'I' for Inactive)
REMARK    1  A    between atoms: C_1  and  C_2
REMARK    2  A    between atoms: C_6  and  S_8
REMARK    3  A    between atoms: S_8  and  C_11
REMARK    4  A    between atoms: N_23  and  N_27
REMARK    5  A    between atoms: C_24  and  N_26
REMARK    6  A    between atoms: C_28  and  C_29
REMARK                            x       y       z     vdW  Elec       q    Type
REMARK                         _______ _______ _______ _____ _____    ______ ____
ROOT
ATOM      1  C   UNL     1       1.513  -3.392   3.192  0.00  0.00    +0.224 C 
ATOM      2  C   UNL     1       2.216  -2.065   3.002  0.00  0.00    +0.111 A 
ATOM      3  C   UNL     1       2.865  -1.736   4.202  0.00  0.00    +0.166 A 
ATOM      4  N   UNL     1       3.557  -0.606   4.285  0.00  0.00    -0.227 NA
ATOM      5  C   UNL     1       3.635   0.211   3.232  0.00  0.00    +0.091 A 
ATOM      6  C   UNL     1       4.365   1.412   3.298  0.00  0.00    +0.030 A 
ATOM      7  C   UNL     1       4.427   2.224   2.208  0.00  0.00    +0.002 A 
ATOM      8  C   UNL     1       3.778   1.886   1.022  0.00  0.00    +0.002 A 
ATOM      9  C   UNL     1       3.063   0.732   0.921  0.00  0.00    +0.030 A 
ATOM     10  C   UNL     1       2.976  -0.133   2.025  0.00  0.00    +0.090 A 
ATOM     11  N   UNL     1       2.281  -1.274   1.957  0.00  0.00    -0.245 NA
ATOM     12  N   UNL     1       2.664  -2.708   5.171  0.00  0.00    -0.186 N 
ATOM     13  C   UNL     1       1.831  -3.793   4.642  0.00  0.00    +0.195 C 
ENDROOT
BRANCH   1  14
ATOM     14  S   UNL     1      -0.277  -3.198   2.967  0.00  0.00    +0.008 S 
ATOM     15  O   UNL     1      -0.750  -2.099   3.732  0.00  0.00    -0.169 OA
ATOM     16  O   UNL     1      -0.919  -4.463   3.041  0.00  0.00    -0.169 OA
BRANCH  14  22
ATOM     17  C   UNL     1      -0.611   0.511  -0.701  0.00  0.00    +0.044 C 
ATOM     18  C   UNL     1      -0.617  -0.954  -0.349  0.00  0.00    -0.049 A 
ATOM     19  C   UNL     1      -0.773  -1.903  -1.342  0.00  0.00    +0.003 A 
ATOM     20  C   UNL     1      -0.779  -3.247  -1.020  0.00  0.00    +0.002 A 
ATOM     21  C   UNL     1      -0.627  -3.642   0.296  0.00  0.00    +0.027 A 
ATOM     22  C   UNL     1      -0.469  -2.694   1.289  0.00  0.00    +0.089 A 
ATOM     23  C   UNL     1      -0.460  -1.350   0.966  0.00  0.00    +0.030 A 
ENDBRANCH  14  22
ENDBRANCH   1  14
BRANCH  13  24
ATOM     24  N   UNL     1       0.591  -3.909   5.421  0.00  0.00    -0.309 NA
ATOM     25  H   UNL     1       0.773  -4.291   6.337  0.00  0.00    +0.120 HD
ATOM     26  H   UNL     1       0.121  -3.019   5.487  0.00  0.00    +0.120 HD
ENDBRANCH  13  24
BRANCH  12  27
ATOM     27  N   UNL     1       3.144  -2.665   6.368  0.00  0.00    -0.185 NA
ATOM     28  C   UNL     1       2.987  -3.688   7.175  0.00  0.00    +0.136 C 
BRANCH  28  29
ATOM     29  C   UNL     1       3.399  -3.597   8.507  0.00  0.00    +0.000 C 
ATOM     30  C   UNL     1       3.310  -4.587   9.488  0.00  0.00    +0.004 A 
ATOM     31  C   UNL     1       2.814  -5.907   9.467  0.00  0.00    +0.010 A 
ATOM     32  C   UNL     1       2.856  -6.660  10.596  0.00  0.00    +0.001 A 
ATOM     33  C   UNL     1       3.380  -6.160  11.790  0.00  0.00    +0.002 A 
ATOM     34  C   UNL     1       3.873  -4.901  11.883  0.00  0.00    +0.026 A 
ATOM     35  C   UNL     1       3.865  -4.054  10.743  0.00  0.00    +0.043 A 
ATOM     36  N   UNL     1       4.277  -2.814  10.576  0.00  0.00    -0.380 N 
ATOM     37  C   UNL     1       4.041  -2.408   9.187  0.00  0.00    +0.150 C 
ATOM     38  H   UNL     1       4.679  -2.258  11.262  0.00  0.00    +0.160 HD
ENDBRANCH  28  29
ENDBRANCH  12  27
TORSDOF 5
