REMARK  Name = ZINC54744520
REMARK  4 active torsions:
REMARK  status: ('A' for Active; 'I' for Inactive)
REMARK    1  A    between atoms: C_1  and  N_2
REMARK    2  A    between atoms: N_2  and  C_3
REMARK    3  A    between atoms: C_3  and  C_4
REMARK    4  A    between atoms: N_8  and  C_9
REMARK                            x       y       z     vdW  Elec       q    Type
REMARK                         _______ _______ _______ _____ _____    ______ ____
ROOT
ATOM      1  C   UNL     1       0.265  -2.053  -1.000  0.00  0.00    +0.140 A 
ATOM      2  N   UNL     1       1.208  -2.875  -0.620  0.00  0.00    -0.115 NA
ATOM      3  N   UNL     1       1.107  -3.997  -1.237  0.00  0.00    -0.023 NA
ATOM      4  N   UNL     1       0.102  -3.971  -2.046  0.00  0.00    -0.039 NA
ATOM      5  N   UNL     1      -0.487  -2.701  -1.915  0.00  0.00    -0.197 N 
ENDROOT
BRANCH   5   6
ATOM      6  C   UNL     1      -1.614  -2.211  -2.593  0.00  0.00    +0.097 A 
ATOM      7  C   UNL     1      -1.498  -1.106  -3.426  0.00  0.00    +0.045 A 
ATOM      8  C   UNL     1      -2.610  -0.626  -4.093  0.00  0.00    +0.032 A 
ATOM      9  C   UNL     1      -3.837  -1.244  -3.930  0.00  0.00    +0.020 A 
ATOM     10  C   UNL     1      -3.954  -2.345  -3.100  0.00  0.00    +0.032 A 
ATOM     11  C   UNL     1      -2.845  -2.834  -2.436  0.00  0.00    +0.045 A 
ATOM     12 BR   UNL     1      -3.006  -4.343  -1.308  0.00  0.00    -0.048 Br
ATOM     13 BR   UNL     1      -5.355  -0.584  -4.843  0.00  0.00    -0.050 Br
ATOM     14 BR   UNL     1       0.178  -0.260  -3.649  0.00  0.00    -0.048 Br
ENDBRANCH   5   6
BRANCH   1  15
ATOM     15  C   UNL     1       0.053  -0.646  -0.503  0.00  0.00    -0.003 C 
BRANCH  15  17
ATOM     16  C   UNL     1      -0.896   0.690   1.249  0.00  0.00    -0.100 C 
ATOM     17  N   UNL     1      -0.726  -0.678   0.742  0.00  0.00    +0.382 N 
ATOM     18  H   UNL     1      -0.239  -1.234   1.429  0.00  0.00    -0.086 HD
ATOM     19  H   UNL     1      -1.631  -1.085   0.561  0.00  0.00    -0.086 HD
ENDBRANCH  15  17
ENDBRANCH   1  15
TORSDOF 3
