REMARK  Name = ZINC33175441
REMARK  5 active torsions:
REMARK  status: ('A' for Active; 'I' for Inactive)
REMARK    1  A    between atoms: C_1  and  C_2
REMARK    2  A    between atoms: C_6  and  N_8
REMARK    3  A    between atoms: C_22  and  C_25
REMARK    4  A    between atoms: N_27  and  C_28
REMARK    5  A    between atoms: C_28  and  C_29
REMARK                            x       y       z     vdW  Elec       q    Type
REMARK                         _______ _______ _______ _____ _____    ______ ____
ROOT
ATOM      1  N   UNL     1       4.594   3.871   0.585  0.00  0.00    -0.248 N 
ATOM      2  C   UNL     1       4.565   5.221   0.697  0.00  0.00    +0.274 A 
ATOM      3  O   UNL     1       5.433   5.816   1.312  0.00  0.00    -0.266 OA
ATOM      4  C   UNL     1       3.522   5.911   0.086  0.00  0.00    +0.103 A 
ATOM      5  C   UNL     1       2.509   5.240  -0.623  0.00  0.00    +0.087 A 
ATOM      6  C   UNL     1       1.519   6.060  -1.181  0.00  0.00    +0.036 A 
ATOM      7  C   UNL     1       1.576   7.399  -1.023  0.00  0.00    +0.048 A 
ATOM      8  S   UNL     1       3.060   7.618  -0.054  0.00  0.00    -0.090 S 
ATOM      9  N   UNL     1       2.617   3.873  -0.679  0.00  0.00    -0.215 NA
ATOM     10  C   UNL     1       3.602   3.236  -0.107  0.00  0.00    +0.206 A 
ATOM     11  N   UNL     1       3.643   1.866  -0.206  0.00  0.00    -0.300 N 
ATOM     12  C   UNL     1       2.933   1.403  -1.405  0.00  0.00    +0.108 C 
ATOM     13  C   UNL     1       3.122  -0.107  -1.561  0.00  0.00    +0.020 C 
ATOM     14  C   UNL     1       2.578  -0.816  -0.318  0.00  0.00    +0.016 C 
ATOM     15  C   UNL     1       3.300  -0.281   0.922  0.00  0.00    +0.092 C 
ATOM     16  C   UNL     1       3.106   1.234   1.006  0.00  0.00    +0.120 C 
ENDROOT
BRANCH   1  22
ATOM     17  C   UNL     1       6.865   2.272   4.644  0.00  0.00    +0.044 C 
ATOM     18  C   UNL     1       6.751   2.342   3.143  0.00  0.00    -0.048 A 
ATOM     19  C   UNL     1       7.664   1.672   2.349  0.00  0.00    +0.003 A 
ATOM     20  C   UNL     1       7.566   1.738   0.971  0.00  0.00    +0.002 A 
ATOM     21  C   UNL     1       6.549   2.465   0.384  0.00  0.00    +0.026 A 
ATOM     22  C   UNL     1       5.628   3.134   1.178  0.00  0.00    +0.053 A 
ATOM     23  C   UNL     1       5.732   3.070   2.561  0.00  0.00    +0.029 A 
ENDBRANCH   1  22
BRANCH  15  24
ATOM     24  C   UNL     1       2.729  -0.931   2.156  0.00  0.00    +0.218 C 
ATOM     25  O   UNL     1       2.220  -0.249   3.020  0.00  0.00    -0.275 OA
ATOM     26  N   UNL     1       2.785  -2.270   2.300  0.00  0.00    -0.308 N 
ATOM     27  H   UNL     1       3.247  -2.889   1.516  0.00  0.00    +0.149 HD
BRANCH  26  28
ATOM     28  C   UNL     1       2.230  -2.901   3.500  0.00  0.00    +0.178 C 
BRANCH  28  29
ATOM     29  C   UNL     1       2.417  -4.394   3.414  0.00  0.00    +0.122 A 
ATOM     30  C   UNL     1       3.485  -5.080   3.861  0.00  0.00    +0.046 A 
ATOM     31  C   UNL     1       3.243  -6.444   3.581  0.00  0.00    +0.041 A 
ATOM     32  C   UNL     1       2.045  -6.510   2.972  0.00  0.00    +0.195 A 
ATOM     33  O   UNL     1       1.550  -5.265   2.873  0.00  0.00    -0.466 OA
ENDBRANCH  28  29
ENDBRANCH  26  28
ENDBRANCH  15  24
TORSDOF 4
