REMARK  Name = ZINC41352941
REMARK  6 active torsions:
REMARK  status: ('A' for Active; 'I' for Inactive)
REMARK    1  A    between atoms: C_1  and  C_2
REMARK    2  A    between atoms: C_2  and  O_3
REMARK    3  A    between atoms: O_3  and  C_4
REMARK    4  A    between atoms: C_9  and  C_10
REMARK    5  A    between atoms: C_12  and  O_13
REMARK    6  A    between atoms: C_22  and  C_24
REMARK                            x       y       z     vdW  Elec       q    Type
REMARK                         _______ _______ _______ _____ _____    ______ ____
ROOT
ATOM      1  C   UNL     1      -4.043  -1.987   0.697  0.00  0.00    +0.143 A 
ATOM      2  C   UNL     1      -3.812  -0.663   1.019  0.00  0.00    +0.093 A 
ATOM      3  C   UNL     1      -4.874   0.240   1.035  0.00  0.00    +0.131 A 
ATOM      4  C   UNL     1      -6.170  -0.239   0.717  0.00  0.00    +0.059 A 
ATOM      5  C   UNL     1      -7.276   0.627   0.718  0.00  0.00    +0.017 A 
ATOM      6  C   UNL     1      -8.512   0.151   0.410  0.00  0.00    +0.024 A 
ATOM      7  C   UNL     1      -8.690  -1.207   0.090  0.00  0.00    +0.037 A 
ATOM      8  C   UNL     1      -7.599  -2.079   0.086  0.00  0.00    +0.070 A 
ATOM      9  C   UNL     1      -6.339  -1.603   0.398  0.00  0.00    +0.141 A 
ATOM     10  O   UNL     1      -5.272  -2.430   0.392  0.00  0.00    -0.454 OA
ATOM     11  N   UNL     1      -9.929  -1.672  -0.215  0.00  0.00    -0.279 N 
ATOM     12  C   UNL     1     -10.069  -2.859  -0.794  0.00  0.00    +0.284 C 
ATOM     13  O   UNL     1      -9.083  -3.478  -1.163  0.00  0.00    -0.266 OA
ATOM     14  H   UNL     1     -10.712  -1.137  -0.011  0.00  0.00    +0.155 HD
ENDROOT
BRANCH  12  15
ATOM     15  C   UNL     1     -11.415  -3.430  -0.991  0.00  0.00    +0.191 A 
ATOM     16  C   UNL     1     -11.676  -4.631  -1.562  0.00  0.00    +0.063 A 
ATOM     17  C   UNL     1     -13.132  -4.780  -1.546  0.00  0.00    +0.021 A 
ATOM     18  C   UNL     1     -14.014  -5.773  -1.977  0.00  0.00    +0.011 A 
ATOM     19  C   UNL     1     -15.360  -5.602  -1.811  0.00  0.00    +0.001 A 
ATOM     20  C   UNL     1     -15.854  -4.449  -1.217  0.00  0.00    +0.004 A 
ATOM     21  C   UNL     1     -15.000  -3.458  -0.785  0.00  0.00    +0.047 A 
ATOM     22  C   UNL     1     -13.627  -3.610  -0.942  0.00  0.00    +0.136 A 
ATOM     23  O   UNL     1     -12.570  -2.838  -0.623  0.00  0.00    -0.450 OA
ENDBRANCH  12  15
BRANCH   1  29
ATOM     24  C   UNL     1      -3.142  -4.303   0.492  0.00  0.00    +0.131 A 
ATOM     25  C   UNL     1      -2.070  -5.182   0.474  0.00  0.00    +0.046 A 
ATOM     26  C   UNL     1      -0.784  -4.709   0.650  0.00  0.00    +0.004 A 
ATOM     27  C   UNL     1      -0.554  -3.357   0.845  0.00  0.00    +0.001 A 
ATOM     28  C   UNL     1      -1.606  -2.468   0.865  0.00  0.00    +0.015 A 
ATOM     29  C   UNL     1      -2.913  -2.932   0.683  0.00  0.00    +0.059 A 
BRANCH  24  30
ATOM     30  O   UNL     1      -4.405  -4.766   0.319  0.00  0.00    -0.492 OA
BRANCH  30  32
ATOM     31  C   UNL     1      -6.044  -6.504  -0.046  0.00  0.00    +0.048 C 
ATOM     32  C   UNL     1      -4.560  -6.174   0.130  0.00  0.00    +0.226 C 
ENDBRANCH  30  32
ENDBRANCH  24  30
ENDBRANCH   1  29
BRANCH   3  33
ATOM     33  O   UNL     1      -4.673   1.539   1.346  0.00  0.00    -0.506 OA
ATOM     34  H   UNL     1      -3.753   1.758   1.546  0.00  0.00    +0.292 HD
ENDBRANCH   3  33
TORSDOF 5
