REMARK  Name = ZINC01218709
REMARK  7 active torsions:
REMARK  status: ('A' for Active; 'I' for Inactive)
REMARK    1  A    between atoms: C_1  and  C_2
REMARK    2  A    between atoms: C_5  and  N_8
REMARK    3  A    between atoms: C_12  and  C_31
REMARK    4  A    between atoms: C_13  and  N_17
REMARK    5  A    between atoms: C_18  and  C_20
REMARK    6  A    between atoms: C_21  and  C_22
REMARK    7  A    between atoms: C_26  and  N_28
REMARK                            x       y       z     vdW  Elec       q    Type
REMARK                         _______ _______ _______ _____ _____    ______ ____
ROOT
ATOM      1  N   UNL     1      -0.792  13.620   0.382  0.00  0.00    -0.149 N 
ATOM      2  N   UNL     1      -2.076  13.544   0.444  0.00  0.00    -0.147 NA
ATOM      3  C   UNL     1      -2.433  12.271   0.370  0.00  0.00    +0.114 A 
ATOM      4  C   UNL     1      -3.641  11.551   0.382  0.00  0.00    +0.037 A 
ATOM      5  C   UNL     1      -3.615  10.198   0.276  0.00  0.00    -0.027 A 
ATOM      6  C   UNL     1      -2.410   9.492   0.167  0.00  0.00    +0.039 A 
ATOM      7  C   UNL     1      -1.205  10.133   0.150  0.00  0.00    +0.055 A 
ATOM      8  C   UNL     1      -1.167  11.533   0.250  0.00  0.00    +0.115 A 
ATOM      9  N   UNL     1      -0.229  12.468   0.269  0.00  0.00    -0.147 NA
ATOM     10  C   UNL     1      -4.915   9.436   0.283  0.00  0.00    +0.046 C 
ENDROOT
BRANCH   1  15
ATOM     11  C   UNL     1       2.076  18.512   0.584  0.00  0.00    +0.044 C 
ATOM     12  C   UNL     1       1.315  17.213   0.531  0.00  0.00    -0.050 A 
ATOM     13  C   UNL     1       1.998  16.017   0.409  0.00  0.00    +0.005 A 
ATOM     14  C   UNL     1       1.303  14.825   0.359  0.00  0.00    +0.030 A 
ATOM     15  C   UNL     1      -0.084  14.828   0.433  0.00  0.00    +0.086 A 
ATOM     16  C   UNL     1      -0.768  16.031   0.551  0.00  0.00    +0.030 A 
ATOM     17  C   UNL     1      -0.066  17.219   0.605  0.00  0.00    +0.005 A 
ENDBRANCH   1  15
BRANCH   6  18
ATOM     18  N   UNL     1      -2.443   8.097   0.067  0.00  0.00    -0.282 N 
ATOM     19  C   UNL     1      -1.429   7.440  -0.531  0.00  0.00    +0.241 C 
ATOM     20  O   UNL     1      -0.536   8.064  -1.073  0.00  0.00    -0.270 OA
ATOM     21  H   UNL     1      -3.195   7.603   0.428  0.00  0.00    +0.155 HD
BRANCH  19  22
ATOM     22  C   UNL     1      -1.403   5.977  -0.528  0.00  0.00    +0.068 C 
ATOM     23  C   UNL     1      -0.389   5.320  -1.127  0.00  0.00    +0.013 C 
BRANCH  23  24
ATOM     24  C   UNL     1      -0.362   3.848  -1.124  0.00  0.00    -0.023 A 
ATOM     25  C   UNL     1      -1.387   3.128  -0.502  0.00  0.00    +0.008 A 
ATOM     26  C   UNL     1      -1.357   1.749  -0.508  0.00  0.00    +0.003 A 
ATOM     27  C   UNL     1      -0.312   1.078  -1.118  0.00  0.00    +0.033 A 
ATOM     28  C   UNL     1       0.706   1.784  -1.736  0.00  0.00    +0.127 A 
ATOM     29  C   UNL     1       0.688   3.163  -1.743  0.00  0.00    +0.040 A 
BRANCH  28  30
ATOM     30  N   UNL     1       1.817   1.057  -2.391  0.00  0.00    +0.056 N 
ATOM     31  O   UNL     1       1.834  -0.161  -2.385  0.00  0.00    -0.126 OA
ATOM     32  O   UNL     1       2.713   1.676  -2.935  0.00  0.00    -0.126 OA
ENDBRANCH  28  30
ENDBRANCH  23  24
ENDBRANCH  19  22
ENDBRANCH   6  18
TORSDOF 5
