REMARK  Name = ZINC03178174
REMARK  7 active torsions:
REMARK  status: ('A' for Active; 'I' for Inactive)
REMARK    1  A    between atoms: C_1  and  C_2
REMARK    2  A    between atoms: C_2  and  C_3
REMARK    3  A    between atoms: C_3  and  C_5
REMARK    4  A    between atoms: C_3  and  N_6
REMARK    5  A    between atoms: N_6  and  P_7
REMARK    6  A    between atoms: C_10  and  C_20
REMARK    7  A    between atoms: C_12  and  C_14
REMARK                            x       y       z     vdW  Elec       q    Type
REMARK                         _______ _______ _______ _____ _____    ______ ____
ROOT
ATOM      1  P   UNL     1       5.060   4.523  -0.157  0.00  0.00    +0.194 P 
ATOM      2  O   UNL     1       4.838   5.748   0.643  0.00  0.00    -0.296 OA
ATOM      3  C   UNL     1       6.444   3.583   0.541  0.00  0.00    +0.075 C 
ATOM      4  C   UNL     1       6.406   2.273   0.641  0.00  0.00    +0.025 C 
ATOM      5  S   UNL     1       5.104   1.230   0.138  0.00  0.00    -0.088 S 
ATOM      6  C   UNL     1       3.648   2.181   0.018  0.00  0.00    +0.025 C 
ATOM      7  C   UNL     1       3.574   3.486  -0.112  0.00  0.00    +0.075 C 
ENDROOT
BRANCH   6   8
ATOM      8  C   UNL     1       2.365   1.442   0.062  0.00  0.00    -0.011 A 
ATOM      9  C   UNL     1       1.327   1.891   0.877  0.00  0.00    +0.009 A 
ATOM     10  C   UNL     1       0.133   1.200   0.914  0.00  0.00    +0.001 A 
ATOM     11  C   UNL     1      -0.034   0.062   0.144  0.00  0.00    +0.000 A 
ATOM     12  C   UNL     1       0.993  -0.388  -0.667  0.00  0.00    +0.001 A 
ATOM     13  C   UNL     1       2.191   0.295  -0.712  0.00  0.00    +0.009 A 
ENDBRANCH   6   8
BRANCH   4  14
ATOM     14  C   UNL     1       7.589   1.617   1.244  0.00  0.00    -0.011 A 
ATOM     15  C   UNL     1       8.152   0.495   0.638  0.00  0.00    +0.009 A 
ATOM     16  C   UNL     1       9.258  -0.108   1.201  0.00  0.00    +0.001 A 
ATOM     17  C   UNL     1       9.802   0.392   2.371  0.00  0.00    +0.000 A 
ATOM     18  C   UNL     1       9.244   1.502   2.980  0.00  0.00    +0.001 A 
ATOM     19  C   UNL     1       8.141   2.117   2.423  0.00  0.00    +0.009 A 
ENDBRANCH   4  14
BRANCH   1  20
ATOM     20  N   UNL     1       5.406   4.939  -1.750  0.00  0.00    -0.258 NA
ATOM     21  H   UNL     1       6.274   5.450  -1.810  0.00  0.00    +0.130 HD
BRANCH  20  22
ATOM     22  C   UNL     1       4.303   5.704  -2.346  0.00  0.00    +0.057 C 
ATOM     23  C   UNL     1       4.588   7.201  -2.211  0.00  0.00    +0.024 C 
BRANCH  22  25
ATOM     24  C   UNL     1       3.764   3.873  -3.959  0.00  0.00    +0.005 C 
ATOM     25  C   UNL     1       4.172   5.341  -3.827  0.00  0.00    +0.015 C 
ENDBRANCH  22  25
ENDBRANCH  20  22
ENDBRANCH   1  20
TORSDOF 5
