REMARK  Name = ZINC38708290
REMARK  13 active torsions:
REMARK  status: ('A' for Active; 'I' for Inactive)
REMARK    1  A    between atoms: C_1  and  C_2
REMARK    2  A    between atoms: C_4  and  C_32
REMARK    3  A    between atoms: C_5  and  S_9
REMARK    4  A    between atoms: C_6  and  C_8
REMARK    5  A    between atoms: S_9  and  N_12
REMARK    6  A    between atoms: N_12  and  C_13
REMARK    7  A    between atoms: N_19  and  C_27
REMARK    8  A    between atoms: C_22  and  C_25
REMARK    9  A    between atoms: C_22  and  C_26
REMARK   10  A    between atoms: C_27  and  C_28
REMARK   11  A    between atoms: C_28  and  C_29
REMARK   12  A    between atoms: C_29  and  C_30
REMARK   13  A    between atoms: C_29  and  C_31
REMARK                            x       y       z     vdW  Elec       q    Type
REMARK                         _______ _______ _______ _____ _____    ______ ____
ROOT
ATOM      1  C   UNL     1       2.399  -5.138   0.827  0.00  0.00    +0.050 A 
ATOM      2  C   UNL     1       2.583  -3.924   1.476  0.00  0.00    +0.028 A 
ATOM      3  C   UNL     1       3.508  -3.815   2.497  0.00  0.00    +0.049 A 
ATOM      4  C   UNL     1       4.257  -4.916   2.875  0.00  0.00    +0.142 A 
ATOM      5  C   UNL     1       4.077  -6.135   2.223  0.00  0.00    +0.080 A 
ATOM      6  C   UNL     1       3.144  -6.247   1.205  0.00  0.00    +0.051 A 
ATOM      7  N   UNL     1       4.849  -7.240   2.607  0.00  0.00    -0.268 N 
ATOM      8  C   UNL     1       4.949  -7.554   3.918  0.00  0.00    +0.229 C 
ATOM      9  O   UNL     1       5.665  -8.467   4.273  0.00  0.00    -0.275 OA
ATOM     10  C   UNL     1       4.170  -6.763   4.937  0.00  0.00    +0.076 C 
ATOM     11  C   UNL     1       4.810  -5.391   5.138  0.00  0.00    +0.244 C 
ATOM     12  O   UNL     1       5.165  -4.819   3.882  0.00  0.00    -0.489 OA
ATOM     13  C   UNL     1       4.160  -7.519   6.267  0.00  0.00    +0.024 C 
ATOM     14  C   UNL     1       2.731  -6.585   4.448  0.00  0.00    +0.024 C 
ENDROOT
BRANCH   1  15
ATOM     15  N   UNL     1       1.459  -5.245  -0.204  0.00  0.00    -0.216 N 
ATOM     16  H   UNL     1       1.698  -5.686  -1.034  0.00  0.00    +0.174 HD
BRANCH  15  17
ATOM     17  S   UNL     1      -0.061  -4.619  -0.007  0.00  0.00    +0.073 S 
ATOM     18  O   UNL     1      -0.501  -5.019   1.284  0.00  0.00    -0.150 OA
ATOM     19  O   UNL     1      -0.785  -4.931  -1.189  0.00  0.00    -0.150 OA
BRANCH  17  24
ATOM     20  C   UNL     1       0.492   1.387   0.143  0.00  0.00    +0.044 C 
ATOM     21  C   UNL     1       0.353  -0.113   0.106  0.00  0.00    -0.050 A 
ATOM     22  C   UNL     1       0.226  -0.825   1.284  0.00  0.00    +0.008 A 
ATOM     23  C   UNL     1       0.099  -2.201   1.249  0.00  0.00    -0.023 A 
ATOM     24  C   UNL     1       0.100  -2.865   0.037  0.00  0.00    +0.114 A 
ATOM     25  C   UNL     1       0.226  -2.153  -1.141  0.00  0.00    -0.023 A 
ATOM     26  C   UNL     1       0.349  -0.776  -1.107  0.00  0.00    +0.008 A 
ATOM     27  C   UNL     1       0.227  -2.877  -2.463  0.00  0.00    +0.046 C 
ATOM     28  C   UNL     1      -0.039  -2.977   2.534  0.00  0.00    +0.046 C 
ENDBRANCH  17  24
ENDBRANCH  15  17
ENDBRANCH   1  15
BRANCH   7  29
ATOM     29  C   UNL     1       5.539  -8.047   1.599  0.00  0.00    +0.114 C 
BRANCH  29  30
ATOM     30  C   UNL     1       6.940  -7.478   1.362  0.00  0.00    +0.022 C 
BRANCH  30  31
ATOM     31  C   UNL     1       7.661  -8.321   0.308  0.00  0.00    -0.016 C 
ATOM     32  C   UNL     1       9.012  -7.681  -0.019  0.00  0.00    +0.007 C 
ATOM     33  C   UNL     1       7.885  -9.734   0.851  0.00  0.00    +0.007 C 
ENDBRANCH  30  31
ENDBRANCH  29  30
ENDBRANCH   7  29
TORSDOF 6
