REMARK  Name = ZINC49644810
REMARK  8 active torsions:
REMARK  status: ('A' for Active; 'I' for Inactive)
REMARK    1  A    between atoms: C_1  and  C_2
REMARK    2  A    between atoms: C_5  and  O_9
REMARK    3  A    between atoms: C_6  and  C_8
REMARK    4  A    between atoms: O_9  and  C_10
REMARK    5  A    between atoms: C_10  and  C_11
REMARK    6  A    between atoms: C_11  and  N_13
REMARK    7  A    between atoms: N_20  and  C_23
REMARK    8  A    between atoms: C_23  and  C_24
REMARK                            x       y       z     vdW  Elec       q    Type
REMARK                         _______ _______ _______ _____ _____    ______ ____
ROOT
ATOM      1  N   UNL     1       0.084  -7.068  -2.165  0.00  0.00    -0.154 NA
ATOM      2  C   UNL     1       0.102  -8.392  -1.997  0.00  0.00    +0.163 A 
ATOM      3  N   UNL     1       0.111  -9.096  -0.834  0.00  0.00    -0.339 N 
ATOM      4  C   UNL     1       0.130 -10.463  -0.873  0.00  0.00    +0.024 A 
ATOM      5  C   UNL     1       0.138 -11.002  -2.103  0.00  0.00    -0.004 A 
ATOM      6  S   UNL     1       0.111  -9.595  -3.175  0.00  0.00    -0.059 S 
ATOM      7  C   UNL     1       0.163 -12.456  -2.442  0.00  0.00    -0.033 C 
ATOM      8  N   UNL     1       0.551 -13.208  -1.234  0.00  0.00    +0.386 N 
ATOM      9  C   UNL     1      -0.276 -12.775  -0.100  0.00  0.00    -0.072 C 
ATOM     10  C   UNL     1       0.137 -11.371   0.351  0.00  0.00    +0.035 C 
ATOM     11  H   UNL     1       0.105  -8.632   0.017  0.00  0.00    +0.167 HD
ATOM     12  H   UNL     1       1.523 -13.034  -1.027  0.00  0.00    -0.081 HD
ENDROOT
BRANCH   1  13
ATOM     13  C   UNL     1       0.079  -6.266  -1.108  0.00  0.00    +0.276 C 
ATOM     14  O   UNL     1       0.090  -6.737   0.013  0.00  0.00    -0.270 OA
BRANCH  13  15
ATOM     15  C   UNL     1       0.058  -4.771  -1.298  0.00  0.00    +0.326 C 
BRANCH  15  16
ATOM     16  O   UNL     1       0.057  -4.129  -0.021  0.00  0.00    -0.482 OA
BRANCH  16  21
ATOM     17  C   UNL     1      -0.018   1.503   0.010  0.00  0.00    +0.044 C 
ATOM     18  C   UNL     1       0.002  -0.004   0.002  0.00  0.00    -0.050 A 
ATOM     19  C   UNL     1       0.006  -0.688  -1.200  0.00  0.00    +0.007 A 
ATOM     20  C   UNL     1       0.024  -2.069  -1.210  0.00  0.00    +0.046 A 
ATOM     21  C   UNL     1       0.039  -2.770  -0.013  0.00  0.00    +0.124 A 
ATOM     22  C   UNL     1       0.036  -2.082   1.191  0.00  0.00    -0.009 A 
ATOM     23  C   UNL     1       0.023  -0.701   1.196  0.00  0.00    +0.010 A 
ATOM     24  C   UNL     1       0.052  -2.841   2.493  0.00  0.00    +0.047 C 
ENDBRANCH  16  21
ENDBRANCH  15  16
ENDBRANCH  13  15
ENDBRANCH   1  13
BRANCH   8  25
ATOM     25  C   UNL     1       0.351 -14.645  -1.466  0.00  0.00    -0.043 C 
BRANCH  25  26
ATOM     26  C   UNL     1       1.289 -15.115  -2.547  0.00  0.00    -0.064 A 
ATOM     27  C   UNL     1       0.893 -15.076  -3.871  0.00  0.00    +0.002 A 
ATOM     28  C   UNL     1       1.754 -15.507  -4.863  0.00  0.00    +0.000 A 
ATOM     29  C   UNL     1       3.011 -15.976  -4.531  0.00  0.00    +0.000 A 
ATOM     30  C   UNL     1       3.408 -16.015  -3.208  0.00  0.00    +0.000 A 
ATOM     31  C   UNL     1       2.548 -15.580  -2.216  0.00  0.00    +0.002 A 
ENDBRANCH  25  26
ENDBRANCH   8  25
TORSDOF 6
