REMARK  Name = ZINC36147049
REMARK  14 active torsions:
REMARK  status: ('A' for Active; 'I' for Inactive)
REMARK    1  A    between atoms: C_1  and  C_2
REMARK    2  A    between atoms: C_7  and  O_8
REMARK    3  A    between atoms: O_8  and  C_9
REMARK    4  A    between atoms: C_9  and  C_10
REMARK    5  A    between atoms: C_10  and  C_12
REMARK    6  A    between atoms: C_10  and  O_38
REMARK    7  A    between atoms: C_12  and  N_13
REMARK    8  A    between atoms: N_13  and  C_14
REMARK    9  A    between atoms: N_13  and  C_23
REMARK   10  A    between atoms: C_14  and  C_15
REMARK   11  A    between atoms: C_23  and  C_24
REMARK   12  A    between atoms: C_27  and  C_30
REMARK   13  A    between atoms: C_33  and  O_36
REMARK   14  A    between atoms: O_36  and  C_37
REMARK                            x       y       z     vdW  Elec       q    Type
REMARK                         _______ _______ _______ _____ _____    ______ ____
ROOT
ATOM      1  N   UNL     1       0.230   0.976   6.999  0.00  0.00    +0.387 N 
ATOM      2  H   UNL     1       0.616   1.829   6.622  0.00  0.00    -0.081 HD
ENDROOT
BRANCH   1   3
ATOM      3  C   UNL     1       0.289  -0.080   5.979  0.00  0.00    -0.043 C 
BRANCH   3   4
ATOM      4  C   UNL     1      -0.266   0.455   4.658  0.00  0.00    +0.135 C 
BRANCH   4   5
ATOM      5  O   UNL     1      -1.689   0.558   4.746  0.00  0.00    -0.390 OA
ATOM      6  H   UNL     1      -2.150  -0.288   4.661  0.00  0.00    +0.210 HD
ENDBRANCH   4   5
BRANCH   4   7
ATOM      7  C   UNL     1       0.107  -0.501   3.523  0.00  0.00    +0.258 C 
BRANCH   7   8
ATOM      8  O   UNL     1      -0.310   0.056   2.275  0.00  0.00    -0.489 OA
BRANCH   8  15
ATOM      9  C   UNL     1      -1.126   1.138  -0.204  0.00  0.00    +0.047 C 
ATOM     10  C   UNL     1      -0.429  -0.193  -0.088  0.00  0.00    -0.009 A 
ATOM     11  C   UNL     1      -0.160  -0.933  -1.223  0.00  0.00    +0.007 A 
ATOM     12  C   UNL     1       0.479  -2.154  -1.118  0.00  0.00    +0.000 A 
ATOM     13  C   UNL     1       0.852  -2.638   0.123  0.00  0.00    +0.004 A 
ATOM     14  C   UNL     1       0.585  -1.902   1.260  0.00  0.00    +0.046 A 
ATOM     15  C   UNL     1      -0.052  -0.673   1.157  0.00  0.00    +0.124 A 
ENDBRANCH   8  15
ENDBRANCH   7   8
ENDBRANCH   4   7
ENDBRANCH   3   4
ENDBRANCH   1   3
BRANCH   1  16
ATOM     16  C   UNL     1      -1.168   1.202   7.389  0.00  0.00    -0.040 C 
BRANCH  16  17
ATOM     17  C   UNL     1      -1.758  -0.084   7.909  0.00  0.00    -0.029 A 
ATOM     18  C   UNL     1      -2.471  -0.910   7.059  0.00  0.00    +0.007 A 
ATOM     19  C   UNL     1      -3.013  -2.089   7.534  0.00  0.00    +0.039 A 
ATOM     20  C   UNL     1      -2.842  -2.445   8.862  0.00  0.00    +0.126 A 
ATOM     21  C   UNL     1      -2.130  -1.618   9.713  0.00  0.00    +0.076 A 
ATOM     22  C   UNL     1      -1.582  -0.440   9.235  0.00  0.00    +0.127 A 
ATOM     23  F   UNL     1      -0.881   0.365  10.063  0.00  0.00    -0.205 F 
ATOM     24  F   UNL     1      -3.373  -3.597   9.326  0.00  0.00    -0.205 F 
ENDBRANCH  16  17
ENDBRANCH   1  16
BRANCH   1  25
ATOM     25  C   UNL     1       1.007   0.564   8.176  0.00  0.00    -0.030 C 
BRANCH  25  26
ATOM     26  C   UNL     1       1.343   1.794   9.021  0.00  0.00    +0.194 C 
ATOM     27  C   UNL     1       1.997   1.383  10.361  0.00  0.00    +0.104 C 
ATOM     28  C   UNL     1       1.406   2.383  11.337  0.00  0.00    +0.091 C 
ATOM     29  N   UNL     1       0.386   2.942  10.775  0.00  0.00    -0.089 NA
ATOM     30  O   UNL     1       0.143   2.456   9.469  0.00  0.00    -0.392 OA
BRANCH  28  31
ATOM     31  C   UNL     1       1.909   2.668  12.694  0.00  0.00    -0.000 A 
ATOM     32  C   UNL     1       3.031   1.993  13.181  0.00  0.00    +0.013 A 
ATOM     33  C   UNL     1       3.498   2.263  14.449  0.00  0.00    +0.046 A 
ATOM     34  C   UNL     1       2.854   3.204  15.243  0.00  0.00    +0.120 A 
ATOM     35  C   UNL     1       1.738   3.877  14.763  0.00  0.00    +0.046 A 
ATOM     36  C   UNL     1       1.268   3.618  13.494  0.00  0.00    +0.013 A 
BRANCH  34  37
ATOM     37  O   UNL     1       3.317   3.466  16.493  0.00  0.00    -0.495 OA
ATOM     38  C   UNL     1       2.608   4.444  17.255  0.00  0.00    +0.277 C 
ENDBRANCH  34  37
ENDBRANCH  28  31
ENDBRANCH  25  26
ENDBRANCH   1  25
TORSDOF 12
