REMARK  Name = ZINC35782894
REMARK  14 active torsions:
REMARK  status: ('A' for Active; 'I' for Inactive)
REMARK    1  A    between atoms: C_1  and  C_2
REMARK    2  A    between atoms: C_3  and  C_29
REMARK    3  A    between atoms: C_4  and  N_14
REMARK    4  A    between atoms: C_6  and  C_8
REMARK    5  A    between atoms: N_17  and  C_20
REMARK    6  A    between atoms: C_20  and  C_21
REMARK    7  A    between atoms: C_21  and  C_23
REMARK    8  A    between atoms: C_21  and  O_28
REMARK    9  A    between atoms: C_23  and  O_24
REMARK   10  A    between atoms: O_24  and  C_25
REMARK   11  A    between atoms: C_25  and  C_26
REMARK   12  A    between atoms: C_25  and  C_27
REMARK   13  A    between atoms: C_29  and  C_30
REMARK   14  A    between atoms: C_33  and  N_36
REMARK                            x       y       z     vdW  Elec       q    Type
REMARK                         _______ _______ _______ _____ _____    ______ ____
ROOT
ATOM      1  C   UNL     1      -0.634   1.520   0.180  0.00  0.00    +0.066 C 
ATOM      2  C   UNL     1      -0.505   0.022   0.066  0.00  0.00    +0.047 A 
ATOM      3  C   UNL     1      -0.292  -0.568  -1.165  0.00  0.00    +0.018 A 
ATOM      4  C   UNL     1      -0.178  -1.959  -1.227  0.00  0.00    +0.129 A 
ATOM      5  N   UNL     1      -0.279  -2.664  -0.105  0.00  0.00    -0.212 NA
ATOM      6  C   UNL     1      -0.484  -2.059   1.056  0.00  0.00    +0.162 A 
ATOM      7  N   UNL     1      -0.590  -0.741   1.144  0.00  0.00    -0.232 NA
ENDROOT
BRANCH   6   8
ATOM      8  C   UNL     1      -0.592  -2.877   2.289  0.00  0.00    +0.019 A 
ATOM      9  C   UNL     1      -0.472  -4.264   2.220  0.00  0.00    +0.011 A 
ATOM     10  C   UNL     1      -0.573  -5.021   3.370  0.00  0.00    +0.001 A 
ATOM     11  C   UNL     1      -0.792  -4.405   4.589  0.00  0.00    +0.000 A 
ATOM     12  C   UNL     1      -0.912  -3.028   4.663  0.00  0.00    +0.001 A 
ATOM     13  C   UNL     1      -0.807  -2.262   3.520  0.00  0.00    +0.011 A 
ENDBRANCH   6   8
BRANCH   4  14
ATOM     14  N   UNL     1       0.035  -2.594  -2.439  0.00  0.00    -0.312 N 
ATOM     15  C   UNL     1       1.388  -3.000  -2.851  0.00  0.00    +0.122 C 
ATOM     16  C   UNL     1       1.349  -4.476  -3.264  0.00  0.00    +0.103 C 
ATOM     17  N   UNL     1       0.306  -4.669  -4.280  0.00  0.00    -0.297 NA
ATOM     18  C   UNL     1      -1.026  -4.360  -3.743  0.00  0.00    +0.103 C 
ATOM     19  C   UNL     1      -1.085  -2.886  -3.347  0.00  0.00    +0.122 C 
BRANCH  17  20
ATOM     20  C   UNL     1       0.350  -6.031  -4.827  0.00  0.00    +0.118 C 
BRANCH  20  21
ATOM     21  C   UNL     1       1.656  -6.228  -5.600  0.00  0.00    +0.154 C 
BRANCH  21  22
ATOM     22  O   UNL     1       1.674  -5.360  -6.735  0.00  0.00    -0.388 OA
ATOM     23  H   UNL     1       0.949  -5.511  -7.357  0.00  0.00    +0.210 HD
ENDBRANCH  21  22
BRANCH  21  24
ATOM     24  C   UNL     1       1.757  -7.681  -6.068  0.00  0.00    +0.192 C 
BRANCH  24  25
ATOM     25  O   UNL     1       3.027  -7.895  -6.688  0.00  0.00    -0.375 OA
BRANCH  25  26
ATOM     26  C   UNL     1       3.225  -9.228  -7.163  0.00  0.00    +0.112 C 
ATOM     27  C   UNL     1       4.154  -9.203  -8.379  0.00  0.00    +0.037 C 
ATOM     28  C   UNL     1       3.856 -10.076  -6.057  0.00  0.00    +0.037 C 
ENDBRANCH  25  26
ENDBRANCH  24  25
ENDBRANCH  21  24
ENDBRANCH  20  21
ENDBRANCH  17  20
ENDBRANCH   4  14
BRANCH   3  29
ATOM     29  C   UNL     1      -0.184   0.269  -2.413  0.00  0.00    +0.075 C 
BRANCH  29  30
ATOM     30  C   UNL     1       1.229   0.773  -2.561  0.00  0.00    -0.043 A 
ATOM     31  C   UNL     1       1.633   1.906  -1.879  0.00  0.00    +0.006 A 
ATOM     32  C   UNL     1       2.929   2.367  -2.014  0.00  0.00    +0.033 A 
ATOM     33  C   UNL     1       3.821   1.696  -2.830  0.00  0.00    +0.126 A 
ATOM     34  C   UNL     1       3.417   0.562  -3.510  0.00  0.00    +0.033 A 
ATOM     35  C   UNL     1       2.122   0.098  -3.372  0.00  0.00    +0.006 A 
BRANCH  33  36
ATOM     36  N   UNL     1       5.208   2.191  -2.975  0.00  0.00    +0.056 N 
ATOM     37  O   UNL     1       5.562   3.182  -2.380  0.00  0.00    -0.126 OA
ATOM     38  O   UNL     1       5.988   1.603  -3.688  0.00  0.00    -0.126 OA
ENDBRANCH  33  36
ENDBRANCH  29  30
ENDBRANCH   3  29
TORSDOF 11
