REMARK  Name = ZINC36581539
REMARK  15 active torsions:
REMARK  status: ('A' for Active; 'I' for Inactive)
REMARK    1  A    between atoms: C_1  and  C_2
REMARK    2  A    between atoms: C_4  and  C_15
REMARK    3  A    between atoms: C_12  and  C_13
REMARK    4  A    between atoms: C_12  and  C_14
REMARK    5  A    between atoms: N_17  and  C_18
REMARK    6  A    between atoms: N_17  and  C_38
REMARK    7  A    between atoms: C_18  and  C_20
REMARK    8  A    between atoms: C_18  and  C_29
REMARK    9  A    between atoms: C_23  and  N_26
REMARK   10  A    between atoms: N_26  and  C_27
REMARK   11  A    between atoms: N_26  and  C_28
REMARK   12  A    between atoms: N_31  and  C_32
REMARK   13  A    between atoms: C_38  and  C_39
REMARK   14  A    between atoms: C_38  and  C_40
REMARK   15  A    between atoms: C_38  and  C_41
REMARK                            x       y       z     vdW  Elec       q    Type
REMARK                         _______ _______ _______ _____ _____    ______ ____
ROOT
ATOM      1  C   UNL     1      -0.879  -2.927  -4.315  0.00  0.00    +0.193 C 
ENDROOT
BRANCH   1   2
ATOM      2  C   UNL     1      -1.540  -3.897  -3.370  0.00  0.00    -0.018 A 
ATOM      3  C   UNL     1      -2.177  -3.429  -2.235  0.00  0.00    +0.008 A 
ATOM      4  C   UNL     1      -2.783  -4.316  -1.367  0.00  0.00    +0.023 A 
ATOM      5  C   UNL     1      -2.754  -5.678  -1.635  0.00  0.00    +0.029 A 
ATOM      6  C   UNL     1      -2.114  -6.145  -2.776  0.00  0.00    +0.023 A 
ATOM      7  C   UNL     1      -1.514  -5.252  -3.643  0.00  0.00    +0.008 A 
BRANCH   5   8
ATOM      8  N   UNL     1      -3.366  -6.578  -0.759  0.00  0.00    -0.336 N 
ATOM      9  C   UNL     1      -4.041  -6.084   0.444  0.00  0.00    +0.129 C 
ATOM     10  C   UNL     1      -3.334  -8.014  -1.044  0.00  0.00    +0.129 C 
ENDBRANCH   5   8
ENDBRANCH   1   2
BRANCH   1  11
ATOM     11  C   UNL     1      -1.871  -2.491  -5.362  0.00  0.00    +0.238 C 
ATOM     12  O   UNL     1      -2.087  -1.310  -5.539  0.00  0.00    -0.273 OA
ATOM     13  N   UNL     1      -2.518  -3.413  -6.102  0.00  0.00    -0.311 N 
ATOM     14  H   UNL     1      -2.346  -4.356  -5.961  0.00  0.00    +0.149 HD
BRANCH  13  15
ATOM     15  C   UNL     1      -3.482  -2.989  -7.121  0.00  0.00    +0.073 C 
ATOM     16  C   UNL     1      -4.849  -2.767  -6.468  0.00  0.00    +0.022 C 
ATOM     17  C   UNL     1      -5.856  -2.324  -7.532  0.00  0.00    +0.002 C 
ATOM     18  C   UNL     1      -5.973  -3.408  -8.605  0.00  0.00    +0.000 C 
ATOM     19  C   UNL     1      -4.607  -3.630  -9.258  0.00  0.00    +0.002 C 
ATOM     20  C   UNL     1      -3.600  -4.072  -8.194  0.00  0.00    +0.022 C 
ENDBRANCH  13  15
ENDBRANCH   1  11
BRANCH   1  23
ATOM     21  C   UNL     1      -1.303  -0.864  -3.090  0.00  0.00    +0.220 C 
ATOM     22  O   UNL     1      -2.484  -0.994  -3.335  0.00  0.00    -0.275 OA
ATOM     23  N   UNL     1      -0.413  -1.757  -3.566  0.00  0.00    -0.281 N 
BRANCH  21  26
ATOM     24  C   UNL     1      -1.413   2.731  -2.599  0.00  0.00    +0.008 C 
ATOM     25  C   UNL     1      -1.912   1.364  -2.143  0.00  0.00    +0.001 C 
ATOM     26  C   UNL     1      -0.830   0.298  -2.252  0.00  0.00    +0.079 C 
ATOM     27  C   UNL     1      -0.327  -0.185  -0.896  0.00  0.00    +0.017 C 
ATOM     28  C   UNL     1      -1.370   0.006   0.207  0.00  0.00    -0.004 C 
ATOM     29  C   UNL     1      -2.821  -0.065  -0.296  0.00  0.00    +0.008 C 
ATOM     30  C   UNL     1      -2.571   1.391  -0.769  0.00  0.00    -0.001 C 
ATOM     31  C   UNL     1      -1.661   1.501   0.452  0.00  0.00    -0.029 C 
ATOM     32  C   UNL     1      -2.423   1.753   1.767  0.00  0.00    +0.011 C 
ATOM     33  C   UNL     1      -0.443   2.413   0.345  0.00  0.00    +0.011 C 
ENDBRANCH  21  26
BRANCH  23  34
ATOM     34  C   UNL     1       1.020  -1.558  -3.336  0.00  0.00    +0.030 C 
ATOM     35  C   UNL     1       1.450  -2.341  -2.094  0.00  0.00    +0.031 C 
ATOM     36  C   UNL     1       1.806  -2.055  -4.550  0.00  0.00    +0.031 C 
ATOM     37  C   UNL     1       1.300  -0.069  -3.122  0.00  0.00    +0.031 C 
ENDBRANCH  23  34
ENDBRANCH   1  23
TORSDOF 7
