REMARK  Name = ZINC13023871
REMARK  14 active torsions:
REMARK  status: ('A' for Active; 'I' for Inactive)
REMARK    1  A    between atoms: C_1  and  C_2
REMARK    2  A    between atoms: C_2  and  C_3
REMARK    3  A    between atoms: C_3  and  C_4
REMARK    4  A    between atoms: C_3  and  C_5
REMARK    5  A    between atoms: C_3  and  N_6
REMARK    6  A    between atoms: C_7  and  C_9
REMARK    7  A    between atoms: C_9  and  C_11
REMARK    8  A    between atoms: C_9  and  N_17
REMARK    9  A    between atoms: N_17  and  C_18
REMARK   10  A    between atoms: C_23  and  O_24
REMARK   11  A    between atoms: O_24  and  C_25
REMARK   12  A    between atoms: C_25  and  C_26
REMARK   13  A    between atoms: C_27  and  C_29
REMARK   14  A    between atoms: C_29  and  N_30
REMARK                            x       y       z     vdW  Elec       q    Type
REMARK                         _______ _______ _______ _____ _____    ______ ____
ROOT
ATOM      1  N   UNL     1      -5.496   3.435  -1.640  0.00  0.00    -0.250 N 
ATOM      2  C   UNL     1      -4.194   3.676  -1.388  0.00  0.00    +0.242 C 
ATOM      3  O   UNL     1      -3.437   3.933  -2.300  0.00  0.00    -0.273 OA
ENDROOT
BRANCH   1   4
ATOM      4  C   UNL     1      -6.371   3.139  -0.586  0.00  0.00    +0.079 A 
ATOM      5  C   UNL     1      -7.027   4.162   0.082  0.00  0.00    +0.027 A 
ATOM      6  C   UNL     1      -7.889   3.867   1.121  0.00  0.00    +0.002 A 
ATOM      7  C   UNL     1      -8.100   2.553   1.497  0.00  0.00    +0.004 A 
ATOM      8  C   UNL     1      -7.450   1.528   0.835  0.00  0.00    +0.047 A 
ATOM      9  C   UNL     1      -6.588   1.815  -0.210  0.00  0.00    +0.142 A 
BRANCH   9  10
ATOM     10  O   UNL     1      -5.951   0.807  -0.865  0.00  0.00    -0.490 OA
BRANCH  10  11
ATOM     11  C   UNL     1      -6.222  -0.525  -0.425  0.00  0.00    +0.226 C 
ATOM     12  C   UNL     1      -5.421  -1.515  -1.274  0.00  0.00    +0.048 C 
ENDBRANCH  10  11
ENDBRANCH   9  10
ENDBRANCH   1   4
BRANCH   1  13
ATOM     13  C   UNL     1      -5.997   3.484  -3.016  0.00  0.00    +0.197 C 
BRANCH  13  14
ATOM     14  C   UNL     1      -6.714   2.197  -3.335  0.00  0.00    -0.015 A 
ATOM     15  C   UNL     1      -6.214   1.325  -4.290  0.00  0.00    +0.025 A 
ATOM     16  C   UNL     1      -6.897   0.152  -4.553  0.00  0.00    +0.111 A 
ATOM     17  N   UNL     1      -8.015  -0.135  -3.916  0.00  0.00    -0.263 NA
ATOM     18  C   UNL     1      -8.521   0.673  -3.005  0.00  0.00    +0.111 A 
ATOM     19  C   UNL     1      -7.891   1.861  -2.686  0.00  0.00    +0.025 A 
ENDBRANCH  13  14
BRANCH  13  21
ATOM     20  N   UNL     1      -7.540   4.882  -4.350  0.00  0.00    -0.308 N 
ATOM     21  C   UNL     1      -6.952   4.641  -3.162  0.00  0.00    +0.239 C 
ATOM     22  O   UNL     1      -7.190   5.354  -2.211  0.00  0.00    -0.273 OA
ATOM     23  H   UNL     1      -7.349   4.312  -5.111  0.00  0.00    +0.149 HD
BRANCH  20  24
ATOM     24  C   UNL     1      -8.468   6.007  -4.493  0.00  0.00    +0.029 C 
ATOM     25  C   UNL     1      -9.642   5.824  -3.529  0.00  0.00    +0.031 C 
ATOM     26  C   UNL     1      -7.740   7.313  -4.168  0.00  0.00    +0.031 C 
BRANCH  24  28
ATOM     27  C   UNL     1      -9.961   7.232  -6.078  0.00  0.00    +0.006 C 
ATOM     28  C   UNL     1      -8.991   6.058  -5.930  0.00  0.00    +0.022 C 
ENDBRANCH  24  28
ENDBRANCH  20  24
ENDBRANCH  13  21
ENDBRANCH   1  13
BRANCH   2  29
ATOM     29  C   UNL     1      -3.679   3.626   0.028  0.00  0.00    +0.242 C 
BRANCH  29  30
ATOM     30  N   UNL     1      -2.244   3.921   0.036  0.00  0.00    -0.235 N 
ATOM     31  C   UNL     1      -1.217   3.014  -0.079  0.00  0.00    +0.090 A 
ATOM     32  C   UNL     1      -1.160   1.633  -0.233  0.00  0.00    +0.029 A 
ATOM     33  C   UNL     1       0.053   1.008  -0.315  0.00  0.00    +0.002 A 
ATOM     34  C   UNL     1       1.231   1.742  -0.256  0.00  0.00    +0.002 A 
ATOM     35  C   UNL     1       1.202   3.098  -0.110  0.00  0.00    +0.032 A 
ATOM     36  C   UNL     1      -0.028   3.762  -0.018  0.00  0.00    +0.113 A 
ATOM     37  N   UNL     1      -0.368   5.059   0.127  0.00  0.00    -0.129 NA
ATOM     38  N   UNL     1      -1.647   5.184   0.162  0.00  0.00    -0.064 NA
ENDBRANCH  29  30
ENDBRANCH   2  29
TORSDOF 10
