REMARK  Name = ZINC30882787
REMARK  12 active torsions:
REMARK  status: ('A' for Active; 'I' for Inactive)
REMARK    1  A    between atoms: C_1  and  C_2
REMARK    2  A    between atoms: C_4  and  C_26
REMARK    3  A    between atoms: C_6  and  C_23
REMARK    4  A    between atoms: C_9  and  C_11
REMARK    5  A    between atoms: C_11  and  C_12
REMARK    6  A    between atoms: C_15  and  C_17
REMARK    7  A    between atoms: C_23  and  C_24
REMARK    8  A    between atoms: C_23  and  C_25
REMARK    9  A    between atoms: C_26  and  N_27
REMARK   10  A    between atoms: N_30  and  C_33
REMARK   11  A    between atoms: C_33  and  C_34
REMARK   12  A    between atoms: C_34  and  O_35
REMARK                            x       y       z     vdW  Elec       q    Type
REMARK                         _______ _______ _______ _____ _____    ______ ____
ROOT
ATOM      1  C   UNL     1      -0.254  -0.604   5.637  0.00  0.00    +0.039 C 
ATOM      2  C   UNL     1      -0.285   0.897   5.511  0.00  0.00    -0.073 C 
ATOM      3  C   UNL     1      -0.110   1.411   4.336  0.00  0.00    -0.026 C 
ATOM      4  C   UNL     1      -0.106   2.885   4.055  0.00  0.00    -0.002 C 
ATOM      5  C   UNL     1      -0.742   3.646   5.220  0.00  0.00    -0.003 C 
ATOM      6  C   UNL     1      -0.101   3.158   6.526  0.00  0.00    +0.012 C 
ATOM      7  C   UNL     1      -0.517   1.704   6.755  0.00  0.00    +0.024 C 
ENDROOT
BRANCH   5   8
ATOM      8  C   UNL     1      -0.492   5.146   5.053  0.00  0.00    -0.014 C 
ATOM      9  C   UNL     1      -1.214   5.910   6.165  0.00  0.00    +0.007 C 
ATOM     10  C   UNL     1       1.010   5.425   5.135  0.00  0.00    +0.007 C 
ENDBRANCH   5   8
BRANCH   7  11
ATOM     11  C   UNL     1      -2.001   1.653   7.123  0.00  0.00    +0.105 C 
BRANCH  11  12
ATOM     12  C   UNL     1      -2.217   2.357   8.438  0.00  0.00    +0.218 A 
ATOM     13  N   UNL     1      -2.575   3.601   8.595  0.00  0.00    -0.112 NA
ATOM     14  N   UNL     1      -2.667   3.867   9.850  0.00  0.00    -0.107 NA
ATOM     15  C   UNL     1      -2.361   2.795  10.543  0.00  0.00    +0.248 A 
ATOM     16  O   UNL     1      -2.070   1.819   9.661  0.00  0.00    -0.420 OA
BRANCH  15  17
ATOM     17  C   UNL     1      -2.338   2.680  12.017  0.00  0.00    +0.038 A 
ATOM     18  C   UNL     1      -1.996   1.470  12.620  0.00  0.00    +0.013 A 
ATOM     19  C   UNL     1      -1.972   1.371  13.996  0.00  0.00    +0.001 A 
ATOM     20  C   UNL     1      -2.297   2.466  14.777  0.00  0.00    +0.000 A 
ATOM     21  C   UNL     1      -2.642   3.667  14.185  0.00  0.00    +0.001 A 
ATOM     22  C   UNL     1      -2.665   3.781  12.810  0.00  0.00    +0.013 A 
ENDBRANCH  15  17
ENDBRANCH  11  12
ENDBRANCH   7  11
BRANCH   4  23
ATOM     23  C   UNL     1      -0.900   3.160   2.776  0.00  0.00    -0.071 C 
BRANCH  23  24
ATOM     24  N   UNL     1      -0.758   4.575   2.407  0.00  0.00    +0.382 N 
ATOM     25  C   UNL     1       0.584   4.849   1.875  0.00  0.00    -0.063 C 
ATOM     26  C   UNL     1       0.716   6.345   1.578  0.00  0.00    +0.066 C 
ATOM     27  N   UNL     1      -0.320   6.744   0.615  0.00  0.00    -0.304 NA
ATOM     28  C   UNL     1      -1.662   6.470   1.147  0.00  0.00    +0.066 C 
ATOM     29  C   UNL     1      -1.795   4.974   1.444  0.00  0.00    -0.063 C 
ATOM     30  H   UNL     1      -0.892   5.176   3.318  0.00  0.00    -0.082 HD
BRANCH  27  31
ATOM     31  C   UNL     1      -0.179   8.159   0.246  0.00  0.00    +0.112 C 
BRANCH  31  32
ATOM     32  C   UNL     1      -0.691   9.038   1.389  0.00  0.00    +0.171 C 
BRANCH  32  33
ATOM     33  O   UNL     1       0.157   8.880   2.528  0.00  0.00    -0.394 OA
ATOM     34  H   UNL     1      -0.055   9.437   3.453  0.00  0.00    +0.209 HD
ENDBRANCH  32  33
ENDBRANCH  31  32
ENDBRANCH  27  31
ENDBRANCH  23  24
ENDBRANCH   4  23
TORSDOF 9
