REMARK  Name = ZINC21151932
REMARK  9 active torsions:
REMARK  status: ('A' for Active; 'I' for Inactive)
REMARK    1  A    between atoms: C_1  and  C_2
REMARK    2  A    between atoms: C_2  and  O_3
REMARK    3  A    between atoms: O_3  and  C_4
REMARK    4  A    between atoms: C_4  and  C_6
REMARK    5  A    between atoms: C_6  and  C_7
REMARK    6  A    between atoms: C_10  and  N_13
REMARK    7  A    between atoms: N_16  and  C_17
REMARK    8  A    between atoms: C_26  and  O_27
REMARK    9  A    between atoms: N_28  and  C_29
REMARK                            x       y       z     vdW  Elec       q    Type
REMARK                         _______ _______ _______ _____ _____    ______ ____
ROOT
ATOM      1  C   UNL     1       3.820   3.150   0.188  0.00  0.00    +0.140 A 
ATOM      2  C   UNL     1       2.705   3.777  -0.340  0.00  0.00    +0.075 A 
ATOM      3  C   UNL     1       1.423   3.055  -0.293  0.00  0.00    +0.042 A 
ATOM      4  C   UNL     1       0.257   3.626  -0.807  0.00  0.00    +0.013 A 
ATOM      5  C   UNL     1      -0.927   2.925  -0.748  0.00  0.00    +0.001 A 
ATOM      6  C   UNL     1      -0.963   1.657  -0.189  0.00  0.00    +0.004 A 
ATOM      7  C   UNL     1       0.181   1.084   0.328  0.00  0.00    +0.047 A 
ATOM      8  C   UNL     1       1.386   1.774   0.279  0.00  0.00    +0.141 A 
ATOM      9  O   UNL     1       2.514   1.222   0.777  0.00  0.00    -0.424 OA
ATOM     10  C   UNL     1       3.692   1.865   0.744  0.00  0.00    +0.309 A 
ATOM     11  N   UNL     1       2.792   5.040  -0.894  0.00  0.00    -0.380 N 
ATOM     12  H   UNL     1       2.736   5.929  -0.248  0.00  0.00    +0.160 HD
ENDROOT
BRANCH   1  16
ATOM     13  N   UNL     1       7.397   3.684   0.014  0.00  0.00    -0.269 N 
ATOM     14  C   UNL     1       6.194   3.077  -0.028  0.00  0.00    +0.308 C 
ATOM     15  O   UNL     1       6.123   1.882  -0.244  0.00  0.00    -0.252 OA
ATOM     16  N   UNL     1       5.070   3.794   0.170  0.00  0.00    -0.262 N 
ATOM     17  H   UNL     1       7.467   4.747   0.286  0.00  0.00    +0.156 HD
ATOM     18  H   UNL     1       5.131   4.882   0.317  0.00  0.00    +0.157 HD
BRANCH  13  22
ATOM     19  C   UNL     1      10.849   1.532  -0.886  0.00  0.00    -0.037 A 
ATOM     20  C   UNL     1       9.639   1.159  -1.442  0.00  0.00    +0.006 A 
ATOM     21  C   UNL     1       8.493   1.871  -1.146  0.00  0.00    +0.023 A 
ATOM     22  C   UNL     1       8.556   2.961  -0.288  0.00  0.00    +0.035 A 
ATOM     23  C   UNL     1       9.774   3.336   0.264  0.00  0.00    +0.023 A 
ATOM     24  C   UNL     1      10.915   2.617  -0.032  0.00  0.00    +0.006 A 
BRANCH  19  25
ATOM     25  C   UNL     1      12.097   0.753  -1.211  0.00  0.00    +0.155 C 
BRANCH  25  26
ATOM     26  C   UNL     1      12.759   1.349  -2.427  0.00  0.00    +0.311 C 
ATOM     27  O   UNL     1      12.267   2.308  -2.973  0.00  0.00    -0.250 OA
BRANCH  26  28
ATOM     28  O   UNL     1      13.895   0.815  -2.903  0.00  0.00    -0.465 OA
BRANCH  28  30
ATOM     29  C   UNL     1      15.756   0.700  -4.469  0.00  0.00    +0.048 C 
ATOM     30  C   UNL     1      14.476   1.441  -4.077  0.00  0.00    +0.229 C 
ENDBRANCH  28  30
ENDBRANCH  26  28
ENDBRANCH  25  26
ENDBRANCH  19  25
ENDBRANCH  13  22
ENDBRANCH   1  16
BRANCH  11  31
ATOM     31  C   UNL     1       2.956   4.966  -2.352  0.00  0.00    +0.079 C 
ATOM     32  C   UNL     1       4.439   4.735  -2.706  0.00  0.00    +0.024 C 
ATOM     33  C   UNL     1       4.658   5.576  -3.989  0.00  0.00    +0.002 C 
ATOM     34  C   UNL     1       3.804   6.840  -3.720  0.00  0.00    +0.002 C 
ATOM     35  C   UNL     1       2.552   6.303  -2.997  0.00  0.00    +0.024 C 
ENDBRANCH  11  31
BRANCH  10  36
ATOM     36  O   UNL     1       4.678   1.318   1.208  0.00  0.00    -0.479 OA
ATOM     37  H   UNL     1       4.595   0.313   1.646  0.00  0.00    +0.295 HD
ENDBRANCH  10  36
TORSDOF 8
