REMARK  Name = ZINC09972286
REMARK  7 active torsions:
REMARK  status: ('A' for Active; 'I' for Inactive)
REMARK    1  A    between atoms: C_1  and  C_2
REMARK    2  A    between atoms: N_8  and  C_9
REMARK    3  A    between atoms: C_9  and  C_10
REMARK    4  A    between atoms: C_10  and  C_11
REMARK    5  A    between atoms: N_17  and  C_27
REMARK    6  A    between atoms: N_18  and  C_21
REMARK    7  A    between atoms: C_27  and  C_28
REMARK                            x       y       z     vdW  Elec       q    Type
REMARK                         _______ _______ _______ _____ _____    ______ ____
ROOT
ATOM      1  C   UNL     1       0.024   1.210   1.440  0.00  0.00    +0.064 C 
ATOM      2  C   UNL     1      -0.022  -0.243   1.041  0.00  0.00    +0.033 A 
ATOM      3  C   UNL     1      -1.212  -0.813   0.669  0.00  0.00    +0.085 A 
ATOM      4  C   UNL     1      -1.237  -2.232   0.282  0.00  0.00    +0.078 A 
ATOM      5  C   UNL     1      -0.053  -2.936   0.309  0.00  0.00    +0.098 A 
ATOM      6  C   UNL     1       1.118  -2.276   0.702  0.00  0.00    +0.254 A 
ATOM      7  O   UNL     1       2.171  -2.893   0.728  0.00  0.00    -0.268 OA
ATOM      8  N   UNL     1       1.109  -0.978   1.045  0.00  0.00    -0.311 N 
ATOM      9  N   UNL     1      -2.539  -2.529  -0.037  0.00  0.00    -0.272 N 
ATOM     10  N   UNL     1      -3.338  -1.393   0.122  0.00  0.00    -0.216 N 
ATOM     11  C   UNL     1      -2.599  -0.345   0.540  0.00  0.00    +0.281 A 
ATOM     12  O   UNL     1      -3.005   0.778   0.768  0.00  0.00    -0.265 OA
ENDROOT
BRANCH  10  13
ATOM     13  C   UNL     1      -4.715  -1.349  -0.120  0.00  0.00    +0.067 A 
ATOM     14  C   UNL     1      -5.571  -0.807   0.830  0.00  0.00    +0.028 A 
ATOM     15  C   UNL     1      -6.930  -0.764   0.588  0.00  0.00    +0.002 A 
ATOM     16  C   UNL     1      -7.438  -1.261  -0.598  0.00  0.00    +0.000 A 
ATOM     17  C   UNL     1      -6.588  -1.801  -1.546  0.00  0.00    +0.002 A 
ATOM     18  C   UNL     1      -5.228  -1.842  -1.312  0.00  0.00    +0.028 A 
ENDBRANCH  10  13
BRANCH   8  19
ATOM     19  C   UNL     1       2.367  -0.341   1.441  0.00  0.00    +0.131 C 
BRANCH  19  20
ATOM     20  C   UNL     1       2.607  -0.571   2.934  0.00  0.00    +0.076 C 
BRANCH  20  21
ATOM     21  C   UNL     1       3.901   0.084   3.342  0.00  0.00    +0.035 A 
ATOM     22  C   UNL     1       5.130  -0.456   3.234  0.00  0.00    +0.105 A 
ATOM     23  N   UNL     1       6.014   0.472   3.716  0.00  0.00    -0.352 N 
ATOM     24  H   UNL     1       6.978   0.374   3.771  0.00  0.00    +0.166 HD
ATOM     25  C   UNL     1       5.294   1.547   4.102  0.00  0.00    +0.171 A 
ATOM     26  N   UNL     1       4.032   1.310   3.871  0.00  0.00    -0.350 N 
ATOM     27  H   UNL     1       3.303   1.923   4.054  0.00  0.00    +0.166 HD
ENDBRANCH  20  21
ENDBRANCH  19  20
ENDBRANCH   8  19
BRANCH   9  28
ATOM     28  C   UNL     1      -3.019  -3.840  -0.479  0.00  0.00    +0.177 C 
BRANCH  28  29
ATOM     29  C   UNL     1      -3.322  -4.696   0.725  0.00  0.00    -0.026 A 
ATOM     30  C   UNL     1      -2.312  -5.420   1.329  0.00  0.00    +0.007 A 
ATOM     31  C   UNL     1      -2.589  -6.205   2.433  0.00  0.00    +0.020 A 
ATOM     32  C   UNL     1      -3.877  -6.265   2.933  0.00  0.00    +0.041 A 
ATOM     33  C   UNL     1      -4.888  -5.539   2.327  0.00  0.00    +0.020 A 
ATOM     34  C   UNL     1      -4.608  -4.750   1.227  0.00  0.00    +0.007 A 
ATOM     35 CL   UNL     1      -4.226  -7.250   4.318  0.00  0.00    -0.084 Cl
ENDBRANCH  28  29
ENDBRANCH   9  28
TORSDOF 6
