REMARK  Name = ZINC39371740
REMARK  4 active torsions:
REMARK  status: ('A' for Active; 'I' for Inactive)
REMARK    1  A    between atoms: C_1  and  N_2
REMARK    2  A    between atoms: C_10  and  C_12
REMARK    3  A    between atoms: N_26  and  C_27
REMARK    4  A    between atoms: C_27  and  C_28
REMARK                            x       y       z     vdW  Elec       q    Type
REMARK                         _______ _______ _______ _____ _____    ______ ____
ROOT
ATOM      1  C   UNL     1      -1.130  -0.518   1.876  0.00  0.00    +0.019 C 
ATOM      2  C   UNL     1      -1.241   0.979   2.034  0.00  0.00    +0.010 A 
ATOM      3  H   UNL     1      -0.630   1.760   0.202  0.00  0.00    +0.166 HD
ATOM      4  C   UNL     1      -1.662   1.569   3.176  0.00  0.00    -0.022 A 
ATOM      5  C   UNL     1      -1.635   2.997   2.957  0.00  0.00    +0.003 A 
ATOM      6  C   UNL     1      -1.956   4.090   3.766  0.00  0.00    +0.010 A 
ATOM      7  C   UNL     1      -1.806   5.338   3.213  0.00  0.00    +0.001 A 
ATOM      8  C   UNL     1      -1.360   5.519   1.915  0.00  0.00    +0.002 A 
ATOM      9  C   UNL     1      -1.035   4.456   1.091  0.00  0.00    +0.026 A 
ATOM     10  C   UNL     1      -1.176   3.177   1.625  0.00  0.00    +0.047 A 
ATOM     11  N   UNL     1      -0.950   1.936   1.101  0.00  0.00    -0.359 N 
ATOM     12  C   UNL     1      -2.070   0.794   4.404  0.00  0.00    +0.019 C 
ATOM     13  C   UNL     1      -2.286  -0.667   3.987  0.00  0.00    -0.072 C 
ATOM     14  N   UNL     1      -1.129  -1.136   3.211  0.00  0.00    +0.392 N 
ATOM     15  H   UNL     1      -0.280  -0.884   3.695  0.00  0.00    -0.080 HD
ENDROOT
BRANCH   1  25
ATOM     16  C   UNL     1      -0.725  -3.048   0.020  0.00  0.00    +0.131 C 
ATOM     17  N   UNL     1       0.220  -2.300   0.853  0.00  0.00    -0.314 N 
ATOM     18  C   UNL     1       1.342  -2.824   1.511  0.00  0.00    +0.052 A 
ATOM     19  C   UNL     1       1.840  -4.121   1.554  0.00  0.00    +0.025 A 
ATOM     20  C   UNL     1       2.979  -4.403   2.282  0.00  0.00    +0.002 A 
ATOM     21  C   UNL     1       3.629  -3.397   2.972  0.00  0.00    +0.002 A 
ATOM     22  C   UNL     1       3.142  -2.105   2.936  0.00  0.00    +0.025 A 
ATOM     23  C   UNL     1       1.996  -1.811   2.206  0.00  0.00    +0.050 A 
ATOM     24  N   UNL     1       1.321  -0.596   2.021  0.00  0.00    -0.325 N 
ATOM     25  C   UNL     1       0.171  -0.864   1.149  0.00  0.00    +0.150 C 
ATOM     26  H   UNL     1       1.570   0.263   2.397  0.00  0.00    +0.148 HD
ENDBRANCH   1  25
BRANCH  14  27
ATOM     27  C   UNL     1      -1.191  -2.597   3.072  0.00  0.00    -0.002 C 
BRANCH  27  28
ATOM     28  C   UNL     1      -1.128  -3.235   4.436  0.00  0.00    +0.089 A 
ATOM     29  C   UNL     1      -2.183  -3.533   5.215  0.00  0.00    +0.042 A 
ATOM     30  C   UNL     1      -1.669  -4.114   6.397  0.00  0.00    +0.041 A 
ATOM     31  C   UNL     1      -0.330  -4.136   6.269  0.00  0.00    +0.195 A 
ATOM     32  O   UNL     1      -0.008  -3.608   5.077  0.00  0.00    -0.470 OA
ENDBRANCH  27  28
ENDBRANCH  14  27
TORSDOF 3
