REMARK  Name = ZINC05376069
REMARK  5 active torsions:
REMARK  status: ('A' for Active; 'I' for Inactive)
REMARK    1  A    between atoms: C_3  and  C_6
REMARK    2  A    between atoms: N_10  and  C_14
REMARK    3  A    between atoms: C_14  and  C_15
REMARK    4  A    between atoms: N_17  and  N_18
REMARK    5  A    between atoms: C_19  and  C_21
REMARK                            x       y       z     vdW  Elec       q    Type
REMARK                         _______ _______ _______ _____ _____    ______ ____
ROOT
ATOM      1  C   UNL     1      -4.623  -0.812  -0.236  0.00  0.00    +0.212 C 
ENDROOT
BRANCH   1   6
ATOM      2  C   UNL     1      -1.132   2.656   0.022  0.00  0.00    +0.035 C 
ATOM      3  C   UNL     1      -2.397   2.156  -0.077  0.00  0.00    +0.078 C 
ATOM      4  C   UNL     1      -2.837   0.798  -0.108  0.00  0.00    +0.259 C 
ATOM      5  O   UNL     1      -2.040  -0.121  -0.042  0.00  0.00    -0.269 OA
ATOM      6  N   UNL     1      -4.134   0.568  -0.206  0.00  0.00    -0.246 N 
ATOM      7  C   UNL     1      -5.017   1.589  -0.286  0.00  0.00    +0.121 C 
ATOM      8  S   UNL     1      -6.722   1.523  -0.424  0.00  0.00    -0.027 S 
ATOM      9  S   UNL     1      -3.954   3.022  -0.210  0.00  0.00    -0.061 S 
BRANCH   2  12
ATOM     10  C   UNL     1       2.125   0.880   0.275  0.00  0.00    +0.008 A 
ATOM     11  C   UNL     1       1.270   1.871  -0.141  0.00  0.00    +0.015 A 
ATOM     12  C   UNL     1      -0.048   1.790   0.295  0.00  0.00    +0.013 A 
ATOM     13  S   UNL     1      -0.017   0.303   1.280  0.00  0.00    -0.097 S 
ATOM     14  C   UNL     1       1.653  -0.112   1.075  0.00  0.00    +0.046 A 
ENDBRANCH   2  12
ENDBRANCH   1   6
BRANCH   1  15
ATOM     15  C   UNL     1      -4.675  -1.296  -1.662  0.00  0.00    +0.247 C 
ATOM     16  O   UNL     1      -4.338  -0.560  -2.565  0.00  0.00    -0.273 OA
ATOM     17  N   UNL     1      -5.097  -2.547  -1.934  0.00  0.00    -0.233 N 
ATOM     18  H   UNL     1      -5.366  -3.136  -1.212  0.00  0.00    +0.173 HD
BRANCH  17  19
ATOM     19  N   UNL     1      -5.145  -2.997  -3.260  0.00  0.00    -0.230 N 
ATOM     20  C   UNL     1      -5.567  -4.248  -3.532  0.00  0.00    +0.260 C 
ATOM     21  O   UNL     1      -5.905  -4.986  -2.628  0.00  0.00    -0.269 OA
ATOM     22  H   UNL     1      -4.876  -2.409  -3.982  0.00  0.00    +0.173 HD
BRANCH  20  23
ATOM     23  C   UNL     1      -5.619  -4.724  -4.934  0.00  0.00    +0.041 A 
ATOM     24  C   UNL     1      -5.240  -3.890  -5.990  0.00  0.00    +0.033 A 
ATOM     25  C   UNL     1      -5.298  -4.376  -7.282  0.00  0.00    +0.111 A 
ATOM     26  N   UNL     1      -5.714  -5.603  -7.525  0.00  0.00    -0.263 NA
ATOM     27  C   UNL     1      -6.085  -6.420  -6.560  0.00  0.00    +0.111 A 
ATOM     28  C   UNL     1      -6.053  -6.018  -5.239  0.00  0.00    +0.033 A 
ENDBRANCH  20  23
ENDBRANCH  17  19
ENDBRANCH   1  15
TORSDOF 5
