REMARK  Name = ZINC39694898
REMARK  11 active torsions:
REMARK  status: ('A' for Active; 'I' for Inactive)
REMARK    1  A    between atoms: C_1  and  C_2
REMARK    2  A    between atoms: C_4  and  C_37
REMARK    3  A    between atoms: C_6  and  C_8
REMARK    4  A    between atoms: C_8  and  N_9
REMARK    5  A    between atoms: C_10  and  C_12
REMARK    6  A    between atoms: C_23  and  C_25
REMARK    7  A    between atoms: C_25  and  C_27
REMARK    8  A    between atoms: C_25  and  O_30
REMARK    9  A    between atoms: C_27  and  C_28
REMARK   10  A    between atoms: C_27  and  C_29
REMARK   11  A    between atoms: O_30  and  C_31
REMARK                            x       y       z     vdW  Elec       q    Type
REMARK                         _______ _______ _______ _____ _____    ______ ____
ROOT
ATOM      1  C   UNL     1       3.346  -3.633   4.642  0.00  0.00    +0.100 C 
ATOM      2  C   UNL     1       3.934  -4.632   3.621  0.00  0.00    +0.121 C 
ATOM      3  N   UNL     1       4.744  -5.568   4.436  0.00  0.00    -0.297 N 
ATOM      4  C   UNL     1       3.940  -5.777   5.665  0.00  0.00    +0.115 C 
ATOM      5  C   UNL     1       3.351  -4.388   5.982  0.00  0.00    -0.004 C 
ATOM      6  C   UNL     1       1.929  -4.528   6.515  0.00  0.00    -0.010 C 
ATOM      7  C   UNL     1       1.965  -5.230   7.875  0.00  0.00    -0.082 C 
ATOM      8  N   UNL     1       2.784  -4.449   8.810  0.00  0.00    +0.379 N 
ATOM      9  C   UNL     1       4.173  -4.398   8.336  0.00  0.00    -0.082 C 
ATOM     10  C   UNL     1       4.230  -3.660   6.995  0.00  0.00    -0.010 C 
ATOM     11  C   UNL     1       5.940  -6.107   4.130  0.00  0.00    +0.257 C 
ATOM     12  O   UNL     1       6.443  -6.927   4.869  0.00  0.00    -0.272 OA
ATOM     13  H   UNL     1       2.417  -3.511   8.874  0.00  0.00    -0.086 HD
ATOM     14  H   UNL     1       2.757  -4.881   9.721  0.00  0.00    -0.086 HD
ENDROOT
BRANCH   1  16
ATOM     15  N   UNL     1       1.394  -2.116   4.726  0.00  0.00    -0.311 N 
ATOM     16  C   UNL     1       1.939  -3.256   4.258  0.00  0.00    +0.218 C 
ATOM     17  O   UNL     1       1.296  -3.979   3.526  0.00  0.00    -0.275 OA
ATOM     18  H   UNL     1       1.908  -1.538   5.311  0.00  0.00    +0.149 HD
BRANCH  15  19
ATOM     19  C   UNL     1       0.026  -1.750   4.352  0.00  0.00    +0.139 C 
BRANCH  19  25
ATOM     20  C   UNL     1      -1.905   0.777   8.217  0.00  0.00    +0.044 C 
ATOM     21  C   UNL     1      -1.264   0.768   6.853  0.00  0.00    -0.050 A 
ATOM     22  C   UNL     1      -1.012   1.960   6.199  0.00  0.00    +0.006 A 
ATOM     23  C   UNL     1      -0.425   1.951   4.948  0.00  0.00    -0.050 A 
ATOM     24  C   UNL     1      -0.089   0.751   4.351  0.00  0.00    +0.008 A 
ATOM     25  C   UNL     1      -0.340  -0.441   5.004  0.00  0.00    -0.030 A 
ATOM     26  C   UNL     1      -0.923  -0.432   6.257  0.00  0.00    +0.008 A 
ATOM     27  C   UNL     1      -0.152   3.250   4.236  0.00  0.00    +0.044 C 
ENDBRANCH  19  25
ENDBRANCH  15  19
ENDBRANCH   1  16
BRANCH  11  28
ATOM     28  C   UNL     1       6.655  -5.690   2.871  0.00  0.00    +0.261 C 
BRANCH  28  29
ATOM     29  C   UNL     1       6.195  -6.572   1.708  0.00  0.00    +0.033 C 
ATOM     30  C   UNL     1       4.671  -6.507   1.590  0.00  0.00    +0.011 C 
ATOM     31  C   UNL     1       6.830  -6.074   0.408  0.00  0.00    +0.011 C 
ENDBRANCH  28  29
BRANCH  28  32
ATOM     32  O   UNL     1       8.065  -5.837   3.052  0.00  0.00    -0.479 OA
BRANCH  32  33
ATOM     33  C   UNL     1       8.864  -4.937   2.421  0.00  0.00    +0.122 A 
ATOM     34  C   UNL     1       8.303  -3.879   1.722  0.00  0.00    +0.045 A 
ATOM     35  C   UNL     1       9.118  -2.965   1.082  0.00  0.00    +0.004 A 
ATOM     36  C   UNL     1      10.492  -3.105   1.139  0.00  0.00    +0.000 A 
ATOM     37  C   UNL     1      11.055  -4.159   1.835  0.00  0.00    +0.004 A 
ATOM     38  C   UNL     1      10.244  -5.072   2.481  0.00  0.00    +0.045 A 
ENDBRANCH  32  33
ENDBRANCH  28  32
ENDBRANCH  11  28
TORSDOF 7
