REMARK  Name = ZINC13128753
REMARK  6 active torsions:
REMARK  status: ('A' for Active; 'I' for Inactive)
REMARK    1  A    between atoms: C_1  and  C_2
REMARK    2  A    between atoms: C_2  and  C_3
REMARK    3  A    between atoms: C_2  and  C_4
REMARK    4  A    between atoms: C_4  and  N_5
REMARK    5  A    between atoms: C_14  and  C_16
REMARK    6  A    between atoms: C_26  and  C_28
REMARK                            x       y       z     vdW  Elec       q    Type
REMARK                         _______ _______ _______ _____ _____    ______ ____
ROOT
ATOM      1  C   UNL     1      -2.591   4.170   0.947  0.00  0.00    +0.268 C 
ATOM      2  O   UNL     1      -3.036   3.372   1.749  0.00  0.00    -0.268 OA
ATOM      3  N   UNL     1      -1.974   3.731  -0.168  0.00  0.00    -0.284 N 
ATOM      4  C   UNL     1      -1.567   4.678  -1.216  0.00  0.00    +0.114 C 
ATOM      5  C   UNL     1      -0.033   4.668  -1.307  0.00  0.00    +0.062 C 
ATOM      6  C   UNL     1       0.441   3.252  -1.237  0.00  0.00    -0.003 A 
ATOM      7  C   UNL     1      -0.251   2.159  -0.817  0.00  0.00    -0.012 A 
ATOM      8  C   UNL     1       0.427   0.941  -0.842  0.00  0.00    +0.013 A 
ATOM      9  C   UNL     1       1.709   0.890  -1.273  0.00  0.00    +0.046 A 
ATOM     10  S   UNL     1       2.031   2.600  -1.673  0.00  0.00    -0.101 S 
ATOM     11  C   UNL     1      -1.700   2.300  -0.355  0.00  0.00    +0.144 C 
ENDROOT
BRANCH   1  21
ATOM     12  N   UNL     1      -1.939   7.734   0.807  0.00  0.00    -0.228 N 
ATOM     13  C   UNL     1      -2.862   8.352   1.573  0.00  0.00    +0.275 A 
ATOM     14  O   UNL     1      -2.861   9.563   1.694  0.00  0.00    -0.266 OA
ATOM     15  C   UNL     1      -3.869   7.529   2.257  0.00  0.00    +0.050 A 
ATOM     16  C   UNL     1      -4.862   8.068   3.068  0.00  0.00    +0.014 A 
ATOM     17  C   UNL     1      -5.770   7.226   3.675  0.00  0.00    +0.001 A 
ATOM     18  C   UNL     1      -5.701   5.852   3.485  0.00  0.00    +0.001 A 
ATOM     19  C   UNL     1      -4.724   5.298   2.685  0.00  0.00    +0.011 A 
ATOM     20  C   UNL     1      -3.802   6.130   2.059  0.00  0.00    +0.020 A 
ATOM     21  C   UNL     1      -2.725   5.619   1.195  0.00  0.00    +0.154 A 
ATOM     22  N   UNL     1      -1.891   6.466   0.644  0.00  0.00    -0.163 NA
BRANCH  12  23
ATOM     23  C   UNL     1      -0.938   8.559   0.127  0.00  0.00    +0.150 C 
BRANCH  23  25
ATOM     24  C   UNL     1       1.377   9.488   0.277  0.00  0.00    +0.009 C 
ATOM     25  C   UNL     1       0.282   8.732   1.033  0.00  0.00    +0.004 C 
ATOM     26  C   UNL     1      -0.116   9.525   2.279  0.00  0.00    +0.009 C 
ENDBRANCH  23  25
ENDBRANCH  12  23
ENDBRANCH   1  21
BRANCH  11  27
ATOM     27  C   UNL     1      -1.893   1.569   0.949  0.00  0.00    +0.015 A 
ATOM     28  C   UNL     1      -2.712   0.526   1.230  0.00  0.00    +0.013 A 
ATOM     29  C   UNL     1      -2.723   0.009   2.512  0.00  0.00    +0.008 A 
ATOM     30  C   UNL     1      -1.917   0.562   3.451  0.00  0.00    +0.045 A 
ATOM     31  S   UNL     1      -1.098   1.849   2.523  0.00  0.00    -0.099 S 
ENDBRANCH  11  27
TORSDOF 4
