REMARK  Name = ZINC36306509
REMARK  17 active torsions:
REMARK  status: ('A' for Active; 'I' for Inactive)
REMARK    1  A    between atoms: C_1  and  C_2
REMARK    2  A    between atoms: C_6  and  O_8
REMARK    3  A    between atoms: O_8  and  C_9
REMARK    4  A    between atoms: C_10  and  C_21
REMARK    5  A    between atoms: C_11  and  C_15
REMARK    6  A    between atoms: N_13  and  C_14
REMARK    7  A    between atoms: C_21  and  N_22
REMARK    8  A    between atoms: N_22  and  C_23
REMARK    9  A    between atoms: N_22  and  C_30
REMARK   10  A    between atoms: C_23  and  C_24
REMARK   11  A    between atoms: C_30  and  C_31
REMARK   12  A    between atoms: C_31  and  C_33
REMARK   13  A    between atoms: C_31  and  O_38
REMARK   14  A    between atoms: C_33  and  O_34
REMARK   15  A    between atoms: O_34  and  C_35
REMARK   16  A    between atoms: C_35  and  C_36
REMARK   17  A    between atoms: C_35  and  C_37
REMARK                            x       y       z     vdW  Elec       q    Type
REMARK                         _______ _______ _______ _____ _____    ______ ____
ROOT
ATOM      1  C   UNL     1       0.916  -5.049   2.574  0.00  0.00    +0.221 A 
ATOM      2  C   UNL     1       1.246  -5.749   3.689  0.00  0.00    +0.025 A 
ATOM      3  C   UNL     1       2.069  -6.821   3.297  0.00  0.00    +0.098 A 
ATOM      4  N   UNL     1       2.224  -6.762   1.991  0.00  0.00    -0.168 NA
ATOM      5  N   UNL     1       1.504  -5.660   1.513  0.00  0.00    -0.235 N 
ATOM      6  C   UNL     1       1.405  -5.238   0.113  0.00  0.00    +0.176 C 
ENDROOT
BRANCH   3   7
ATOM      7  C   UNL     1       2.659  -7.841   4.199  0.00  0.00    +0.002 A 
ATOM      8  C   UNL     1       2.674  -9.183   3.822  0.00  0.00    +0.010 A 
ATOM      9  C   UNL     1       3.224 -10.127   4.665  0.00  0.00    +0.001 A 
ATOM     10  C   UNL     1       3.760  -9.745   5.881  0.00  0.00    +0.000 A 
ATOM     11  C   UNL     1       3.748  -8.414   6.260  0.00  0.00    +0.001 A 
ATOM     12  C   UNL     1       3.206  -7.460   5.422  0.00  0.00    +0.010 A 
ENDBRANCH   3   7
BRANCH   1  13
ATOM     13  O   UNL     1       0.134  -3.940   2.526  0.00  0.00    -0.438 OA
BRANCH  13  19
ATOM     14  C   UNL     1      -0.191   0.920   2.216  0.00  0.00    +0.044 C 
ATOM     15  C   UNL     1       0.622  -0.338   2.386  0.00  0.00    -0.047 A 
ATOM     16  C   UNL     1       1.992  -0.257   2.552  0.00  0.00    +0.003 A 
ATOM     17  C   UNL     1       2.741  -1.409   2.709  0.00  0.00    +0.004 A 
ATOM     18  C   UNL     1       2.121  -2.643   2.701  0.00  0.00    +0.046 A 
ATOM     19  C   UNL     1       0.746  -2.727   2.535  0.00  0.00    +0.131 A 
ATOM     20  C   UNL     1      -0.004  -1.569   2.383  0.00  0.00    +0.049 A 
ENDBRANCH  13  19
ENDBRANCH   1  13
BRANCH   2  21
ATOM     21  C   UNL     1       0.809  -5.434   5.097  0.00  0.00    -0.035 C 
BRANCH  21  22
ATOM     22  N   UNL     1      -0.628  -5.702   5.235  0.00  0.00    +0.386 N 
ATOM     23  H   UNL     1      -1.135  -5.201   4.520  0.00  0.00    -0.081 HD
BRANCH  22  24
ATOM     24  C   UNL     1      -0.874  -7.143   5.088  0.00  0.00    -0.046 C 
BRANCH  24  25
ATOM     25  C   UNL     1      -1.001  -7.490   3.604  0.00  0.00    +0.102 C 
ATOM     26  C   UNL     1      -1.399  -8.978   3.432  0.00  0.00    +0.032 C 
ATOM     27  C   UNL     1      -2.081  -8.942   2.037  0.00  0.00    +0.030 C 
ATOM     28  C   UNL     1      -2.750  -7.551   2.035  0.00  0.00    +0.160 C 
ATOM     29  O   UNL     1      -2.073  -6.742   3.007  0.00  0.00    -0.378 OA
ENDBRANCH  24  25
ENDBRANCH  22  24
BRANCH  22  30
ATOM     30  C   UNL     1      -1.084  -5.260   6.559  0.00  0.00    -0.044 C 
BRANCH  30  31
ATOM     31  C   UNL     1      -2.606  -5.394   6.646  0.00  0.00    +0.124 C 
BRANCH  31  32
ATOM     32  O   UNL     1      -3.213  -4.585   5.636  0.00  0.00    -0.391 OA
ATOM     33  H   UNL     1      -3.005  -3.644   5.707  0.00  0.00    +0.210 HD
ENDBRANCH  31  32
BRANCH  31  34
ATOM     34  C   UNL     1      -3.081  -4.929   8.024  0.00  0.00    +0.189 C 
BRANCH  34  35
ATOM     35  O   UNL     1      -4.485  -5.162   8.148  0.00  0.00    -0.375 OA
BRANCH  35  36
ATOM     36  C   UNL     1      -5.033  -4.761   9.405  0.00  0.00    +0.112 C 
ATOM     37  C   UNL     1      -6.491  -4.340   9.216  0.00  0.00    +0.037 C 
ATOM     38  C   UNL     1      -4.964  -5.932  10.388  0.00  0.00    +0.037 C 
ENDBRANCH  35  36
ENDBRANCH  34  35
ENDBRANCH  31  34
ENDBRANCH  30  31
ENDBRANCH  22  30
ENDBRANCH  21  22
ENDBRANCH   2  21
TORSDOF 13
