REMARK  Name = ZINC01943835
REMARK  6 active torsions:
REMARK  status: ('A' for Active; 'I' for Inactive)
REMARK    1  A    between atoms: C_6  and  O_11
REMARK    2  A    between atoms: O_11  and  C_12
REMARK    3  A    between atoms: C_17  and  O_23
REMARK    4  A    between atoms: O_23  and  C_24
REMARK    5  A    between atoms: C_24  and  C_25
REMARK    6  A    between atoms: N_27  and  C_28
REMARK                            x       y       z     vdW  Elec       q    Type
REMARK                         _______ _______ _______ _____ _____    ______ ____
ROOT
ATOM      1  C   UNL     1       5.824   3.191  -0.147  0.00  0.00    +0.210 A 
ATOM      2  C   UNL     1       5.703   1.849  -0.190  0.00  0.00    +0.245 A 
ATOM      3  O   UNL     1       6.760   1.027  -0.203  0.00  0.00    -0.459 OA
ATOM      4  C   UNL     1       8.029   1.480  -0.162  0.00  0.00    +0.142 A 
ATOM      5  C   UNL     1       9.102   0.599  -0.171  0.00  0.00    +0.092 A 
ATOM      6  C   UNL     1      10.395   1.092  -0.128  0.00  0.00    +0.125 A 
ATOM      7  C   UNL     1      10.629   2.465  -0.075  0.00  0.00    +0.046 A 
ATOM      8  C   UNL     1       9.585   3.344  -0.067  0.00  0.00    +0.019 A 
ATOM      9  C   UNL     1       8.275   2.863  -0.109  0.00  0.00    +0.068 A 
ATOM     10  C   UNL     1       7.120   3.778  -0.101  0.00  0.00    +0.234 A 
ATOM     11  O   UNL     1       7.269   4.988  -0.056  0.00  0.00    -0.283 OA
ENDROOT
BRANCH   1  12
ATOM     12  O   UNL     1       4.714   3.979  -0.142  0.00  0.00    -0.449 OA
BRANCH  12  18
ATOM     13  C   UNL     1       1.603   6.401  -5.075  0.00  0.00    +0.001 A 
ATOM     14  C   UNL     1       0.898   6.688  -3.908  0.00  0.00    +0.001 A 
ATOM     15  C   UNL     1       1.356   6.277  -2.694  0.00  0.00    +0.008 A 
ATOM     16  C   UNL     1       2.556   5.549  -2.613  0.00  0.00    -0.014 A 
ATOM     17  C   UNL     1       3.059   5.110  -1.378  0.00  0.00    +0.054 A 
ATOM     18  C   UNL     1       4.228   4.404  -1.337  0.00  0.00    +0.129 A 
ATOM     19  C   UNL     1       4.931   4.113  -2.511  0.00  0.00    +0.047 A 
ATOM     20  C   UNL     1       4.470   4.524  -3.723  0.00  0.00    +0.012 A 
ATOM     21  C   UNL     1       3.270   5.252  -3.801  0.00  0.00    -0.018 A 
ATOM     22  C   UNL     1       2.765   5.693  -5.036  0.00  0.00    +0.008 A 
ENDBRANCH  12  18
ENDBRANCH   1  12
BRANCH   6  23
ATOM     23  O   UNL     1      11.444   0.231  -0.137  0.00  0.00    -0.483 OA
BRANCH  23  24
ATOM     24  C   UNL     1      12.753   0.802  -0.091  0.00  0.00    +0.324 C 
BRANCH  24  25
ATOM     25  C   UNL     1      13.782  -0.299  -0.109  0.00  0.00    +0.255 C 
ATOM     26  O   UNL     1      13.429  -1.458  -0.156  0.00  0.00    -0.272 OA
ATOM     27  N   UNL     1      15.095   0.005  -0.072  0.00  0.00    -0.281 N 
ATOM     28  H   UNL     1      15.376   0.925   0.052  0.00  0.00    +0.155 HD
BRANCH  27  29
ATOM     29  C   UNL     1      16.052  -1.007  -0.212  0.00  0.00    +0.053 A 
ATOM     30  C   UNL     1      15.729  -2.182  -0.878  0.00  0.00    +0.044 A 
ATOM     31  C   UNL     1      16.678  -3.177  -1.020  0.00  0.00    +0.043 A 
ATOM     32  C   UNL     1      17.945  -3.007  -0.489  0.00  0.00    +0.021 A 
ATOM     33  C   UNL     1      18.268  -1.841   0.178  0.00  0.00    +0.023 A 
ATOM     34  C   UNL     1      17.325  -0.840   0.319  0.00  0.00    +0.062 A 
ATOM     35 CL   UNL     1      17.731   0.625   1.157  0.00  0.00    -0.082 Cl
ATOM     36 CL   UNL     1      16.277  -4.644  -1.857  0.00  0.00    -0.083 Cl
ENDBRANCH  27  29
ENDBRANCH  24  25
ENDBRANCH  23  24
ENDBRANCH   6  23
TORSDOF 6
