REMARK  Name = ZINC12470643
REMARK  8 active torsions:
REMARK  status: ('A' for Active; 'I' for Inactive)
REMARK    1  A    between atoms: C_1  and  C_2
REMARK    2  A    between atoms: C_4  and  C_35
REMARK    3  A    between atoms: C_7  and  C_14
REMARK    4  A    between atoms: C_14  and  C_16
REMARK    5  A    between atoms: C_14  and  N_63
REMARK    6  A    between atoms: N_20  and  C_21
REMARK    7  A    between atoms: C_21  and  C_22
REMARK    8  A    between atoms: C_31  and  C_34
REMARK                            x       y       z     vdW  Elec       q    Type
REMARK                         _______ _______ _______ _____ _____    ______ ____
ROOT
ATOM      1  C   UNL     1      -3.245   6.213   1.312  0.00  0.00    +0.039 C 
ENDROOT
BRANCH   1   8
ATOM      2  C   UNL     1       0.666  -0.711   0.691  0.00  0.00    +0.044 C 
ATOM      3  C   UNL     1      -0.255   0.481   0.719  0.00  0.00    -0.048 A 
ATOM      4  C   UNL     1      -1.562   0.351   0.268  0.00  0.00    +0.007 A 
ATOM      5  C   UNL     1      -2.411   1.420   0.280  0.00  0.00    -0.041 A 
ATOM      6  C   UNL     1      -1.964   2.655   0.761  0.00  0.00    +0.002 A 
ATOM      7  C   UNL     1      -2.850   3.821   0.793  0.00  0.00    +0.018 A 
ATOM      8  C   UNL     1      -2.360   4.994   1.265  0.00  0.00    +0.011 A 
ATOM      9  C   UNL     1      -1.024   5.077   1.713  0.00  0.00    +0.251 A 
ATOM     10  O   UNL     1      -0.604   6.141   2.133  0.00  0.00    -0.268 OA
ATOM     11  N   UNL     1      -0.203   4.012   1.687  0.00  0.00    -0.322 N 
ATOM     12  H   UNL     1       0.709   4.105   2.002  0.00  0.00    +0.169 HD
ATOM     13  C   UNL     1      -0.640   2.792   1.219  0.00  0.00    +0.050 A 
ATOM     14  C   UNL     1       0.208   1.690   1.192  0.00  0.00    +0.029 A 
ATOM     15  C   UNL     1      -3.825   1.269  -0.219  0.00  0.00    +0.044 C 
ENDBRANCH   1   8
BRANCH   1  22
ATOM     16  C   UNL     1      -2.288   6.918  -0.797  0.00  0.00    -0.077 C 
ATOM     17  C   UNL     1      -1.491   8.032  -1.480  0.00  0.00    -0.018 C 
ATOM     18  C   UNL     1      -2.318   9.321  -1.474  0.00  0.00    -0.001 C 
ATOM     19  C   UNL     1      -2.672   9.684  -0.030  0.00  0.00    -0.031 C 
ATOM     20  C   UNL     1      -3.434   8.522   0.611  0.00  0.00    -0.074 C 
ATOM     21  C   UNL     1      -3.548  10.938  -0.019  0.00  0.00    +0.005 C 
ATOM     22  N   UNL     1      -2.576   7.319   0.596  0.00  0.00    +0.389 N 
ATOM     23  H   UNL     1      -1.691   7.535   1.070  0.00  0.00    -0.080 HD
ENDBRANCH   1  22
BRANCH   1  24
ATOM     24  C   UNL     1      -3.463   6.621   2.746  0.00  0.00    +0.143 A 
ATOM     25  N   UNL     1      -2.550   7.040   3.588  0.00  0.00    -0.115 NA
ATOM     26  N   UNL     1      -3.129   7.292   4.711  0.00  0.00    -0.023 NA
ATOM     27  N   UNL     1      -4.387   7.035   4.609  0.00  0.00    -0.044 NA
ATOM     28  N   UNL     1      -4.632   6.620   3.413  0.00  0.00    -0.226 N 
BRANCH  28  29
ATOM     29  C   UNL     1      -5.937   6.221   2.880  0.00  0.00    +0.182 C 
BRANCH  29  30
ATOM     30  C   UNL     1      -6.206   4.781   3.234  0.00  0.00    -0.026 A 
ATOM     31  C   UNL     1      -5.932   3.782   2.318  0.00  0.00    +0.005 A 
ATOM     32  C   UNL     1      -6.174   2.461   2.644  0.00  0.00    +0.000 A 
ATOM     33  C   UNL     1      -6.699   2.139   3.882  0.00  0.00    +0.000 A 
ATOM     34  C   UNL     1      -6.978   3.138   4.795  0.00  0.00    +0.000 A 
ATOM     35  C   UNL     1      -6.731   4.459   4.471  0.00  0.00    +0.005 A 
ENDBRANCH  29  30
ENDBRANCH  28  29
ENDBRANCH   1  24
TORSDOF 5
