REMARK  Name = ZINC00823590
REMARK  6 active torsions:
REMARK  status: ('A' for Active; 'I' for Inactive)
REMARK    1  A    between atoms: C_1  and  C_2
REMARK    2  A    between atoms: C_5  and  O_8
REMARK    3  A    between atoms: O_8  and  C_9
REMARK    4  A    between atoms: C_9  and  C_11
REMARK    5  A    between atoms: C_12  and  C_26
REMARK    6  A    between atoms: C_17  and  C_19
REMARK                            x       y       z     vdW  Elec       q    Type
REMARK                         _______ _______ _______ _____ _____    ______ ____
ROOT
ATOM      1  C   UNL     1       3.219   0.943   1.338  0.00  0.00    +0.078 C 
ATOM      2  C   UNL     1       4.318   1.714   1.484  0.00  0.00    +0.021 C 
ATOM      3  N   UNL     1       4.862   2.374   0.419  0.00  0.00    -0.273 N 
ATOM      4  C   UNL     1       4.368   2.313  -0.824  0.00  0.00    +0.304 C 
ATOM      5  O   UNL     1       4.922   2.936  -1.708  0.00  0.00    -0.252 OA
ATOM      6  N   UNL     1       3.275   1.585  -1.126  0.00  0.00    -0.288 N 
ATOM      7  C   UNL     1       2.612   0.835  -0.046  0.00  0.00    +0.143 C 
ATOM      8  C   UNL     1       4.953   1.850   2.844  0.00  0.00    +0.061 C 
ATOM      9  H   UNL     1       5.652   2.917   0.572  0.00  0.00    +0.156 HD
ATOM     10  H   UNL     1       2.934   1.555  -2.034  0.00  0.00    +0.151 HD
ENDROOT
BRANCH   7  11
ATOM     11  C   UNL     1       1.182   1.304   0.035  0.00  0.00    -0.022 A 
ATOM     12  C   UNL     1       0.149   0.392  -0.066  0.00  0.00    +0.007 A 
ATOM     13  C   UNL     1      -1.163   0.822   0.004  0.00  0.00    +0.015 A 
ATOM     14  C   UNL     1      -1.441   2.165   0.185  0.00  0.00    +0.018 A 
ATOM     15  C   UNL     1      -0.406   3.078   0.286  0.00  0.00    +0.015 A 
ATOM     16  C   UNL     1       0.905   2.647   0.211  0.00  0.00    +0.007 A 
ATOM     17 BR   UNL     1      -3.235   2.754   0.287  0.00  0.00    -0.050 Br
ENDBRANCH   7  11
BRANCH   1  18
ATOM     18  C   UNL     1       2.653   0.260   2.440  0.00  0.00    +0.339 C 
ATOM     19  O   UNL     1       3.124   0.405   3.553  0.00  0.00    -0.245 OA
BRANCH  18  20
ATOM     20  O   UNL     1       1.591  -0.552   2.258  0.00  0.00    -0.458 OA
BRANCH  20  25
ATOM     21  C   UNL     1       0.168  -4.641   0.834  0.00  0.00    +0.007 C 
ATOM     22  C   UNL     1       0.327  -3.786   2.093  0.00  0.00    -0.014 C 
ATOM     23  C   UNL     1      -0.499  -2.507   1.949  0.00  0.00    +0.007 C 
ATOM     24  C   UNL     1      -0.340  -1.652   3.208  0.00  0.00    +0.045 C 
ATOM     25  C   UNL     1       1.135  -1.289   3.394  0.00  0.00    +0.177 C 
ATOM     26  C   UNL     1       1.961  -2.568   3.538  0.00  0.00    +0.045 C 
ATOM     27  C   UNL     1       1.802  -3.423   2.279  0.00  0.00    +0.007 C 
ENDBRANCH  20  25
ENDBRANCH  18  20
ENDBRANCH   1  18
TORSDOF 4
