REMARK  Name = ZINC36207435
REMARK  15 active torsions:
REMARK  status: ('A' for Active; 'I' for Inactive)
REMARK    1  A    between atoms: C_1  and  C_2
REMARK    2  A    between atoms: C_8  and  C_19
REMARK    3  A    between atoms: C_12  and  C_13
REMARK    4  A    between atoms: C_13  and  O_15
REMARK    5  A    between atoms: O_15  and  C_16
REMARK    6  A    between atoms: C_16  and  C_17
REMARK    7  A    between atoms: C_16  and  C_18
REMARK    8  A    between atoms: C_19  and  N_20
REMARK    9  A    between atoms: N_20  and  C_21
REMARK   10  A    between atoms: N_20  and  C_34
REMARK   11  A    between atoms: C_21  and  C_22
REMARK   12  A    between atoms: C_22  and  C_24
REMARK   13  A    between atoms: C_22  and  O_33
REMARK   14  A    between atoms: C_24  and  O_25
REMARK   15  A    between atoms: O_25  and  C_26
REMARK                            x       y       z     vdW  Elec       q    Type
REMARK                         _______ _______ _______ _____ _____    ______ ____
ROOT
ATOM      1  C   UNL     1      -0.063  -3.551  -4.466  0.00  0.00    -0.003 C 
ENDROOT
BRANCH   1   9
ATOM      2  C   UNL     1      -0.924   1.028   0.283  0.00  0.00    +0.046 C 
ATOM      3  C   UNL     1      -0.682  -0.458   0.222  0.00  0.00    -0.015 A 
ATOM      4  C   UNL     1      -0.548  -1.095  -1.012  0.00  0.00    +0.076 A 
ATOM      5  C   UNL     1      -0.607  -0.518  -2.375  0.00  0.00    +0.260 A 
ATOM      6  O   UNL     1      -0.795   0.674  -2.541  0.00  0.00    -0.267 OA
ATOM      7  N   UNL     1      -0.446  -1.345  -3.426  0.00  0.00    -0.312 N 
ATOM      8  H   UNL     1      -0.481  -0.983  -4.325  0.00  0.00    +0.170 HD
ATOM      9  C   UNL     1      -0.235  -2.674  -3.253  0.00  0.00    +0.094 A 
ATOM     10  N   UNL     1      -0.178  -3.214  -2.066  0.00  0.00    -0.229 NA
ATOM     11  C   UNL     1      -0.324  -2.490  -0.964  0.00  0.00    +0.116 A 
ATOM     12  S   UNL     1      -0.311  -2.841   0.776  0.00  0.00    -0.062 S 
ATOM     13  C   UNL     1      -0.588  -1.183   1.375  0.00  0.00    +0.102 A 
BRANCH  13  14
ATOM     14  C   UNL     1      -0.692  -0.717   2.759  0.00  0.00    +0.346 C 
ATOM     15  O   UNL     1      -0.887   0.461   2.991  0.00  0.00    -0.244 OA
BRANCH  14  16
ATOM     16  O   UNL     1      -0.571  -1.594   3.777  0.00  0.00    -0.458 OA
BRANCH  16  17
ATOM     17  C   UNL     1      -0.682  -1.069   5.102  0.00  0.00    +0.171 C 
ATOM     18  C   UNL     1      -2.146  -1.113   5.546  0.00  0.00    +0.052 C 
ATOM     19  C   UNL     1       0.165  -1.912   6.057  0.00  0.00    +0.052 C 
ENDBRANCH  16  17
ENDBRANCH  14  16
ENDBRANCH  13  14
ENDBRANCH   1   9
BRANCH   1  20
ATOM     20  N   UNL     1       0.151  -4.940  -4.039  0.00  0.00    +0.388 N 
ATOM     21  H   UNL     1       0.931  -4.979  -3.400  0.00  0.00    -0.081 HD
BRANCH  20  22
ATOM     22  C   UNL     1      -1.058  -5.438  -3.368  0.00  0.00    -0.068 C 
ATOM     23  C   UNL     1      -0.935  -5.835  -1.896  0.00  0.00    -0.017 C 
ATOM     24  C   UNL     1      -1.087  -6.915  -2.969  0.00  0.00    -0.017 C 
ENDBRANCH  20  22
BRANCH  20  25
ATOM     25  C   UNL     1       0.438  -5.775  -5.213  0.00  0.00    -0.043 C 
BRANCH  25  26
ATOM     26  C   UNL     1       1.760  -5.332  -5.843  0.00  0.00    +0.135 C 
BRANCH  26  27
ATOM     27  O   UNL     1       2.813  -5.472  -4.888  0.00  0.00    -0.390 OA
ATOM     28  H   UNL     1       2.938  -6.377  -4.569  0.00  0.00    +0.210 HD
ENDBRANCH  26  27
BRANCH  26  29
ATOM     29  C   UNL     1       2.060  -6.203  -7.064  0.00  0.00    +0.258 C 
BRANCH  29  30
ATOM     30  O   UNL     1       3.233  -5.716  -7.720  0.00  0.00    -0.489 OA
BRANCH  30  31
ATOM     31  C   UNL     1       3.640  -6.383  -8.832  0.00  0.00    +0.121 A 
ATOM     32  C   UNL     1       2.922  -7.480  -9.286  0.00  0.00    +0.047 A 
ATOM     33  C   UNL     1       3.337  -8.157 -10.416  0.00  0.00    +0.023 A 
ATOM     34  C   UNL     1       4.469  -7.742 -11.096  0.00  0.00    +0.041 A 
ATOM     35  C   UNL     1       5.186  -6.648 -10.645  0.00  0.00    +0.023 A 
ATOM     36  C   UNL     1       4.771  -5.965  -9.518  0.00  0.00    +0.047 A 
ATOM     37 CL   UNL     1       4.989  -8.594 -12.516  0.00  0.00    -0.084 Cl
ENDBRANCH  30  31
ENDBRANCH  29  30
ENDBRANCH  26  29
ENDBRANCH  25  26
ENDBRANCH  20  25
ENDBRANCH   1  20
TORSDOF 12
