REMARK  Name = ZINC08722171
REMARK  7 active torsions:
REMARK  status: ('A' for Active; 'I' for Inactive)
REMARK    1  A    between atoms: C_4  and  C_7
REMARK    2  A    between atoms: C_7  and  N_62
REMARK    3  A    between atoms: C_18  and  C_21
REMARK    4  A    between atoms: C_24  and  O_27
REMARK    5  A    between atoms: O_27  and  C_28
REMARK    6  A    between atoms: C_28  and  C_30
REMARK    7  A    between atoms: C_31  and  C_32
REMARK                            x       y       z     vdW  Elec       q    Type
REMARK                         _______ _______ _______ _____ _____    ______ ____
ROOT
ATOM      1  C   UNL     1       1.346  -3.779  -1.422  0.00  0.00    -0.073 C 
ATOM      2  C   UNL     1       0.883  -4.282  -2.792  0.00  0.00    +0.018 C 
ATOM      3  C   UNL     1       1.870  -3.783  -3.841  0.00  0.00    -0.027 A 
ATOM      4  C   UNL     1       2.706  -2.760  -3.550  0.00  0.00    -0.021 A 
ATOM      5  S   UNL     1       3.658  -2.514  -5.024  0.00  0.00    -0.080 S 
ATOM      6  C   UNL     1       2.962  -3.737  -5.999  0.00  0.00    +0.080 A 
ATOM      7  C   UNL     1       1.994  -4.337  -5.178  0.00  0.00    +0.068 A 
ATOM      8  C   UNL     1       1.204  -5.449  -5.754  0.00  0.00    +0.248 C 
ATOM      9  O   UNL     1       0.265  -5.937  -5.152  0.00  0.00    -0.270 OA
ATOM     10  N   UNL     1       1.567  -5.899  -6.973  0.00  0.00    -0.289 N 
ATOM     11  C   UNL     1       2.811  -5.518  -7.634  0.00  0.00    +0.190 C 
ATOM     12  N   UNL     1       3.197  -4.137  -7.289  0.00  0.00    -0.316 N 
ATOM     13  C   UNL     1       2.785  -2.016  -2.253  0.00  0.00    -0.035 C 
ATOM     14  H   UNL     1       0.971  -6.510  -7.433  0.00  0.00    +0.151 HD
ATOM     15  H   UNL     1       3.599  -3.542  -7.942  0.00  0.00    +0.149 HD
ATOM     16  N   UNL     1       1.555  -2.318  -1.481  0.00  0.00    +0.386 N 
ATOM     17  H   UNL     1       0.751  -1.884  -1.950  0.00  0.00    -0.081 HD
ENDROOT
BRANCH  11  18
ATOM     18  C   UNL     1       3.907  -6.459  -7.207  0.00  0.00    -0.009 A 
ATOM     19  C   UNL     1       5.221  -6.028  -7.193  0.00  0.00    +0.010 A 
ATOM     20  C   UNL     1       6.227  -6.888  -6.797  0.00  0.00    +0.047 A 
ATOM     21  C   UNL     1       5.919  -8.188  -6.423  0.00  0.00    +0.132 A 
ATOM     22  C   UNL     1       4.601  -8.620  -6.443  0.00  0.00    +0.047 A 
ATOM     23  C   UNL     1       3.598  -7.754  -6.835  0.00  0.00    +0.010 A 
BRANCH  21  24
ATOM     24  O   UNL     1       6.908  -9.037  -6.038  0.00  0.00    -0.423 OA
BRANCH  24  25
ATOM     25  C   UNL     1       7.210 -10.070  -6.853  0.00  0.00    +0.337 C 
ATOM     26  O   UNL     1       6.677 -10.160  -7.944  0.00  0.00    -0.245 OA
BRANCH  25  27
ATOM     27  C   UNL     1       8.143 -11.047  -6.441  0.00  0.00    +0.095 C 
ATOM     28  C   UNL     1       8.446 -12.085  -7.260  0.00  0.00    +0.053 C 
BRANCH  28  29
ATOM     29  C   UNL     1       9.382 -13.064  -6.847  0.00  0.00    +0.128 A 
ATOM     30  C   UNL     1       9.781 -14.166  -7.575  0.00  0.00    +0.049 A 
ATOM     31  C   UNL     1      10.713 -14.852  -6.781  0.00  0.00    +0.042 A 
ATOM     32  C   UNL     1      10.843 -14.159  -5.628  0.00  0.00    +0.195 A 
ATOM     33  O   UNL     1      10.047 -13.082  -5.673  0.00  0.00    -0.464 OA
ENDBRANCH  28  29
ENDBRANCH  25  27
ENDBRANCH  24  25
ENDBRANCH  21  24
ENDBRANCH  11  18
BRANCH  16  34
ATOM     34  C   UNL     1       1.669  -1.767  -0.114  0.00  0.00    -0.043 C 
BRANCH  34  38
ATOM     35  C   UNL     1       1.664   2.499  -0.335  0.00  0.00    +0.000 A 
ATOM     36  C   UNL     1       0.470   1.812  -0.219  0.00  0.00    +0.000 A 
ATOM     37  C   UNL     1       0.472   0.431  -0.148  0.00  0.00    +0.002 A 
ATOM     38  C   UNL     1       1.667  -0.262  -0.192  0.00  0.00    -0.064 A 
ATOM     39  C   UNL     1       2.861   0.426  -0.309  0.00  0.00    +0.002 A 
ATOM     40  C   UNL     1       2.859   1.806  -0.381  0.00  0.00    +0.000 A 
ENDBRANCH  34  38
ENDBRANCH  16  34
TORSDOF 7
