REMARK  Name = ZINC02740831
REMARK  10 active torsions:
REMARK  status: ('A' for Active; 'I' for Inactive)
REMARK    1  A    between atoms: C_1  and  C_2
REMARK    2  A    between atoms: C_2  and  C_4
REMARK    3  A    between atoms: C_2  and  S_15
REMARK    4  A    between atoms: N_6  and  N_7
REMARK    5  A    between atoms: C_8  and  C_9
REMARK    6  A    between atoms: S_15  and  C_16
REMARK    7  A    between atoms: C_19  and  C_27
REMARK    8  A    between atoms: N_20  and  C_21
REMARK    9  A    between atoms: C_27  and  N_28
REMARK   10  A    between atoms: N_28  and  C_29
REMARK                            x       y       z     vdW  Elec       q    Type
REMARK                         _______ _______ _______ _____ _____    ______ ____
ROOT
ATOM      1  C   UNL     1      -6.568   5.265  -0.528  0.00  0.00    +0.197 A 
ATOM      2  N   UNL     1      -6.489   5.205   0.781  0.00  0.00    -0.122 NA
ATOM      3  N   UNL     1      -5.527   4.427   1.127  0.00  0.00    -0.132 NA
ATOM      4  C   UNL     1      -4.931   3.953   0.069  0.00  0.00    +0.156 A 
ATOM      5  N   UNL     1      -5.574   4.466  -1.025  0.00  0.00    -0.273 N 
ENDROOT
BRANCH   5   6
ATOM      6  C   UNL     1      -5.277   4.224  -2.374  0.00  0.00    +0.050 A 
ATOM      7  C   UNL     1      -4.069   4.654  -2.908  0.00  0.00    +0.026 A 
ATOM      8  C   UNL     1      -3.776   4.408  -4.235  0.00  0.00    +0.002 A 
ATOM      9  C   UNL     1      -4.689   3.747  -5.036  0.00  0.00    +0.000 A 
ATOM     10  C   UNL     1      -5.896   3.323  -4.508  0.00  0.00    +0.002 A 
ATOM     11  C   UNL     1      -6.191   3.560  -3.180  0.00  0.00    +0.026 A 
ENDBRANCH   5   6
BRANCH   1  12
ATOM     12  S   UNL     1      -7.732   6.196  -1.467  0.00  0.00    -0.073 S 
BRANCH  12  14
ATOM     13  C   UNL     1      -9.410   5.872   0.664  0.00  0.00    +0.029 C 
ATOM     14  C   UNL     1      -8.679   6.959  -0.126  0.00  0.00    +0.139 C 
BRANCH  14  15
ATOM     15  C   UNL     1      -9.683   7.922  -0.705  0.00  0.00    +0.245 C 
ATOM     16  O   UNL     1     -10.083   7.772  -1.840  0.00  0.00    -0.273 OA
ATOM     17  N   UNL     1     -10.137   8.950   0.039  0.00  0.00    -0.206 N 
ATOM     18  H   UNL     1      -9.817   9.070   0.947  0.00  0.00    +0.177 HD
BRANCH  17  19
ATOM     19  N   UNL     1     -11.071   9.845  -0.499  0.00  0.00    -0.188 NA
ATOM     20  C   UNL     1     -11.508  10.835   0.217  0.00  0.00    +0.138 C 
BRANCH  20  21
ATOM     21  C   UNL     1     -12.491  11.777  -0.349  0.00  0.00    -0.005 A 
ATOM     22  C   UNL     1     -12.950  11.611  -1.658  0.00  0.00    +0.009 A 
ATOM     23  C   UNL     1     -13.873  12.492  -2.179  0.00  0.00    +0.001 A 
ATOM     24  C   UNL     1     -14.337  13.547  -1.413  0.00  0.00    +0.000 A 
ATOM     25  C   UNL     1     -13.883  13.722  -0.117  0.00  0.00    +0.001 A 
ATOM     26  C   UNL     1     -12.964  12.844   0.419  0.00  0.00    +0.009 A 
ENDBRANCH  20  21
ENDBRANCH  17  19
ENDBRANCH  14  15
ENDBRANCH  12  14
ENDBRANCH   1  12
BRANCH   4  27
ATOM     27  C   UNL     1      -3.756   3.009   0.054  0.00  0.00    +0.178 C 
BRANCH  27  28
ATOM     28  N   UNL     1      -2.510   3.780   0.045  0.00  0.00    -0.336 N 
ATOM     29  H   UNL     1      -2.540   4.750   0.050  0.00  0.00    +0.147 HD
BRANCH  28  30
ATOM     30  C   UNL     1      -1.283   3.121   0.031  0.00  0.00    +0.035 A 
ATOM     31  C   UNL     1      -1.233   1.744   0.017  0.00  0.00    +0.023 A 
ATOM     32  C   UNL     1      -0.013   1.076   0.008  0.00  0.00    +0.002 A 
ATOM     33  C   UNL     1       1.164   1.762   0.000  0.00  0.00    +0.008 A 
ATOM     34  C   UNL     1       1.157   3.167   0.007  0.00  0.00    -0.016 A 
ATOM     35  C   UNL     1      -0.079   3.858   0.023  0.00  0.00    +0.003 A 
ATOM     36  C   UNL     1      -0.084   5.262   0.029  0.00  0.00    +0.010 A 
ATOM     37  C   UNL     1       1.097   5.940   0.021  0.00  0.00    +0.001 A 
ATOM     38  C   UNL     1       2.313   5.261   0.006  0.00  0.00    +0.001 A 
ATOM     39  C   UNL     1       2.356   3.901  -0.001  0.00  0.00    +0.008 A 
ENDBRANCH  28  30
ENDBRANCH  27  28
ENDBRANCH   4  27
TORSDOF 9
