REMARK  Name = ZINC12882198
REMARK  19 active torsions:
REMARK  status: ('A' for Active; 'I' for Inactive)
REMARK    1  A    between atoms: C_1  and  C_2
REMARK    2  A    between atoms: C_2  and  C_3
REMARK    3  A    between atoms: C_3  and  C_5
REMARK    4  A    between atoms: C_3  and  C_6
REMARK    5  A    between atoms: C_6  and  C_8
REMARK    6  A    between atoms: C_6  and  N_29
REMARK    7  A    between atoms: N_10  and  C_11
REMARK    8  A    between atoms: C_11  and  C_12
REMARK    9  A    between atoms: C_15  and  C_18
REMARK   10  A    between atoms: N_20  and  CA_21
REMARK   11  A    between atoms: CA_21  and  CB_23
REMARK   12  A    between atoms: CA_21  and  C_27
REMARK   13  A    between atoms: CB_23  and  CG2_25
REMARK   14  A    between atoms: CB_23  and  OG1_26
REMARK   15  A    between atoms: C_30  and  O_32
REMARK   16  A    between atoms: O_32  and  C_33
REMARK   17  A    between atoms: C_33  and  C_34
REMARK   18  A    between atoms: C_33  and  C_35
REMARK   19  A    between atoms: C_33  and  C_36
REMARK                            x       y       z     vdW  Elec       q    Type
REMARK                         _______ _______ _______ _____ _____    ______ ____
ROOT
ATOM      1  C   UNK A   0      -1.688   3.615  -2.382  0.00  0.00    +0.107 C 
ENDROOT
BRANCH   1   2
ATOM      2  C   UNK A   0      -1.062   3.059  -3.662  0.00  0.00    +0.006 C 
ATOM      3  C   UNK A   0       0.384   3.546  -3.776  0.00  0.00    +0.006 C 
ATOM      4  C   UNK A   0       1.011   2.991  -5.056  0.00  0.00    +0.013 C 
ATOM      5  C   UNK A   0       0.212   3.477  -6.267  0.00  0.00    +0.075 C 
ATOM      6  C   UNK A   0      -1.234   2.990  -6.154  0.00  0.00    +0.013 C 
ATOM      7  C   UNK A   0      -1.860   3.545  -4.873  0.00  0.00    +0.006 C 
BRANCH   5   8
ATOM      8  C   UNK A   0       0.829   2.930  -7.529  0.00  0.00    +0.217 C 
ATOM      9  O   UNK A   0       0.177   2.220  -8.264  0.00  0.00    -0.275 OA
ATOM     10  N   THR A   1       2.106   3.229  -7.839  0.00  0.00    -0.300 N 
ATOM     11  H   THR A   1       2.628   3.797  -7.250  0.00  0.00    +0.150 HD
BRANCH  10  12
ATOM     12  CA  THR A   1       2.706   2.697  -9.065  0.00  0.00    +0.215 C 
BRANCH  12  13
ATOM     13  C   THR A   1       3.246   1.315  -8.801  0.00  0.00    +0.378 C 
ATOM     14  O   THR A   1       3.141   0.825  -7.702  0.00  0.00    -0.244 OA
ATOM     15  OXT THR A   1       3.844   0.629  -9.788  0.00  0.00    -0.244 OA
ENDBRANCH  12  13
BRANCH  12  16
ATOM     16  CB  THR A   1       3.846   3.613  -9.514  0.00  0.00    +0.143 C 
ATOM     17  CG2 THR A   1       3.323   5.044  -9.661  0.00  0.00    +0.040 C 
BRANCH  16  18
ATOM     18  OG1 THR A   1       4.891   3.586  -8.539  0.00  0.00    -0.390 OA
ATOM     19  HG1 THR A   1       4.617   3.882  -7.660  0.00  0.00    +0.210 HD
ENDBRANCH  16  18
ENDBRANCH  12  16
ENDBRANCH  10  12
ENDBRANCH   5   8
ENDBRANCH   1   2
BRANCH   1  22
ATOM     20  C   UNK A   0      -1.382   3.404   0.026  0.00  0.00    +0.234 C 
ATOM     21  O   UNK A   0      -2.358   4.106   0.185  0.00  0.00    -0.274 OA
ATOM     22  N   UNK A   0      -0.998   3.054  -1.217  0.00  0.00    -0.314 N 
ATOM     23  H   UNK A   0      -0.265   2.432  -1.342  0.00  0.00    +0.149 HD
BRANCH  20  24
ATOM     24  C   UNK A   0      -0.598   2.922   1.220  0.00  0.00    +0.165 C 
BRANCH  24  25
ATOM     25  N   UNK A   0      -0.913   3.759   2.381  0.00  0.00    -0.270 N 
ATOM     26  C   UNK A   0      -0.025   3.876   3.388  0.00  0.00    +0.401 C 
ATOM     27  O   UNK A   0       1.037   3.288   3.333  0.00  0.00    -0.226 OA
ATOM     28  H   UNK A   0      -1.761   4.228   2.425  0.00  0.00    +0.153 HD
BRANCH  26  29
ATOM     29  O   UNK A   0      -0.314   4.645   4.455  0.00  0.00    -0.445 OA
BRANCH  29  30
ATOM     30  C   UNK A   0       0.689   4.724   5.501  0.00  0.00    +0.107 C 
ATOM     31  C   UNK A   0       1.985   5.295   4.923  0.00  0.00    +0.055 C 
ATOM     32  C   UNK A   0       0.186   5.636   6.622  0.00  0.00    +0.055 C 
ATOM     33  C   UNK A   0       0.953   3.326   6.062  0.00  0.00    +0.055 C 
ENDBRANCH  29  30
ENDBRANCH  26  29
ENDBRANCH  24  25
BRANCH  24  34
ATOM     34  C   UNK A   0      -0.971   1.469   1.522  0.00  0.00    +0.015 C 
ATOM     35  C   UNK A   0      -2.426   1.403   1.992  0.00  0.00    +0.010 C 
BRANCH  34  37
ATOM     36  C   UNK A   0       1.381   0.855   2.099  0.00  0.00    +0.004 C 
ATOM     37  C   UNK A   0      -0.056   0.926   2.621  0.00  0.00    +0.002 C 
ENDBRANCH  34  37
ENDBRANCH  24  34
ENDBRANCH  20  24
ENDBRANCH   1  22
TORSDOF 13
