REMARK  Name = ZINC02963851
REMARK  7 active torsions:
REMARK  status: ('A' for Active; 'I' for Inactive)
REMARK    1  A    between atoms: C_1  and  C_2
REMARK    2  A    between atoms: C_2  and  O_3
REMARK    3  A    between atoms: O_3  and  C_4
REMARK    4  A    between atoms: N_12  and  C_13
REMARK    5  A    between atoms: C_17  and  C_19
REMARK    6  A    between atoms: C_20  and  C_22
REMARK    7  A    between atoms: C_24  and  C_27
REMARK                            x       y       z     vdW  Elec       q    Type
REMARK                         _______ _______ _______ _____ _____    ______ ____
ROOT
ATOM      1  C   UNL     1      -0.069   3.853   0.051  0.00  0.00    +0.163 A 
ATOM      2  C   UNL     1      -1.245   3.121   0.067  0.00  0.00    +0.049 A 
ATOM      3  C   UNL     1      -1.214   1.735   0.050  0.00  0.00    +0.004 A 
ATOM      4  C   UNL     1      -0.011   1.065   0.030  0.00  0.00    +0.012 A 
ATOM      5  C   UNL     1       1.187   1.788   0.016  0.00  0.00    +0.022 A 
ATOM      6  C   UNL     1       1.155   3.193   0.024  0.00  0.00    +0.179 A 
ATOM      7  O   UNL     1       2.318   3.893   0.005  0.00  0.00    -0.435 OA
ATOM      8  C   UNL     1       3.409   3.284   0.535  0.00  0.00    +0.209 A 
ATOM      9  N   UNL     1       4.267   3.954   1.274  0.00  0.00    -0.325 N 
ATOM     10  C   UNL     1       3.604   1.847   0.257  0.00  0.00    +0.068 A 
ATOM     11  C   UNL     1       2.480   1.098  -0.005  0.00  0.00    +0.027 A 
ATOM     12  H   UNL     1       5.097   3.427   1.767  0.00  0.00    +0.169 HD
ENDROOT
BRANCH   9  13
ATOM     13  C   UNL     1       4.126   5.305   1.429  0.00  0.00    +0.042 A 
ATOM     14  C   UNL     1       4.669   6.181   0.485  0.00  0.00    +0.026 A 
ATOM     15  C   UNL     1       4.518   7.542   0.646  0.00  0.00    +0.002 A 
ATOM     16  C   UNL     1       3.841   8.042   1.744  0.00  0.00    +0.003 A 
ATOM     17  C   UNL     1       3.306   7.181   2.686  0.00  0.00    -0.049 A 
ATOM     18  C   UNL     1       3.444   5.817   2.536  0.00  0.00    +0.029 A 
ATOM     19  C   UNL     1       2.570   7.736   3.879  0.00  0.00    +0.044 C 
ENDBRANCH   9  13
BRANCH  10  20
ATOM     20  C   UNL     1       4.949   1.240   0.259  0.00  0.00    +0.114 A 
ATOM     21  N   UNL     1       5.301  -0.017   0.034  0.00  0.00    -0.239 NA
ATOM     22  C   UNL     1       6.566  -0.391   0.076  0.00  0.00    +0.079 A 
ATOM     23  C   UNL     1       7.534   0.537   0.359  0.00  0.00    +0.075 A 
ATOM     24  S   UNL     1       6.535   2.007   0.559  0.00  0.00    -0.075 S 
BRANCH  22  25
ATOM     25  C   UNL     1       6.937  -1.805  -0.180  0.00  0.00    +0.001 A 
ATOM     26  C   UNL     1       8.274  -2.195  -0.139  0.00  0.00    +0.011 A 
ATOM     27  C   UNL     1       8.613  -3.513  -0.371  0.00  0.00    +0.016 A 
ATOM     28  C   UNL     1       7.629  -4.443  -0.657  0.00  0.00    +0.018 A 
ATOM     29  C   UNL     1       6.300  -4.059  -0.704  0.00  0.00    +0.016 A 
ATOM     30  C   UNL     1       5.949  -2.746  -0.467  0.00  0.00    +0.011 A 
ATOM     31 BR   UNL     1       8.101  -6.245  -0.983  0.00  0.00    -0.050 Br
ENDBRANCH  22  25
ENDBRANCH  10  20
BRANCH   1  32
ATOM     32  O   UNL     1      -0.111   5.212   0.062  0.00  0.00    -0.489 OA
BRANCH  32  34
ATOM     33  C   UNL     1      -1.250   7.343   0.099  0.00  0.00    +0.048 C 
ATOM     34  C   UNL     1      -1.404   5.821   0.090  0.00  0.00    +0.226 C 
ENDBRANCH  32  34
ENDBRANCH   1  32
TORSDOF 5
