REMARK  Name = ZINC36309748
REMARK  15 active torsions:
REMARK  status: ('A' for Active; 'I' for Inactive)
REMARK    1  A    between atoms: C_1  and  C_2
REMARK    2  A    between atoms: C_2  and  C_3
REMARK    3  A    between atoms: C_2  and  N_4
REMARK    4  A    between atoms: N_4  and  C_5
REMARK    5  A    between atoms: N_4  and  C_18
REMARK    6  A    between atoms: C_5  and  C_6
REMARK    7  A    between atoms: C_6  and  C_8
REMARK    8  A    between atoms: C_6  and  O_17
REMARK    9  A    between atoms: C_8  and  O_9
REMARK   10  A    between atoms: O_9  and  C_10
REMARK   11  A    between atoms: C_10  and  C_11
REMARK   12  A    between atoms: C_18  and  C_19
REMARK   13  A    between atoms: C_29  and  C_31
REMARK   14  A    between atoms: C_31  and  O_32
REMARK   15  A    between atoms: O_32  and  C_33
REMARK                            x       y       z     vdW  Elec       q    Type
REMARK                         _______ _______ _______ _____ _____    ______ ____
ROOT
ATOM      1  C   UNL     1      -0.242  -2.429   0.938  0.00  0.00    +0.200 C 
ATOM      2  O   UNL     1      -0.017  -1.704   1.883  0.00  0.00    -0.278 OA
ATOM      3  N   UNL     1       0.113  -3.729   0.986  0.00  0.00    -0.292 N 
ATOM      4  C   UNL     1      -0.150  -4.616  -0.156  0.00  0.00    +0.113 C 
ATOM      5  C   UNL     1       1.199  -5.079  -0.728  0.00  0.00    +0.061 C 
ATOM      6  C   UNL     1       2.104  -5.433   0.407  0.00  0.00    -0.004 A 
ATOM      7  C   UNL     1       1.968  -5.101   1.720  0.00  0.00    -0.014 A 
ATOM      8  C   UNL     1       2.963  -5.552   2.585  0.00  0.00    +0.013 A 
ATOM      9  C   UNL     1       3.995  -6.285   2.107  0.00  0.00    +0.046 A 
ATOM     10  S   UNL     1       3.603  -6.379   0.367  0.00  0.00    -0.101 S 
ATOM     11  C   UNL     1       0.772  -4.277   2.179  0.00  0.00    +0.144 C 
ENDROOT
BRANCH   1  12
ATOM     12  C   UNL     1      -0.918  -1.878  -0.291  0.00  0.00    +0.019 C 
BRANCH  12  13
ATOM     13  N   UNL     1      -1.039  -0.419  -0.170  0.00  0.00    +0.389 N 
ATOM     14  H   UNL     1      -1.254  -0.177   0.785  0.00  0.00    -0.081 HD
BRANCH  13  16
ATOM     15  C   UNL     1       1.353  -0.303   0.338  0.00  0.00    -0.014 C 
ATOM     16  C   UNL     1       0.228   0.211  -0.562  0.00  0.00    -0.074 C 
ATOM     17  C   UNL     1       0.542  -0.135  -2.019  0.00  0.00    -0.014 C 
ENDBRANCH  13  16
BRANCH  13  18
ATOM     18  C   UNL     1      -2.115   0.057  -1.050  0.00  0.00    -0.044 C 
BRANCH  18  19
ATOM     19  C   UNL     1      -2.340   1.553  -0.816  0.00  0.00    +0.124 C 
BRANCH  19  20
ATOM     20  O   UNL     1      -2.763   1.766   0.532  0.00  0.00    -0.391 OA
ATOM     21  H   UNL     1      -3.586   1.314   0.762  0.00  0.00    +0.210 HD
ENDBRANCH  19  20
BRANCH  19  22
ATOM     22  C   UNL     1      -3.418   2.062  -1.775  0.00  0.00    +0.189 C 
BRANCH  22  23
ATOM     23  O   UNL     1      -3.546   3.479  -1.639  0.00  0.00    -0.373 OA
BRANCH  23  24
ATOM     24  C   UNL     1      -4.532   4.058  -2.496  0.00  0.00    +0.195 C 
BRANCH  24  25
ATOM     25  C   UNL     1      -4.581   5.547  -2.269  0.00  0.00    -0.022 A 
ATOM     26  C   UNL     1      -5.429   6.073  -1.313  0.00  0.00    +0.006 A 
ATOM     27  C   UNL     1      -5.475   7.439  -1.105  0.00  0.00    +0.000 A 
ATOM     28  C   UNL     1      -4.671   8.279  -1.854  0.00  0.00    +0.000 A 
ATOM     29  C   UNL     1      -3.823   7.753  -2.810  0.00  0.00    +0.000 A 
ATOM     30  C   UNL     1      -3.775   6.387  -3.014  0.00  0.00    +0.006 A 
ENDBRANCH  24  25
ENDBRANCH  23  24
ENDBRANCH  22  23
ENDBRANCH  19  22
ENDBRANCH  18  19
ENDBRANCH  13  18
ENDBRANCH  12  13
ENDBRANCH   1  12
BRANCH  11  31
ATOM     31  C   UNL     1      -0.204  -5.171   2.946  0.00  0.00    +0.256 C 
BRANCH  31  32
ATOM     32  O   UNL     1      -0.537  -6.308   2.147  0.00  0.00    -0.490 OA
BRANCH  32  33
ATOM     33  C   UNL     1      -1.401  -7.209   2.686  0.00  0.00    +0.121 A 
ATOM     34  C   UNL     1      -1.921  -7.000   3.954  0.00  0.00    +0.048 A 
ATOM     35  C   UNL     1      -2.798  -7.917   4.500  0.00  0.00    +0.042 A 
ATOM     36  C   UNL     1      -3.158  -9.044   3.782  0.00  0.00    +0.124 A 
ATOM     37  C   UNL     1      -2.640  -9.254   2.515  0.00  0.00    +0.042 A 
ATOM     38  C   UNL     1      -1.767  -8.336   1.964  0.00  0.00    +0.048 A 
ATOM     39  F   UNL     1      -4.016  -9.940   4.317  0.00  0.00    -0.205 F 
ENDBRANCH  32  33
ENDBRANCH  31  32
ENDBRANCH  11  31
TORSDOF 13
