REMARK  Name = ZINC39935191
REMARK  8 active torsions:
REMARK  status: ('A' for Active; 'I' for Inactive)
REMARK    1  A    between atoms: C_1  and  C_2
REMARK    2  A    between atoms: C_2  and  C_4
REMARK    3  A    between atoms: C_2  and  S_16
REMARK    4  A    between atoms: N_6  and  C_7
REMARK    5  A    between atoms: C_10  and  C_13
REMARK    6  A    between atoms: S_16  and  C_17
REMARK    7  A    between atoms: C_21  and  C_26
REMARK    8  A    between atoms: N_22  and  C_23
REMARK                            x       y       z     vdW  Elec       q    Type
REMARK                         _______ _______ _______ _____ _____    ______ ____
ROOT
ATOM      1  C   UNL     1       2.596   0.051   1.245  0.00  0.00    +0.238 C 
ATOM      2  N   UNL     1       3.223  -0.462   0.016  0.00  0.00    -0.237 N 
ATOM      3  N   UNL     1       3.686   0.654  -0.690  0.00  0.00    -0.169 NA
ATOM      4  C   UNL     1       3.421   1.763  -0.052  0.00  0.00    +0.147 C 
ATOM      5  N   UNL     1       2.753   1.512   1.153  0.00  0.00    -0.282 N 
ATOM      6  H   UNL     1       3.300  -1.391  -0.251  0.00  0.00    +0.171 HD
ENDROOT
BRANCH   4   7
ATOM      7  C   UNL     1       3.765   3.043  -0.513  0.00  0.00    +0.022 C 
ATOM      8  C   UNL     1       4.349   3.369  -1.738  0.00  0.00    +0.006 A 
ATOM      9  C   UNL     1       4.759   2.586  -2.837  0.00  0.00    +0.010 A 
ATOM     10  C   UNL     1       5.310   3.186  -3.924  0.00  0.00    +0.001 A 
ATOM     11  C   UNL     1       5.484   4.570  -3.985  0.00  0.00    +0.002 A 
ATOM     12  C   UNL     1       5.114   5.383  -2.965  0.00  0.00    +0.026 A 
ATOM     13  C   UNL     1       4.531   4.829  -1.797  0.00  0.00    +0.043 A 
ATOM     14  N   UNL     1       4.094   5.393  -0.688  0.00  0.00    -0.380 N 
ATOM     15  C   UNL     1       3.573   4.358   0.210  0.00  0.00    +0.152 C 
ATOM     16  H   UNL     1       4.110   6.345  -0.498  0.00  0.00    +0.160 HD
ENDBRANCH   4   7
BRANCH   5  17
ATOM     17  C   UNL     1       2.300   2.505   2.130  0.00  0.00    +0.078 C 
ATOM     18  C   UNL     1       2.957   2.489   3.512  0.00  0.00    +0.024 C 
ATOM     19  C   UNL     1       1.518   1.997   3.343  0.00  0.00    +0.024 C 
ENDBRANCH   5  17
BRANCH   1  20
ATOM     20  S   UNL     1       0.838  -0.395   1.295  0.00  0.00    -0.106 S 
BRANCH  20  22
ATOM     21  C   UNL     1       0.262   1.828  -0.190  0.00  0.00    +0.029 C 
ATOM     22  C   UNL     1       0.165   0.302  -0.238  0.00  0.00    +0.133 C 
BRANCH  22  23
ATOM     23  C   UNL     1      -1.279  -0.105  -0.384  0.00  0.00    +0.230 C 
ATOM     24  O   UNL     1      -1.932  -0.384   0.599  0.00  0.00    -0.274 OA
ATOM     25  N   UNL     1      -1.844  -0.160  -1.606  0.00  0.00    -0.285 N 
ATOM     26  H   UNL     1      -1.342   0.127  -2.385  0.00  0.00    +0.155 HD
BRANCH  25  27
ATOM     27  C   UNL     1      -3.149  -0.629  -1.751  0.00  0.00    +0.033 A 
ATOM     28  C   UNL     1      -4.098  -0.354  -0.771  0.00  0.00    +0.024 A 
ATOM     29  C   UNL     1      -5.387  -0.816  -0.911  0.00  0.00    +0.015 A 
ATOM     30  C   UNL     1      -5.742  -1.561  -2.039  0.00  0.00    +0.037 A 
ATOM     31  C   UNL     1      -4.787  -1.835  -3.021  0.00  0.00    +0.015 A 
ATOM     32  C   UNL     1      -3.501  -1.366  -2.877  0.00  0.00    +0.024 A 
BRANCH  30  33
ATOM     33  C   UNL     1      -7.124  -2.058  -2.192  0.00  0.00    +0.242 C 
ATOM     34  O   UNL     1      -7.954  -1.819  -1.336  0.00  0.00    -0.270 OA
ATOM     35  N   UNL     1      -7.465  -2.777  -3.280  0.00  0.00    -0.325 N 
ATOM     36  H   UNL     1      -6.803  -2.967  -3.963  0.00  0.00    +0.145 HD
ATOM     37  H   UNL     1      -8.373  -3.103  -3.381  0.00  0.00    +0.145 HD
ENDBRANCH  30  33
ENDBRANCH  25  27
ENDBRANCH  22  23
ENDBRANCH  20  22
ENDBRANCH   1  20
TORSDOF 7
