REMARK  Name = ZINC67205244
REMARK  11 active torsions:
REMARK  status: ('A' for Active; 'I' for Inactive)
REMARK    1  A    between atoms: C_1  and  C_2
REMARK    2  A    between atoms: C_2  and  C_3
REMARK    3  A    between atoms: C_6  and  C_9
REMARK    4  A    between atoms: C_11  and  C_32
REMARK    5  A    between atoms: C_12  and  C_17
REMARK    6  A    between atoms: C_17  and  N_18
REMARK    7  A    between atoms: N_21  and  C_24
REMARK    8  A    between atoms: C_29  and  C_30
REMARK    9  A    between atoms: C_32  and  O_34
REMARK   10  A    between atoms: O_34  and  C_35
REMARK   11  A    between atoms: C_35  and  C_36
REMARK                            x       y       z     vdW  Elec       q    Type
REMARK                         _______ _______ _______ _____ _____    ______ ____
ROOT
ATOM      1  C   UNL     1       2.800  -1.911   4.690  0.00  0.00    +0.144 C 
ATOM      2  C   UNL     1       2.745  -3.424   4.755  0.00  0.00    +0.079 C 
ATOM      3  C   UNL     1       2.163  -3.986   5.837  0.00  0.00    +0.038 C 
ATOM      4  N   UNL     1       1.642  -3.215   6.837  0.00  0.00    -0.271 N 
ATOM      5  C   UNL     1       1.664  -1.877   6.831  0.00  0.00    +0.304 C 
ATOM      6  O   UNL     1       1.175  -1.276   7.768  0.00  0.00    -0.252 OA
ATOM      7  N   UNL     1       2.210  -1.174   5.820  0.00  0.00    -0.288 N 
ATOM      8  H   UNL     1       1.233  -3.663   7.594  0.00  0.00    +0.156 HD
ATOM      9  H   UNL     1       2.215  -0.204   5.836  0.00  0.00    +0.151 HD
ENDROOT
BRANCH   1  13
ATOM     10  C   UNL     1       0.805  -0.675   1.121  0.00  0.00    -0.048 A 
ATOM     11  C   UNL     1       2.181  -0.811   1.133  0.00  0.00    +0.004 A 
ATOM     12  C   UNL     1       2.826  -1.211   2.288  0.00  0.00    +0.006 A 
ATOM     13  C   UNL     1       2.096  -1.475   3.431  0.00  0.00    -0.022 A 
ATOM     14  C   UNL     1       0.721  -1.339   3.420  0.00  0.00    +0.006 A 
ATOM     15  C   UNL     1       0.075  -0.935   2.266  0.00  0.00    +0.004 A 
BRANCH  10  17
ATOM     16  C   UNL     1       0.001   1.287  -0.164  0.00  0.00    +0.009 C 
ATOM     17  C   UNL     1       0.101  -0.240  -0.138  0.00  0.00    +0.032 C 
ENDBRANCH  10  17
ENDBRANCH   1  13
BRANCH   2  18
ATOM     18  C   UNL     1       3.284  -4.221   3.719  0.00  0.00    +0.339 C 
ATOM     19  O   UNL     1       4.485  -4.403   3.653  0.00  0.00    -0.245 OA
BRANCH  18  20
ATOM     20  O   UNL     1       2.466  -4.780   2.802  0.00  0.00    -0.462 OA
BRANCH  20  21
ATOM     21  C   UNL     1       3.079  -5.573   1.783  0.00  0.00    +0.229 C 
ATOM     22  C   UNL     1       2.001  -6.119   0.845  0.00  0.00    +0.048 C 
ENDBRANCH  20  21
ENDBRANCH  18  20
ENDBRANCH   2  18
BRANCH   3  23
ATOM     23  C   UNL     1       2.086  -5.487   5.942  0.00  0.00    +0.136 C 
BRANCH  23  24
ATOM     24  N   UNL     1       2.881  -5.939   7.091  0.00  0.00    -0.294 NA
ATOM     25  C   UNL     1       4.310  -5.669   6.881  0.00  0.00    +0.103 C 
ATOM     26  C   UNL     1       5.081  -5.986   8.167  0.00  0.00    +0.120 C 
ATOM     27  N   UNL     1       4.762  -7.362   8.576  0.00  0.00    -0.327 N 
ATOM     28  C   UNL     1       3.346  -7.748   8.675  0.00  0.00    +0.120 C 
ATOM     29  C   UNL     1       2.644  -7.362   7.369  0.00  0.00    +0.103 C 
BRANCH  27  30
ATOM     30  C   UNL     1       5.776  -8.279   8.862  0.00  0.00    +0.034 A 
ATOM     31  C   UNL     1       6.265  -8.394  10.157  0.00  0.00    +0.043 A 
ATOM     32  C   UNL     1       7.269  -9.302  10.436  0.00  0.00    +0.043 A 
ATOM     33  C   UNL     1       7.787 -10.095   9.427  0.00  0.00    +0.020 A 
ATOM     34  C   UNL     1       7.302  -9.982   8.137  0.00  0.00    +0.006 A 
ATOM     35  C   UNL     1       6.295  -9.080   7.853  0.00  0.00    -0.029 A 
ATOM     36  C   UNL     1       5.763  -8.963   6.448  0.00  0.00    +0.045 C 
ATOM     37 CL   UNL     1       7.881  -9.447  12.054  0.00  0.00    -0.083 Cl
ENDBRANCH  27  30
ENDBRANCH  23  24
ENDBRANCH   3  23
TORSDOF 8
