REMARK  Name = ZINC08712912
REMARK  8 active torsions:
REMARK  status: ('A' for Active; 'I' for Inactive)
REMARK    1  A    between atoms: N_11  and  C_12
REMARK    2  A    between atoms: C_12  and  C_13
REMARK    3  A    between atoms: N_15  and  C_16
REMARK    4  A    between atoms: N_15  and  C_24
REMARK    5  A    between atoms: C_16  and  C_17
REMARK    6  A    between atoms: C_24  and  C_26
REMARK    7  A    between atoms: C_24  and  C_33
REMARK    8  A    between atoms: N_35  and  C_36
REMARK                            x       y       z     vdW  Elec       q    Type
REMARK                         _______ _______ _______ _____ _____    ______ ____
ROOT
ATOM      1  C   UNL     1       0.469   7.366  -2.382  0.00  0.00    +0.235 C 
ATOM      2  O   UNL     1       0.304   6.731  -3.402  0.00  0.00    -0.274 OA
ATOM      3  N   UNL     1       1.484   8.248  -2.293  0.00  0.00    -0.280 N 
ENDROOT
BRANCH   1   4
ATOM      4  C   UNL     1      -0.462   7.168  -1.213  0.00  0.00    +0.210 C 
BRANCH   4  15
ATOM      5  C   UNL     1      -1.579   2.037  -1.151  0.00  0.00    +0.001 A 
ATOM      6  C   UNL     1      -0.436   2.683  -0.708  0.00  0.00    +0.002 A 
ATOM      7  C   UNL     1      -0.320   4.057  -0.807  0.00  0.00    +0.024 A 
ATOM      8  C   UNL     1      -1.353   4.808  -1.355  0.00  0.00    +0.048 A 
ATOM      9  C   UNL     1      -2.510   4.150  -1.803  0.00  0.00    +0.048 A 
ATOM     10  C   UNL     1      -2.614   2.763  -1.703  0.00  0.00    +0.014 A 
ATOM     11  C   UNL     1      -3.413   5.193  -2.324  0.00  0.00    +0.250 C 
ATOM     12  O   UNL     1      -4.517   5.043  -2.804  0.00  0.00    -0.282 OA
ATOM     13  C   UNL     1      -2.666   6.479  -2.129  0.00  0.00    +0.292 C 
ATOM     14  O   UNL     1      -3.058   7.588  -2.427  0.00  0.00    -0.266 OA
ATOM     15  N   UNL     1      -1.484   6.179  -1.565  0.00  0.00    -0.255 N 
ENDBRANCH   4  15
ENDBRANCH   1   4
BRANCH   3  16
ATOM     16  C   UNL     1       1.678   9.020  -1.063  0.00  0.00    +0.144 C 
BRANCH  16  17
ATOM     17  C   UNL     1       1.209  10.436  -1.279  0.00  0.00    -0.030 A 
ATOM     18  C   UNL     1       2.035  11.349  -1.907  0.00  0.00    +0.008 A 
ATOM     19  C   UNL     1       1.604  12.647  -2.109  0.00  0.00    +0.038 A 
ATOM     20  C   UNL     1       0.348  13.034  -1.674  0.00  0.00    +0.123 A 
ATOM     21  C   UNL     1      -0.477  12.120  -1.040  0.00  0.00    +0.038 A 
ATOM     22  C   UNL     1      -0.045  10.822  -0.844  0.00  0.00    +0.008 A 
ATOM     23  F   UNL     1      -0.073  14.303  -1.867  0.00  0.00    -0.205 F 
ENDBRANCH  16  17
ENDBRANCH   3  16
BRANCH   3  24
ATOM     24  C   UNL     1       2.392   8.436  -3.427  0.00  0.00    +0.193 C 
BRANCH  24  25
ATOM     25  C   UNL     1       3.119   7.146  -3.707  0.00  0.00    -0.018 A 
ATOM     26  C   UNL     1       3.580   6.372  -2.659  0.00  0.00    +0.009 A 
ATOM     27  C   UNL     1       4.242   5.186  -2.914  0.00  0.00    +0.038 A 
ATOM     28  C   UNL     1       4.453   4.779  -4.221  0.00  0.00    +0.123 A 
ATOM     29  C   UNL     1       3.995   5.558  -5.270  0.00  0.00    +0.038 A 
ATOM     30  C   UNL     1       3.329   6.740  -5.012  0.00  0.00    +0.009 A 
ATOM     31  F   UNL     1       5.106   3.622  -4.471  0.00  0.00    -0.205 F 
ENDBRANCH  24  25
BRANCH  24  32
ATOM     32  C   UNL     1       3.392   9.514  -3.096  0.00  0.00    +0.242 C 
ATOM     33  O   UNL     1       3.856   9.589  -1.978  0.00  0.00    -0.273 OA
ATOM     34  N   UNL     1       3.771  10.395  -4.043  0.00  0.00    -0.284 N 
ATOM     35  H   UNL     1       3.321  10.407  -4.903  0.00  0.00    +0.155 HD
BRANCH  34  36
ATOM     36  C   UNL     1       4.814  11.294  -3.787  0.00  0.00    +0.037 A 
ATOM     37  C   UNL     1       4.807  12.552  -4.373  0.00  0.00    +0.027 A 
ATOM     38  C   UNL     1       5.834  13.441  -4.118  0.00  0.00    +0.051 A 
ATOM     39  C   UNL     1       6.878  13.076  -3.284  0.00  0.00    +0.166 A 
ATOM     40  C   UNL     1       6.891  11.812  -2.698  0.00  0.00    +0.168 A 
ATOM     41  C   UNL     1       5.859  10.924  -2.951  0.00  0.00    +0.072 A 
ATOM     42  O   UNL     1       8.013  11.699  -1.929  0.00  0.00    -0.453 OA
ATOM     43  C   UNL     1       8.891  12.751  -2.373  0.00  0.00    +0.466 C 
ATOM     44  O   UNL     1       7.993  13.755  -2.881  0.00  0.00    -0.453 OA
ENDBRANCH  34  36
ENDBRANCH  24  32
ENDBRANCH   3  24
TORSDOF 8
