REMARK  Name = ZINC14748783
REMARK  11 active torsions:
REMARK  status: ('A' for Active; 'I' for Inactive)
REMARK    1  A    between atoms: C_1  and  C_2
REMARK    2  A    between atoms: C_3  and  C_8
REMARK    3  A    between atoms: C_4  and  C_7
REMARK    4  A    between atoms: C_8  and  O_9
REMARK    5  A    between atoms: O_9  and  C_10
REMARK    6  A    between atoms: N_16  and  C_18
REMARK    7  A    between atoms: C_18  and  C_19
REMARK    8  A    between atoms: C_19  and  C_20
REMARK    9  A    between atoms: C_19  and  C_21
REMARK   10  A    between atoms: C_22  and  C_23
REMARK   11  A    between atoms: C_22  and  N_66
REMARK                            x       y       z     vdW  Elec       q    Type
REMARK                         _______ _______ _______ _____ _____    ______ ____
ROOT
ATOM      1  C   UNL     1      -3.266   5.326   0.291  0.00  0.00    +0.120 C 
ATOM      2  C   UNL     1      -3.432   5.806  -1.138  0.00  0.00    -0.044 C 
ATOM      3  C   UNL     1      -1.824   4.319  -2.195  0.00  0.00    +0.019 C 
ATOM      4  C   UNL     1      -0.988   3.835  -1.029  0.00  0.00    +0.199 C 
ATOM      5  O   UNL     1       0.205   3.663  -1.171  0.00  0.00    -0.278 OA
ATOM      6  N   UNL     1      -1.559   3.593   0.154  0.00  0.00    -0.300 N 
ATOM      7  C   UNL     1      -3.004   3.818   0.330  0.00  0.00    +0.137 C 
ATOM      8  N   UNL     1      -2.187   5.732  -1.928  0.00  0.00    +0.391 N 
ATOM      9  H   UNL     1      -1.429   6.172  -1.393  0.00  0.00    -0.080 HD
ENDROOT
BRANCH   1  10
ATOM     10  O   UNL     1      -4.457   5.616   1.026  0.00  0.00    -0.372 OA
BRANCH  10  11
ATOM     11  C   UNL     1      -4.234   5.884   2.412  0.00  0.00    +0.200 C 
BRANCH  11  14
ATOM     12  C   UNL     1      -5.679   8.766   2.780  0.00  0.00    +0.069 C 
ATOM     13  C   UNL     1      -6.187   7.427   3.249  0.00  0.00    +0.086 A 
ATOM     14  C   UNL     1      -5.551   6.175   3.085  0.00  0.00    +0.042 A 
ATOM     15  C   UNL     1      -6.396   5.298   3.677  0.00  0.00    +0.140 A 
ATOM     16  O   UNL     1      -7.431   6.017   4.133  0.00  0.00    -0.359 OA
ATOM     17  N   UNL     1      -7.299   7.193   3.884  0.00  0.00    -0.083 NA
ATOM     18  C   UNL     1      -6.210   3.807   3.799  0.00  0.00    +0.089 C 
ENDBRANCH  11  14
ENDBRANCH  10  11
ENDBRANCH   1  10
BRANCH   6  19
ATOM     19  C   UNL     1      -0.750   3.109   1.275  0.00  0.00    +0.110 C 
BRANCH  19  20
ATOM     20  C   UNL     1      -0.729   1.579   1.267  0.00  0.00    +0.000 C 
ATOM     21  C   UNL     1      -0.013   1.086   0.008  0.00  0.00    +0.009 C 
ATOM     22  C   UNL     1       0.011   1.072   2.506  0.00  0.00    +0.009 C 
ENDBRANCH  19  20
ENDBRANCH   6  19
BRANCH   8  23
ATOM     23  C   UNL     1      -2.357   6.457  -3.196  0.00  0.00    -0.023 C 
BRANCH  23  24
ATOM     24  C   UNL     1      -1.017   6.543  -3.881  0.00  0.00    +0.009 A 
ATOM     25  C   UNL     1      -0.562   5.707  -4.834  0.00  0.00    +0.021 A 
ATOM     26  C   UNL     1       0.728   6.144  -5.200  0.00  0.00    +0.020 A 
ATOM     27  C   UNL     1       1.016   7.227  -4.451  0.00  0.00    +0.093 A 
ATOM     28  N   UNL     1      -0.052   7.479  -3.637  0.00  0.00    -0.307 N 
ATOM     29  C   UNL     1      -0.142   8.521  -2.709  0.00  0.00    +0.138 A 
ATOM     30  C   UNL     1       0.920   9.405  -2.562  0.00  0.00    +0.048 A 
ATOM     31  C   UNL     1       0.819  10.432  -1.640  0.00  0.00    +0.025 A 
ATOM     32  C   UNL     1      -0.347  10.538  -0.893  0.00  0.00    +0.059 A 
ATOM     33  C   UNL     1      -1.363   9.622  -1.091  0.00  0.00    +0.133 A 
ATOM     34  N   UNL     1      -1.238   8.658  -1.982  0.00  0.00    -0.236 NA
ATOM     35 CL   UNL     1      -0.526  11.807   0.278  0.00  0.00    -0.082 Cl
ENDBRANCH  23  24
ENDBRANCH   8  23
TORSDOF 7
