REMARK  Name = ZINC21258735
REMARK  3 active torsions:
REMARK  status: ('A' for Active; 'I' for Inactive)
REMARK    1  A    between atoms: C_4  and  N_29
REMARK    2  A    between atoms: C_6  and  C_7
REMARK    3  A    between atoms: C_18  and  C_21
REMARK                            x       y       z     vdW  Elec       q    Type
REMARK                         _______ _______ _______ _____ _____    ______ ____
ROOT
ATOM      1  C   UNL     1      -1.293  -0.775   0.010  0.00  0.00    +0.063 C 
ATOM      2  C   UNL     1      -1.349  -1.664   1.254  0.00  0.00    +0.109 C 
ATOM      3  C   UNL     1      -0.373  -2.800   1.092  0.00  0.00    +0.218 C 
ATOM      4  O   UNL     1       0.204  -3.244   2.062  0.00  0.00    -0.275 OA
ATOM      5  N   UNL     1      -0.140  -3.324  -0.124  0.00  0.00    -0.289 N 
ATOM      6  C   UNL     1      -0.796  -2.858  -1.235  0.00  0.00    +0.018 C 
ATOM      7  C   UNL     1      -1.373  -1.638  -1.227  0.00  0.00    +0.020 C 
ATOM      8  C   UNL     1      -2.056  -1.144  -2.351  0.00  0.00    +0.162 C 
ATOM      9  O   UNL     1      -2.552  -0.036  -2.311  0.00  0.00    -0.292 OA
ATOM     10  C   UNL     1      -2.182  -1.967  -3.605  0.00  0.00    +0.088 C 
ATOM     11  C   UNL     1      -2.150  -3.453  -3.230  0.00  0.00    +0.032 C 
ATOM     12  C   UNL     1      -0.858  -3.735  -2.461  0.00  0.00    +0.059 C 
ATOM     13  H   UNL     1       0.587  -4.140  -0.241  0.00  0.00    +0.155 HD
ENDROOT
BRANCH  11  14
ATOM     14  C   UNL     1      -2.192  -4.292  -4.481  0.00  0.00    -0.042 A 
ATOM     15  C   UNL     1      -3.228  -5.185  -4.680  0.00  0.00    +0.005 A 
ATOM     16  C   UNL     1      -3.268  -5.955  -5.827  0.00  0.00    +0.022 A 
ATOM     17  C   UNL     1      -2.269  -5.832  -6.777  0.00  0.00    +0.059 A 
ATOM     18  C   UNL     1      -1.231  -4.938  -6.578  0.00  0.00    +0.060 A 
ATOM     19  C   UNL     1      -1.197  -4.163  -5.432  0.00  0.00    +0.025 A 
ATOM     20 CL   UNL     1       0.022  -4.782  -7.769  0.00  0.00    -0.082 Cl
ATOM     21 CL   UNL     1      -2.318  -6.799  -8.218  0.00  0.00    -0.082 Cl
ENDBRANCH  11  14
BRANCH   1  27
ATOM     22  C   UNL     1       1.208  -0.679  -0.013  0.00  0.00    +0.006 A 
ATOM     23  C   UNL     1       2.396   0.027  -0.021  0.00  0.00    +0.022 A 
ATOM     24  C   UNL     1       2.378   1.410  -0.014  0.00  0.00    +0.071 A 
ATOM     25  C   UNL     1       1.170   2.086   0.002  0.00  0.00    +0.145 A 
ATOM     26  C   UNL     1      -0.017   1.378   0.010  0.00  0.00    +0.038 A 
ATOM     27  C   UNL     1       0.002  -0.004   0.002  0.00  0.00    -0.037 A 
ATOM     28 CL   UNL     1       3.870   2.298  -0.023  0.00  0.00    -0.081 Cl
BRANCH  25  29
ATOM     29  N   UNL     1       1.150   3.566   0.010  0.00  0.00    +0.058 N 
ATOM     30  O   UNL     1       0.087   4.160   0.023  0.00  0.00    -0.126 OA
ATOM     31  O   UNL     1       2.196   4.189   0.003  0.00  0.00    -0.126 OA
ENDBRANCH  25  29
ENDBRANCH   1  27
TORSDOF 3
