REMARK  Name = ZINC29045184
REMARK  6 active torsions:
REMARK  status: ('A' for Active; 'I' for Inactive)
REMARK    1  A    between atoms: C_1  and  C_2
REMARK    2  A    between atoms: C_3  and  C_4
REMARK    3  A    between atoms: C_4  and  N_5
REMARK    4  A    between atoms: N_10  and  C_13
REMARK    5  A    between atoms: C_13  and  C_14
REMARK    6  A    between atoms: C_30  and  N_33
REMARK                            x       y       z     vdW  Elec       q    Type
REMARK                         _______ _______ _______ _____ _____    ______ ____
ROOT
ATOM      1  N   UNL     1      -2.139   5.725  -3.272  0.00  0.00    -0.296 N 
ATOM      2  C   UNL     1      -1.805   7.033  -2.963  0.00  0.00    +0.136 A 
ATOM      3  C   UNL     1      -0.977   6.968  -1.836  0.00  0.00    +0.098 A 
ATOM      4  C   UNL     1      -0.460   8.218  -1.282  0.00  0.00    +0.048 A 
ATOM      5  C   UNL     1      -0.798   9.380  -1.873  0.00  0.00    +0.091 A 
ATOM      6  N   UNL     1      -1.607   9.408  -2.970  0.00  0.00    -0.309 N 
ATOM      7  C   UNL     1      -2.107   8.284  -3.517  0.00  0.00    +0.277 A 
ATOM      8  O   UNL     1      -2.828   8.355  -4.500  0.00  0.00    -0.265 OA
ATOM      9  N   UNL     1      -0.846   5.674  -1.508  0.00  0.00    -0.214 NA
ATOM     10  C   UNL     1      -1.531   4.930  -2.348  0.00  0.00    +0.200 A 
ATOM     11  N   UNL     1      -1.617   3.557  -2.304  0.00  0.00    -0.303 N 
ATOM     12  C   UNL     1      -3.017   3.119  -2.236  0.00  0.00    +0.108 C 
ATOM     13  C   UNL     1      -3.080   1.593  -2.335  0.00  0.00    +0.017 C 
ATOM     14  C   UNL     1      -2.276   0.977  -1.187  0.00  0.00    -0.013 C 
ATOM     15  C   UNL     1      -0.834   1.488  -1.252  0.00  0.00    -0.057 C 
ATOM     16  C   UNL     1      -0.836   3.017  -1.184  0.00  0.00    +0.092 C 
ENDROOT
BRANCH  15  17
ATOM     17  N   UNL     1      -0.070   0.947  -0.120  0.00  0.00    +0.381 N 
ATOM     18  H   UNL     1       0.966   1.315  -0.168  0.00  0.00    -0.090 HD
ATOM     19  H   UNL     1      -0.072  -0.152  -0.168  0.00  0.00    -0.090 HD
ATOM     20  H   UNL     1      -0.532   1.274   0.823  0.00  0.00    -0.090 HD
ENDBRANCH  15  17
BRANCH   1  21
ATOM     21  C   UNL     1      -2.987   5.280  -4.381  0.00  0.00    +0.214 C 
BRANCH  21  24
ATOM     22  C   UNL     1      -6.909   5.130  -3.134  0.00  0.00    +0.106 C 
ATOM     23  C   UNL     1      -5.507   5.184  -3.580  0.00  0.00    -0.104 C 
ATOM     24  C   UNL     1      -4.389   5.227  -3.935  0.00  0.00    -0.081 C 
ENDBRANCH  21  24
ENDBRANCH   1  21
BRANCH   6  25
ATOM     25  C   UNL     1      -1.942  10.701  -3.573  0.00  0.00    +0.160 C 
BRANCH  25  26
ATOM     26  C   UNL     1      -3.250  11.193  -3.011  0.00  0.00    -0.020 A 
ATOM     27  C   UNL     1      -3.861  10.513  -2.002  0.00  0.00    +0.006 A 
ATOM     28  C   UNL     1      -5.071  10.953  -1.470  0.00  0.00    +0.001 A 
ATOM     29  C   UNL     1      -5.678  12.076  -1.942  0.00  0.00    +0.008 A 
ATOM     30  C   UNL     1      -5.077  12.805  -2.983  0.00  0.00    -0.018 A 
ATOM     31  C   UNL     1      -3.844  12.360  -3.521  0.00  0.00    -0.013 A 
ATOM     32  C   UNL     1      -3.245  13.087  -4.565  0.00  0.00    +0.009 A 
ATOM     33  C   UNL     1      -3.853  14.209  -5.038  0.00  0.00    +0.001 A 
ATOM     34  C   UNL     1      -5.063  14.649  -4.506  0.00  0.00    +0.001 A 
ATOM     35  C   UNL     1      -5.674  13.969  -3.498  0.00  0.00    +0.008 A 
ENDBRANCH  25  26
ENDBRANCH   6  25
TORSDOF 5
