REMARK  Name = ZINC35481582
REMARK  13 active torsions:
REMARK  status: ('A' for Active; 'I' for Inactive)
REMARK    1  A    between atoms: C_1  and  C_2
REMARK    2  A    between atoms: C_2  and  C_3
REMARK    3  A    between atoms: C_2  and  C_4
REMARK    4  A    between atoms: C_4  and  C_5
REMARK    5  A    between atoms: C_5  and  N_6
REMARK    6  A    between atoms: C_12  and  C_30
REMARK    7  A    between atoms: N_18  and  C_21
REMARK    8  A    between atoms: C_21  and  C_22
REMARK    9  A    between atoms: C_25  and  C_28
REMARK   10  A    between atoms: N_32  and  C_33
REMARK   11  A    between atoms: C_33  and  C_34
REMARK   12  A    between atoms: C_34  and  C_35
REMARK   13  A    between atoms: C_34  and  C_36
REMARK                            x       y       z     vdW  Elec       q    Type
REMARK                         _______ _______ _______ _____ _____    ______ ____
ROOT
ATOM      1  N   UNL     1      -2.790  -2.565  -0.111  0.00  0.00    -0.277 N 
ATOM      2  C   UNL     1      -3.367  -2.891   1.063  0.00  0.00    +0.263 A 
ATOM      3  O   UNL     1      -2.756  -2.768   2.107  0.00  0.00    -0.267 OA
ATOM      4  C   UNL     1      -4.753  -3.401   1.061  0.00  0.00    +0.064 A 
ATOM      5  C   UNL     1      -5.392  -3.750   2.250  0.00  0.00    +0.016 A 
ATOM      6  C   UNL     1      -6.686  -4.222   2.219  0.00  0.00    +0.014 A 
ATOM      7  C   UNL     1      -7.359  -4.352   1.002  0.00  0.00    +0.039 A 
ATOM      8  C   UNL     1      -6.726  -4.004  -0.190  0.00  0.00    +0.040 A 
ATOM      9  C   UNL     1      -5.425  -3.529  -0.164  0.00  0.00    +0.067 A 
ATOM     10  N   UNL     1      -4.770  -3.173  -1.343  0.00  0.00    -0.229 N 
ATOM     11  C   UNL     1      -3.478  -2.696  -1.309  0.00  0.00    +0.240 A 
ATOM     12  N   UNL     1      -3.104  -2.433  -2.532  0.00  0.00    -0.129 NA
ATOM     13  N   UNL     1      -4.169  -2.737  -3.389  0.00  0.00    -0.206 N 
ATOM     14  C   UNL     1      -5.181  -3.199  -2.629  0.00  0.00    +0.353 A 
ATOM     15  O   UNL     1      -6.273  -3.563  -3.028  0.00  0.00    -0.244 OA
ENDROOT
BRANCH   7  16
ATOM     16  C   UNL     1      -8.749  -4.861   0.977  0.00  0.00    +0.244 C 
ATOM     17  O   UNL     1      -9.336  -4.974  -0.081  0.00  0.00    -0.270 OA
ATOM     18  N   UNL     1      -9.363  -5.198   2.128  0.00  0.00    -0.311 N 
ATOM     19  H   UNL     1      -8.894  -5.107   2.973  0.00  0.00    +0.149 HD
BRANCH  18  20
ATOM     20  C   UNL     1     -10.739  -5.701   2.104  0.00  0.00    +0.107 C 
BRANCH  20  21
ATOM     21  C   UNL     1     -11.195  -6.007   3.533  0.00  0.00    -0.000 C 
ATOM     22  C   UNL     1     -11.253  -4.708   4.339  0.00  0.00    +0.009 C 
ATOM     23  C   UNL     1     -12.583  -6.649   3.498  0.00  0.00    +0.009 C 
ENDBRANCH  20  21
ENDBRANCH  18  20
ENDBRANCH   7  16
BRANCH   1  24
ATOM     24  C   UNL     1      -1.416  -2.058  -0.121  0.00  0.00    +0.128 C 
BRANCH  24  25
ATOM     25  C   UNL     1      -1.433  -0.534   0.013  0.00  0.00    +0.025 C 
BRANCH  25  27
ATOM     26  C   UNL     1      -0.019   1.526   0.010  0.00  0.00    +0.007 C 
ATOM     27  C   UNL     1       0.002  -0.004   0.002  0.00  0.00    -0.016 C 
ATOM     28  C   UNL     1       0.742  -0.511   1.242  0.00  0.00    +0.007 C 
ENDBRANCH  25  27
ENDBRANCH  24  25
ENDBRANCH   1  24
BRANCH  13  29
ATOM     29  C   UNL     1      -4.176  -2.590  -4.847  0.00  0.00    +0.184 C 
BRANCH  29  30
ATOM     30  C   UNL     1      -4.667  -1.212  -5.211  0.00  0.00    -0.026 A 
ATOM     31  C   UNL     1      -6.019  -0.992  -5.407  0.00  0.00    +0.006 A 
ATOM     32  C   UNL     1      -6.474   0.267  -5.740  0.00  0.00    +0.008 A 
ATOM     33  C   UNL     1      -5.568   1.319  -5.879  0.00  0.00    -0.026 A 
ATOM     34  C   UNL     1      -4.206   1.090  -5.680  0.00  0.00    +0.008 A 
ATOM     35  C   UNL     1      -3.764  -0.172  -5.342  0.00  0.00    +0.006 A 
BRANCH  33  36
ATOM     36  C   UNL     1      -6.049   2.670  -6.237  0.00  0.00    +0.000 C 
ATOM     37  C   UNL     1      -5.186   3.668  -6.368  0.00  0.00    +0.009 C 
ENDBRANCH  33  36
ENDBRANCH  29  30
ENDBRANCH  13  29
TORSDOF 9
