REMARK  Name = ZINC36309647
REMARK  11 active torsions:
REMARK  status: ('A' for Active; 'I' for Inactive)
REMARK    1  A    between atoms: C_4  and  C_7
REMARK    2  A    between atoms: C_7  and  C_9
REMARK    3  A    between atoms: C_7  and  O_37
REMARK    4  A    between atoms: C_9  and  N_10
REMARK    5  A    between atoms: N_10  and  C_11
REMARK    6  A    between atoms: N_10  and  C_15
REMARK    7  A    between atoms: C_11  and  C_12
REMARK    8  A    between atoms: C_15  and  C_16
REMARK    9  A    between atoms: C_26  and  C_28
REMARK   10  A    between atoms: C_28  and  O_29
REMARK   11  A    between atoms: O_29  and  C_30
REMARK                            x       y       z     vdW  Elec       q    Type
REMARK                         _______ _______ _______ _____ _____    ______ ____
ROOT
ATOM      1  C   UNL     1       7.598  -2.694   2.054  0.00  0.00    +0.200 C 
ATOM      2  O   UNL     1       7.979  -2.751   0.904  0.00  0.00    -0.278 OA
ATOM      3  N   UNL     1       8.424  -3.053   3.057  0.00  0.00    -0.292 N 
ATOM      4  C   UNL     1       7.971  -2.993   4.454  0.00  0.00    +0.113 C 
ATOM      5  C   UNL     1       7.944  -4.424   5.014  0.00  0.00    +0.061 C 
ATOM      6  C   UNL     1       9.182  -5.134   4.573  0.00  0.00    -0.004 A 
ATOM      7  C   UNL     1      10.040  -4.779   3.578  0.00  0.00    -0.014 A 
ATOM      8  C   UNL     1      11.127  -5.624   3.358  0.00  0.00    +0.013 A 
ATOM      9  C   UNL     1      11.290  -6.729   4.121  0.00  0.00    +0.046 A 
ATOM     10  S   UNL     1       9.881  -6.632   5.216  0.00  0.00    -0.101 S 
ATOM     11  C   UNL     1       9.789  -3.514   2.768  0.00  0.00    +0.144 C 
ENDROOT
BRANCH   1  12
ATOM     12  C   UNL     1       6.200  -2.223   2.362  0.00  0.00    +0.019 C 
BRANCH  12  13
ATOM     13  N   UNL     1       5.507  -1.894   1.109  0.00  0.00    +0.387 N 
ATOM     14  H   UNL     1       6.053  -1.224   0.589  0.00  0.00    -0.081 HD
BRANCH  13  15
ATOM     15  C   UNL     1       4.189  -1.322   1.414  0.00  0.00    -0.042 C 
BRANCH  15  16
ATOM     16  C   UNL     1       4.368   0.019   2.127  0.00  0.00    +0.128 C 
BRANCH  16  20
ATOM     17  C   UNL     1       0.535   1.670   3.042  0.00  0.00    +0.000 A 
ATOM     18  C   UNL     1       1.256   1.012   4.022  0.00  0.00    +0.000 A 
ATOM     19  C   UNL     1       2.496   0.478   3.725  0.00  0.00    +0.006 A 
ATOM     20  C   UNL     1       3.015   0.601   2.450  0.00  0.00    -0.021 A 
ATOM     21  C   UNL     1       2.294   1.258   1.471  0.00  0.00    +0.006 A 
ATOM     22  C   UNL     1       1.054   1.793   1.767  0.00  0.00    +0.000 A 
ENDBRANCH  16  20
BRANCH  16  23
ATOM     23  O   UNL     1       5.083   0.919   1.278  0.00  0.00    -0.389 OA
ATOM     24  H   UNL     1       4.616   1.144   0.462  0.00  0.00    +0.210 HD
ENDBRANCH  16  23
ENDBRANCH  15  16
ENDBRANCH  13  15
BRANCH  13  25
ATOM     25  C   UNL     1       5.338  -3.114   0.309  0.00  0.00    -0.075 C 
BRANCH  25  26
ATOM     26  C   UNL     1       4.741  -2.753  -1.053  0.00  0.00    -0.028 C 
ATOM     27  C   UNL     1       3.354  -3.307  -1.385  0.00  0.00    +0.002 C 
ATOM     28  C   UNL     1       4.592  -3.877  -2.080  0.00  0.00    +0.002 C 
ENDBRANCH  25  26
ENDBRANCH  13  25
ENDBRANCH  12  13
ENDBRANCH   1  12
BRANCH  11  29
ATOM     29  C   UNL     1      10.797  -2.436   3.174  0.00  0.00    +0.256 C 
BRANCH  29  30
ATOM     30  O   UNL     1      10.755  -2.254   4.591  0.00  0.00    -0.490 OA
BRANCH  30  31
ATOM     31  C   UNL     1      11.595  -1.325   5.119  0.00  0.00    +0.123 A 
ATOM     32  C   UNL     1      12.438  -0.601   4.289  0.00  0.00    +0.046 A 
ATOM     33  C   UNL     1      13.292   0.343   4.826  0.00  0.00    +0.006 A 
ATOM     34  C   UNL     1      13.308   0.567   6.191  0.00  0.00    +0.038 A 
ATOM     35  C   UNL     1      12.467  -0.155   7.021  0.00  0.00    +0.127 A 
ATOM     36  C   UNL     1      11.606  -1.097   6.486  0.00  0.00    +0.084 A 
ATOM     37  F   UNL     1      12.484   0.065   8.354  0.00  0.00    -0.205 F 
ENDBRANCH  30  31
ENDBRANCH  29  30
ENDBRANCH  11  29
TORSDOF 11
