REMARK  Name = ZINC20828936
REMARK  8 active torsions:
REMARK  status: ('A' for Active; 'I' for Inactive)
REMARK    1  A    between atoms: C_1  and  C_2
REMARK    2  A    between atoms: C_2  and  C_35
REMARK    3  A    between atoms: C_8  and  C_20
REMARK    4  A    between atoms: C_16  and  C_18
REMARK    5  A    between atoms: C_16  and  C_19
REMARK    6  A    between atoms: C_20  and  C_21
REMARK    7  A    between atoms: C_21  and  N_22
REMARK    8  A    between atoms: C_27  and  C_29
REMARK                            x       y       z     vdW  Elec       q    Type
REMARK                         _______ _______ _______ _____ _____    ______ ____
ROOT
ATOM      1  C   UNL     1       0.650  -2.181   2.218  0.00  0.00    +0.028 C 
ATOM      2  C   UNL     1       0.605  -2.570   0.738  0.00  0.00    +0.018 C 
ATOM      3  C   UNL     1       1.697  -1.806  -0.019  0.00  0.00    +0.058 C 
ATOM      4  C   UNL     1       1.315  -0.330  -0.010  0.00  0.00    -0.021 A 
ATOM      5  C   UNL     1       2.277   0.762  -0.013  0.00  0.00    +0.055 A 
ATOM      6  C   UNL     1       3.751   0.709  -0.022  0.00  0.00    +0.168 A 
ATOM      7  N   UNL     1       4.624  -0.280  -0.027  0.00  0.00    -0.211 NA
ATOM      8  C   UNL     1       5.857   0.216  -0.033  0.00  0.00    +0.153 A 
ATOM      9  N   UNL     1       5.803   1.526  -0.032  0.00  0.00    -0.149 NA
ATOM     10  N   UNL     1       4.447   1.884  -0.024  0.00  0.00    -0.201 N 
ATOM     11  C   UNL     1       3.795   3.077  -0.020  0.00  0.00    +0.226 A 
ATOM     12  N   UNL     1       2.493   3.144  -0.008  0.00  0.00    -0.228 NA
ATOM     13  C   UNL     1       1.730   2.058  -0.003  0.00  0.00    +0.114 A 
ATOM     14  S   UNL     1      -0.022   1.767   0.012  0.00  0.00    -0.071 S 
ATOM     15  C   UNL     1       0.002  -0.004   0.002  0.00  0.00    +0.015 A 
ATOM     16  C   UNL     1      -1.152  -0.954   0.002  0.00  0.00    +0.046 C 
ATOM     17  N   UNL     1      -0.715  -2.334   0.176  0.00  0.00    -0.301 NA
ATOM     18  C   UNL     1      -2.135  -0.560   1.113  0.00  0.00    +0.033 C 
ATOM     19  C   UNL     1      -1.884  -0.827  -1.348  0.00  0.00    +0.033 C 
ATOM     20  C   UNL     1       0.922  -4.074   0.634  0.00  0.00    +0.028 C 
ATOM     21  H   UNL     1      -0.771  -2.780  -0.828  0.00  0.00    +0.123 HD
ENDROOT
BRANCH   8  22
ATOM     22  C   UNL     1       7.122  -0.602  -0.037  0.00  0.00    +0.093 C 
BRANCH  22  23
ATOM     23  C   UNL     1       7.555  -0.880   1.404  0.00  0.00    +0.093 C 
BRANCH  23  24
ATOM     24  N   UNL     1       8.789  -1.677   1.400  0.00  0.00    -0.295 NA
ATOM     25  C   UNL     1       9.761  -1.137   0.442  0.00  0.00    +0.085 C 
ATOM     26  C   UNL     1      10.970  -2.072   0.358  0.00  0.00    +0.015 C 
ATOM     27  C   UNL     1      11.608  -2.199   1.745  0.00  0.00    +0.003 C 
ATOM     28  C   UNL     1      10.560  -2.717   2.734  0.00  0.00    +0.024 C 
ATOM     29  C   UNL     1       9.363  -1.764   2.749  0.00  0.00    +0.088 C 
BRANCH  29  30
ATOM     30  C   UNL     1       8.321  -2.281   3.707  0.00  0.00    -0.012 A 
ATOM     31  C   UNL     1       8.213  -1.748   4.982  0.00  0.00    +0.008 A 
ATOM     32  C   UNL     1       7.240  -2.255   5.829  0.00  0.00    +0.020 A 
ATOM     33  C   UNL     1       6.415  -3.268   5.377  0.00  0.00    +0.111 A 
ATOM     34  N   UNL     1       6.546  -3.751   4.157  0.00  0.00    -0.263 NA
ATOM     35  C   UNL     1       7.457  -3.289   3.323  0.00  0.00    +0.115 A 
ENDBRANCH  29  30
ENDBRANCH  23  24
ENDBRANCH  22  23
ENDBRANCH   8  22
TORSDOF 4
