REMARK  Name = ZINC39243178
REMARK  14 active torsions:
REMARK  status: ('A' for Active; 'I' for Inactive)
REMARK    1  A    between atoms: C_1  and  C_2
REMARK    2  A    between atoms: C_2  and  O_3
REMARK    3  A    between atoms: O_3  and  C_4
REMARK    4  A    between atoms: C_4  and  C_6
REMARK    5  A    between atoms: C_9  and  N_12
REMARK    6  A    between atoms: C_13  and  C_15
REMARK    7  A    between atoms: C_15  and  O_16
REMARK    8  A    between atoms: O_16  and  C_17
REMARK    9  A    between atoms: C_20  and  C_25
REMARK   10  A    between atoms: C_22  and  O_23
REMARK   11  A    between atoms: O_23  and  C_24
REMARK   12  A    between atoms: N_26  and  C_27
REMARK   13  A    between atoms: C_28  and  C_34
REMARK   14  A    between atoms: C_31  and  C_33
REMARK                            x       y       z     vdW  Elec       q    Type
REMARK                         _______ _______ _______ _____ _____    ______ ____
ROOT
ATOM      1  O   UNL     1       4.027  -7.283   7.203  0.00  0.00    -0.479 OA
ENDROOT
BRANCH   1   2
ATOM      2  C   UNL     1       4.540  -7.953   8.267  0.00  0.00    +0.163 A 
ATOM      3  C   UNL     1       5.117  -7.250   9.317  0.00  0.00    +0.050 A 
ATOM      4  C   UNL     1       5.639  -7.923  10.398  0.00  0.00    +0.013 A 
ATOM      5  C   UNL     1       5.588  -9.323  10.441  0.00  0.00    -0.003 A 
ATOM      6  C   UNL     1       5.006 -10.031   9.382  0.00  0.00    +0.058 A 
ATOM      7  C   UNL     1       4.481  -9.347   8.304  0.00  0.00    +0.162 A 
BRANCH   7   8
ATOM      8  O   UNL     1       3.911 -10.030   7.277  0.00  0.00    -0.491 OA
ATOM      9  C   UNL     1       3.885 -11.456   7.381  0.00  0.00    +0.277 C 
ENDBRANCH   7   8
BRANCH   5  10
ATOM     10  C   UNL     1       6.144 -10.044  11.592  0.00  0.00    +0.119 C 
ATOM     11  N   UNL     1       6.688  -9.379  12.581  0.00  0.00    -0.255 NA
BRANCH  11  12
ATOM     12  C   UNL     1       7.197 -10.040  13.635  0.00  0.00    +0.090 C 
ATOM     13  C   UNL     1       7.789  -9.524  14.747  0.00  0.00    +0.083 C 
ATOM     14  N   UNL     1       8.166 -10.504  15.573  0.00  0.00    -0.157 NA
ATOM     15  N   UNL     1       7.912 -11.644  15.180  0.00  0.00    -0.178 NA
ATOM     16  C   UNL     1       7.241 -11.540  13.873  0.00  0.00    +0.175 C 
ATOM     17  C   UNL     1       8.064 -12.236  12.787  0.00  0.00    +0.041 C 
ATOM     18  C   UNL     1       7.992  -8.054  15.010  0.00  0.00    +0.069 C 
ENDBRANCH  11  12
ENDBRANCH   5  10
ENDBRANCH   1   2
BRANCH   1  19
ATOM     19  C   UNL     1       4.121  -5.857   7.229  0.00  0.00    +0.325 C 
BRANCH  19  21
ATOM     20  N   UNL     1       3.478  -3.957   5.781  0.00  0.00    -0.283 N 
ATOM     21  C   UNL     1       3.504  -5.290   5.976  0.00  0.00    +0.255 C 
ATOM     22  O   UNL     1       3.031  -6.034   5.144  0.00  0.00    -0.272 OA
ATOM     23  H   UNL     1       3.924  -3.366   6.409  0.00  0.00    +0.155 HD
BRANCH  20  27
ATOM     24  C   UNL     1       1.486  -2.372   2.485  0.00  0.00    +0.059 A 
ATOM     25  C   UNL     1       1.003  -3.527   3.107  0.00  0.00    +0.017 A 
ATOM     26  C   UNL     1       1.664  -4.048   4.196  0.00  0.00    +0.024 A 
ATOM     27  C   UNL     1       2.812  -3.427   4.678  0.00  0.00    +0.034 A 
ATOM     28  C   UNL     1       3.295  -2.276   4.062  0.00  0.00    +0.024 A 
ATOM     29  C   UNL     1       2.643  -1.753   2.969  0.00  0.00    +0.017 A 
BRANCH  24  30
ATOM     30  C   UNL     1       0.780  -1.811   1.318  0.00  0.00    +0.339 C 
ATOM     31  O   UNL     1       1.204  -0.810   0.775  0.00  0.00    -0.245 OA
BRANCH  30  32
ATOM     32  O   UNL     1      -0.334  -2.409   0.853  0.00  0.00    -0.461 OA
BRANCH  32  34
ATOM     33  C   UNL     1      -2.206  -2.623  -0.661  0.00  0.00    +0.048 C 
ATOM     34  C   UNL     1      -0.966  -1.811  -0.281  0.00  0.00    +0.229 C 
ENDBRANCH  32  34
ENDBRANCH  30  32
ENDBRANCH  24  30
ENDBRANCH  20  27
ENDBRANCH  19  21
ENDBRANCH   1  19
TORSDOF 10
