REMARK  Name = ZINC08934281
REMARK  11 active torsions:
REMARK  status: ('A' for Active; 'I' for Inactive)
REMARK    1  A    between atoms: C_1  and  C_2
REMARK    2  A    between atoms: C_2  and  C_34
REMARK    3  A    between atoms: N_4  and  C_5
REMARK    4  A    between atoms: C_8  and  O_11
REMARK    5  A    between atoms: O_11  and  C_12
REMARK    6  A    between atoms: C_16  and  C_23
REMARK    7  A    between atoms: C_17  and  C_19
REMARK    8  A    between atoms: C_19  and  O_21
REMARK    9  A    between atoms: O_21  and  C_22
REMARK   10  A    between atoms: C_23  and  O_25
REMARK   11  A    between atoms: O_25  and  C_26
REMARK                            x       y       z     vdW  Elec       q    Type
REMARK                         _______ _______ _______ _____ _____    ______ ____
ROOT
ATOM      1  C   UNL     1      -0.057   1.025  -0.160  0.00  0.00    +0.038 C 
ATOM      2  C   UNL     1      -0.507  -0.397   0.180  0.00  0.00    +0.069 C 
ATOM      3  C   UNL     1       0.315  -1.385  -0.607  0.00  0.00    +0.074 C 
ATOM      4  N   UNL     1      -0.101  -1.797  -1.785  0.00  0.00    -0.249 NA
ATOM      5  C   UNL     1       1.529  -1.866  -0.080  0.00  0.00    +0.028 C 
ATOM      6  C   UNL     1       2.368  -2.671  -0.852  0.00  0.00    +0.060 C 
ATOM      7  S   UNL     1       3.837  -3.546  -0.367  0.00  0.00    -0.073 S 
ATOM      8  C   UNL     1       4.402  -4.361  -1.822  0.00  0.00    +0.118 C 
ATOM      9  C   UNL     1       3.619  -4.135  -2.907  0.00  0.00    +0.118 C 
ATOM     10  S   UNL     1       2.239  -3.093  -2.574  0.00  0.00    -0.073 S 
ATOM     11  C   UNL     1       1.902  -1.503   1.306  0.00  0.00    +0.006 A 
ATOM     12  C   UNL     1       3.172  -1.777   1.804  0.00  0.00    +0.010 A 
ATOM     13  C   UNL     1       3.492  -1.414   3.098  0.00  0.00    +0.001 A 
ATOM     14  C   UNL     1       2.557  -0.779   3.898  0.00  0.00    +0.002 A 
ATOM     15  C   UNL     1       1.290  -0.506   3.413  0.00  0.00    +0.023 A 
ATOM     16  C   UNL     1       0.954  -0.869   2.122  0.00  0.00    +0.036 A 
ATOM     17  N   UNL     1      -0.329  -0.634   1.616  0.00  0.00    -0.333 N 
ATOM     18  C   UNL     1      -1.984  -0.563  -0.183  0.00  0.00    +0.038 C 
ATOM     19  H   UNL     1      -1.095  -0.628   2.212  0.00  0.00    +0.147 HD
ENDROOT
BRANCH   4  20
ATOM     20  C   UNL     1      -1.146  -1.165  -2.401  0.00  0.00    +0.064 A 
ATOM     21  C   UNL     1      -0.974   0.116  -2.933  0.00  0.00    +0.031 A 
ATOM     22  C   UNL     1      -2.031   0.749  -3.554  0.00  0.00    +0.048 A 
ATOM     23  C   UNL     1      -3.263   0.116  -3.650  0.00  0.00    +0.120 A 
ATOM     24  C   UNL     1      -3.438  -1.156  -3.123  0.00  0.00    +0.048 A 
ATOM     25  C   UNL     1      -2.386  -1.800  -2.506  0.00  0.00    +0.031 A 
BRANCH  23  26
ATOM     26  O   UNL     1      -4.301   0.745  -4.262  0.00  0.00    -0.495 OA
ATOM     27  C   UNL     1      -5.541   0.037  -4.326  0.00  0.00    +0.277 C 
ENDBRANCH  23  26
ENDBRANCH   4  20
BRANCH   9  28
ATOM     28  C   UNL     1       3.893  -4.712  -4.235  0.00  0.00    +0.347 C 
ATOM     29  O   UNL     1       3.358  -5.751  -4.568  0.00  0.00    -0.244 OA
BRANCH  28  30
ATOM     30  O   UNL     1       4.738  -4.088  -5.080  0.00  0.00    -0.464 OA
ATOM     31  C   UNL     1       4.957  -4.703  -6.350  0.00  0.00    +0.280 C 
ENDBRANCH  28  30
ENDBRANCH   9  28
BRANCH   8  32
ATOM     32  C   UNL     1       5.608  -5.206  -1.857  0.00  0.00    +0.347 C 
ATOM     33  O   UNL     1       5.998  -5.663  -2.913  0.00  0.00    -0.244 OA
BRANCH  32  34
ATOM     34  O   UNL     1       6.278  -5.472  -0.718  0.00  0.00    -0.464 OA
ATOM     35  C   UNL     1       7.439  -6.299  -0.827  0.00  0.00    +0.280 C 
ENDBRANCH  32  34
ENDBRANCH   8  32
TORSDOF 6
