REMARK  Name = ZINC38616574
REMARK  10 active torsions:
REMARK  status: ('A' for Active; 'I' for Inactive)
REMARK    1  A    between atoms: C_1  and  C_2
REMARK    2  A    between atoms: C_2  and  C_3
REMARK    3  A    between atoms: C_3  and  N_4
REMARK    4  A    between atoms: C_6  and  C_14
REMARK    5  A    between atoms: C_7  and  C_13
REMARK    6  A    between atoms: C_8  and  C_11
REMARK    7  A    between atoms: C_14  and  C_16
REMARK    8  A    between atoms: C_16  and  C_17
REMARK    9  A    between atoms: C_17  and  N_18
REMARK   10  A    between atoms: C_22  and  C_23
REMARK                            x       y       z     vdW  Elec       q    Type
REMARK                         _______ _______ _______ _____ _____    ______ ____
ROOT
ATOM      1  C   UNL     1      -2.205  -5.802   4.189  0.00  0.00    +0.099 C 
ENDROOT
BRANCH   1   2
ATOM      2  C   UNL     1      -2.694  -4.386   4.354  0.00  0.00    +0.170 C 
ATOM      3  O   UNL     1      -3.759  -4.171   4.896  0.00  0.00    -0.292 OA
BRANCH   2   6
ATOM      4  N   UNL     1       0.156  -2.497   2.869  0.00  0.00    -0.274 N 
ATOM      5  C   UNL     1      -0.613  -3.511   3.332  0.00  0.00    +0.265 A 
ATOM      6  C   UNL     1      -1.886  -3.271   3.861  0.00  0.00    +0.086 A 
ATOM      7  C   UNL     1      -2.389  -1.958   3.920  0.00  0.00    -0.012 A 
ATOM      8  C   UNL     1      -1.601  -0.916   3.445  0.00  0.00    +0.120 A 
ATOM      9  C   UNL     1      -0.275  -1.222   2.906  0.00  0.00    +0.272 A 
ATOM     10  O   UNL     1       0.437  -0.326   2.489  0.00  0.00    -0.266 OA
ATOM     11  C   UNL     1      -3.759  -1.686   4.486  0.00  0.00    +0.046 C 
ATOM     12  O   UNL     1      -0.144  -4.771   3.283  0.00  0.00    -0.267 OA
BRANCH   8  13
ATOM     13  C   UNL     1      -2.076   0.434   3.486  0.00  0.00    +0.105 C 
ATOM     14  N   UNL     1      -2.453   1.505   3.519  0.00  0.00    -0.191 NA
ENDBRANCH   8  13
BRANCH   4  15
ATOM     15  C   UNL     1       1.483  -2.793   2.323  0.00  0.00    +0.128 C 
BRANCH  15  17
ATOM     16  C   UNL     1       3.906  -3.048   2.877  0.00  0.00    +0.005 C 
ATOM     17  C   UNL     1       2.520  -2.740   3.447  0.00  0.00    +0.018 C 
ENDBRANCH  15  17
ENDBRANCH   4  15
ENDBRANCH   2   6
ENDBRANCH   1   2
BRANCH   1  18
ATOM     18  C   UNL     1      -3.292  -6.774   4.652  0.00  0.00    +0.123 C 
BRANCH  18  19
ATOM     19  N   UNL     1      -2.817  -8.151   4.491  0.00  0.00    -0.255 N 
ATOM     20  C   UNL     1      -3.037  -8.781   3.349  0.00  0.00    +0.258 C 
ATOM     21  O   UNL     1      -3.624  -8.247   2.426  0.00  0.00    -0.269 OA
ATOM     22  C   UNL     1      -2.532 -10.166   3.250  0.00  0.00    +0.077 C 
ATOM     23  C   UNL     1      -2.610 -11.043   2.218  0.00  0.00    +0.028 C 
ATOM     24  S   UNL     1      -1.792 -10.368   4.865  0.00  0.00    -0.061 S 
ATOM     25  C   UNL     1      -2.161  -8.744   5.508  0.00  0.00    +0.121 C 
ATOM     26  S   UNL     1      -1.778  -8.098   7.047  0.00  0.00    -0.027 S 
BRANCH  23  27
ATOM     27  C   UNL     1      -2.234 -12.449   2.419  0.00  0.00    -0.024 A 
ATOM     28  C   UNL     1      -1.980 -12.932   3.708  0.00  0.00    +0.011 A 
ATOM     29  C   UNL     1      -1.628 -14.252   3.890  0.00  0.00    +0.039 A 
ATOM     30  C   UNL     1      -1.526 -15.101   2.799  0.00  0.00    +0.123 A 
ATOM     31  C   UNL     1      -1.775 -14.630   1.518  0.00  0.00    +0.039 A 
ATOM     32  C   UNL     1      -2.134 -13.314   1.323  0.00  0.00    +0.011 A 
ATOM     33  F   UNL     1      -1.180 -16.394   2.983  0.00  0.00    -0.205 F 
ENDBRANCH  23  27
ENDBRANCH  18  19
ENDBRANCH   1  18
TORSDOF 8
