REMARK  Name = ZINC25198283
REMARK  11 active torsions:
REMARK  status: ('A' for Active; 'I' for Inactive)
REMARK    1  A    between atoms: C_1  and  C_2
REMARK    2  A    between atoms: C_2  and  O_3
REMARK    3  A    between atoms: O_3  and  C_4
REMARK    4  A    between atoms: C_6  and  C_12
REMARK    5  A    between atoms: C_9  and  O_10
REMARK    6  A    between atoms: O_10  and  C_11
REMARK    7  A    between atoms: C_12  and  O_14
REMARK    8  A    between atoms: O_14  and  C_15
REMARK    9  A    between atoms: C_15  and  C_16
REMARK   10  A    between atoms: N_18  and  C_19
REMARK   11  A    between atoms: C_22  and  N_26
REMARK                            x       y       z     vdW  Elec       q    Type
REMARK                         _______ _______ _______ _____ _____    ______ ____
ROOT
ATOM      1  C   UNL     1       4.459  -2.005   4.861  0.00  0.00    +0.328 C 
ENDROOT
BRANCH   1   2
ATOM      2  C   UNL     1       4.903  -2.295   6.271  0.00  0.00    +0.255 C 
ATOM      3  O   UNL     1       4.272  -1.855   7.208  0.00  0.00    -0.272 OA
ATOM      4  N   UNL     1       6.003  -3.043   6.490  0.00  0.00    -0.282 N 
ATOM      5  H   UNL     1       6.533  -3.503   5.644  0.00  0.00    +0.155 HD
BRANCH   4   6
ATOM      6  C   UNL     1       6.469  -3.235   7.796  0.00  0.00    +0.048 A 
ATOM      7  C   UNL     1       5.570  -3.333   8.849  0.00  0.00    +0.026 A 
ATOM      8  C   UNL     1       6.034  -3.522  10.136  0.00  0.00    +0.034 A 
ATOM      9  C   UNL     1       7.392  -3.614  10.377  0.00  0.00    +0.127 A 
ATOM     10  C   UNL     1       8.291  -3.517   9.331  0.00  0.00    +0.049 A 
ATOM     11  C   UNL     1       7.833  -3.333   8.040  0.00  0.00    +0.041 A 
ATOM     12 BR   UNL     1       9.063  -3.208   6.609  0.00  0.00    -0.048 Br
BRANCH   9  13
ATOM     13  N   UNL     1       7.885  -3.817  11.758  0.00  0.00    +0.056 N 
ATOM     14  O   UNL     1       7.095  -3.904  12.681  0.00  0.00    -0.126 OA
ATOM     15  O   UNL     1       9.082  -3.899  11.972  0.00  0.00    -0.126 OA
ENDBRANCH   9  13
ENDBRANCH   4   6
ENDBRANCH   1   2
BRANCH   1  16
ATOM     16  O   UNL     1       3.260  -1.186   4.890  0.00  0.00    -0.452 OA
BRANCH  16  17
ATOM     17  C   UNL     1       2.729  -0.836   3.702  0.00  0.00    +0.340 C 
ATOM     18  O   UNL     1       3.255  -1.203   2.670  0.00  0.00    -0.245 OA
BRANCH  17  21
ATOM     19  C   UNL     1      -0.180   1.138   2.384  0.00  0.00    +0.163 A 
ATOM     20  C   UNL     1       0.958   0.356   2.422  0.00  0.00    +0.064 A 
ATOM     21  C   UNL     1       1.512  -0.005   3.654  0.00  0.00    +0.063 A 
ATOM     22  C   UNL     1       0.906   0.419   4.840  0.00  0.00    +0.019 A 
ATOM     23  C   UNL     1      -0.231   1.195   4.794  0.00  0.00    +0.050 A 
ATOM     24  C   UNL     1      -0.779   1.558   3.571  0.00  0.00    +0.162 A 
BRANCH  24  25
ATOM     25  O   UNL     1      -1.900   2.323   3.531  0.00  0.00    -0.491 OA
ATOM     26  C   UNL     1      -2.461   2.718   4.784  0.00  0.00    +0.277 C 
ENDBRANCH  24  25
BRANCH  19  27
ATOM     27  O   UNL     1      -0.720   1.495   1.187  0.00  0.00    -0.489 OA
BRANCH  27  29
ATOM     28  C   UNL     1      -0.801   1.527  -1.228  0.00  0.00    +0.048 C 
ATOM     29  C   UNL     1      -0.054   1.030   0.011  0.00  0.00    +0.226 C 
ENDBRANCH  27  29
ENDBRANCH  19  27
ENDBRANCH  17  21
ENDBRANCH  16  17
ENDBRANCH   1  16
TORSDOF 9
