REMARK  Name = ZINC01168105
REMARK  7 active torsions:
REMARK  status: ('A' for Active; 'I' for Inactive)
REMARK    1  A    between atoms: C_1  and  C_2
REMARK    2  A    between atoms: C_5  and  S_8
REMARK    3  A    between atoms: S_8  and  N_11
REMARK    4  A    between atoms: N_11  and  C_12
REMARK    5  A    between atoms: N_11  and  C_23
REMARK    6  A    between atoms: C_12  and  C_13
REMARK    7  A    between atoms: N_15  and  C_16
REMARK                            x       y       z     vdW  Elec       q    Type
REMARK                         _______ _______ _______ _____ _____    ______ ____
ROOT
ATOM      1  N   UNL     1       2.313   1.078  -0.208  0.00  0.00    -0.194 N 
ENDROOT
BRANCH   1   2
ATOM      2  C   UNL     1       2.469   0.579   1.089  0.00  0.00    +0.052 A 
ATOM      3  C   UNL     1       3.686   0.041   1.486  0.00  0.00    +0.026 A 
ATOM      4  C   UNL     1       3.839  -0.445   2.769  0.00  0.00    +0.022 A 
ATOM      5  C   UNL     1       2.777  -0.408   3.656  0.00  0.00    +0.041 A 
ATOM      6  C   UNL     1       1.562   0.123   3.261  0.00  0.00    +0.022 A 
ATOM      7  C   UNL     1       1.405   0.616   1.981  0.00  0.00    +0.026 A 
ATOM      8 CL   UNL     1       2.971  -1.027   5.266  0.00  0.00    -0.084 Cl
ENDBRANCH   1   2
BRANCH   1   9
ATOM      9  S   UNL     1       3.259   0.497  -1.437  0.00  0.00    +0.075 S 
ATOM     10  O   UNL     1       3.744  -0.769  -1.013  0.00  0.00    -0.150 OA
ATOM     11  O   UNL     1       2.514   0.665  -2.636  0.00  0.00    -0.150 OA
BRANCH   9  16
ATOM     12  C   UNL     1       8.058   4.128  -1.864  0.00  0.00    +0.044 C 
ATOM     13  C   UNL     1       6.859   3.221  -1.758  0.00  0.00    -0.050 A 
ATOM     14  C   UNL     1       6.936   2.060  -1.013  0.00  0.00    +0.005 A 
ATOM     15  C   UNL     1       5.836   1.228  -0.915  0.00  0.00    +0.029 A 
ATOM     16  C   UNL     1       4.660   1.558  -1.562  0.00  0.00    +0.109 A 
ATOM     17  C   UNL     1       4.585   2.717  -2.311  0.00  0.00    +0.029 A 
ATOM     18  C   UNL     1       5.683   3.551  -2.405  0.00  0.00    +0.005 A 
ENDBRANCH   9  16
ENDBRANCH   1   9
BRANCH   1  19
ATOM     19  C   UNL     1       1.313   2.114  -0.479  0.00  0.00    +0.227 C 
BRANCH  19  20
ATOM     20  C   UNL     1      -0.026   1.468  -0.721  0.00  0.00    +0.236 C 
ATOM     21  O   UNL     1      -0.136   0.261  -0.673  0.00  0.00    -0.274 OA
ATOM     22  N   UNL     1      -1.102   2.231  -0.998  0.00  0.00    -0.283 N 
ATOM     23  H   UNL     1      -1.034   3.198  -0.961  0.00  0.00    +0.155 HD
BRANCH  22  24
ATOM     24  C   UNL     1      -2.318   1.628  -1.340  0.00  0.00    +0.047 A 
ATOM     25  C   UNL     1      -2.333   0.352  -1.887  0.00  0.00    +0.024 A 
ATOM     26  C   UNL     1      -3.535  -0.241  -2.219  0.00  0.00    +0.002 A 
ATOM     27  C   UNL     1      -4.723   0.437  -2.016  0.00  0.00    +0.001 A 
ATOM     28  C   UNL     1      -4.712   1.710  -1.476  0.00  0.00    +0.017 A 
ATOM     29  C   UNL     1      -3.513   2.308  -1.137  0.00  0.00    +0.039 A 
ATOM     30 BR   UNL     1      -3.499   4.049  -0.400  0.00  0.00    -0.048 Br
ENDBRANCH  22  24
ENDBRANCH  19  20
ENDBRANCH   1  19
TORSDOF 6
