REMARK  Name = ZINC03007042
REMARK  11 active torsions:
REMARK  status: ('A' for Active; 'I' for Inactive)
REMARK    1  A    between atoms: C_1  and  C_2
REMARK    2  A    between atoms: C_2  and  N_68
REMARK    3  A    between atoms: C_8  and  N_15
REMARK    4  A    between atoms: C_9  and  C_10
REMARK    5  A    between atoms: C_10  and  O_12
REMARK    6  A    between atoms: O_12  and  C_13
REMARK    7  A    between atoms: C_13  and  C_14
REMARK    8  A    between atoms: C_16  and  C_18
REMARK    9  A    between atoms: C_21  and  S_24
REMARK   10  A    between atoms: S_24  and  N_27
REMARK   11  A    between atoms: C_31  and  C_34
REMARK                            x       y       z     vdW  Elec       q    Type
REMARK                         _______ _______ _______ _____ _____    ______ ____
ROOT
ATOM      1  N   UNL     1       1.257  -2.000   6.363  0.00  0.00    -0.275 N 
ATOM      2  C   UNL     1       0.081  -1.813   5.732  0.00  0.00    +0.249 C 
ATOM      3  O   UNL     1      -0.964  -2.010   6.321  0.00  0.00    -0.270 OA
ATOM      4  H   UNL     1       2.090  -1.843   5.893  0.00  0.00    +0.156 HD
ENDROOT
BRANCH   1  10
ATOM      5  C   UNL     1       2.554  -3.392  12.275  0.00  0.00    -0.074 C 
ATOM      6  C   UNL     1       3.198  -3.406  10.886  0.00  0.00    +0.018 C 
ATOM      7  C   UNL     1       2.117  -3.095   9.858  0.00  0.00    -0.025 A 
ATOM      8  C   UNL     1       0.812  -3.214  10.189  0.00  0.00    -0.021 A 
ATOM      9  S   UNL     1      -0.069  -2.760   8.723  0.00  0.00    -0.079 S 
ATOM     10  C   UNL     1       1.275  -2.417   7.684  0.00  0.00    +0.086 A 
ATOM     11  C   UNL     1       2.376  -2.668   8.495  0.00  0.00    +0.091 A 
ATOM     12  C   UNL     1       0.267  -3.641  11.515  0.00  0.00    -0.035 C 
ATOM     13  N   UNL     1       1.370  -4.276  12.276  0.00  0.00    +0.383 N 
ATOM     14  H   UNL     1       1.618  -5.165  11.826  0.00  0.00    -0.081 HD
BRANCH  13  16
ATOM     15  C   UNL     1       0.663  -3.231  14.401  0.00  0.00    -0.017 C 
ATOM     16  C   UNL     1       0.939  -4.543  13.665  0.00  0.00    -0.082 C 
ENDBRANCH  13  16
BRANCH  11  17
ATOM     17  C   UNL     1       3.742  -2.504   7.995  0.00  0.00    +0.342 C 
ATOM     18  O   UNL     1       4.305  -1.431   8.105  0.00  0.00    -0.245 OA
BRANCH  17  19
ATOM     19  O   UNL     1       4.377  -3.542   7.413  0.00  0.00    -0.461 OA
BRANCH  19  20
ATOM     20  C   UNL     1       5.730  -3.307   6.941  0.00  0.00    +0.229 C 
ATOM     21  C   UNL     1       6.282  -4.590   6.316  0.00  0.00    +0.048 C 
ENDBRANCH  19  20
ENDBRANCH  17  19
ENDBRANCH  11  17
ENDBRANCH   1  10
BRANCH   2  22
ATOM     22  C   UNL     1       0.062  -1.368   4.323  0.00  0.00    +0.037 A 
ATOM     23  C   UNL     1      -1.155  -1.173   3.666  0.00  0.00    +0.015 A 
ATOM     24  C   UNL     1      -1.166  -0.757   2.350  0.00  0.00    +0.029 A 
ATOM     25  C   UNL     1       0.025  -0.534   1.682  0.00  0.00    +0.106 A 
ATOM     26  C   UNL     1       1.234  -0.730   2.326  0.00  0.00    +0.029 A 
ATOM     27  C   UNL     1       1.259  -1.141   3.643  0.00  0.00    +0.015 A 
BRANCH  25  28
ATOM     28  S   UNL     1       0.002  -0.004   0.002  0.00  0.00    +0.061 S 
ATOM     29  O   UNL     1      -1.243  -0.424  -0.539  0.00  0.00    -0.153 OA
ATOM     30  O   UNL     1       1.248  -0.390  -0.563  0.00  0.00    -0.153 OA
BRANCH  28  31
ATOM     31  N   UNL     1      -0.020   1.652   0.011  0.00  0.00    -0.176 NA
ATOM     32  C   UNL     1      -1.295   2.383   0.021  0.00  0.00    +0.109 C 
ATOM     33  C   UNL     1      -1.283   3.369   1.199  0.00  0.00    +0.017 C 
ATOM     34  C   UNL     1      -0.046   4.264   1.096  0.00  0.00    +0.006 C 
ATOM     35  C   UNL     1       1.217   3.403   1.176  0.00  0.00    +0.002 C 
ATOM     36  C   UNL     1       1.234   2.417   0.003  0.00  0.00    +0.112 C 
ATOM     37  C   UNL     1       2.453   4.301   1.106  0.00  0.00    +0.009 C 
ENDBRANCH  28  31
ENDBRANCH  25  28
ENDBRANCH   2  22
TORSDOF 8
