REMARK  Name = ZINC67081974
REMARK  7 active torsions:
REMARK  status: ('A' for Active; 'I' for Inactive)
REMARK    1  A    between atoms: C_1  and  C_2
REMARK    2  A    between atoms: C_2  and  C_3
REMARK    3  A    between atoms: C_3  and  C_5
REMARK    4  A    between atoms: C_3  and  N_15
REMARK    5  A    between atoms: N_18  and  C_19
REMARK    6  A    between atoms: C_19  and  C_21
REMARK    7  A    between atoms: C_19  and  C_22
REMARK                            x       y       z     vdW  Elec       q    Type
REMARK                         _______ _______ _______ _____ _____    ______ ____
ROOT
ATOM      1  N   UNL     1       0.587  -0.318  -2.982  0.00  0.00    -0.290 N 
ATOM      2  C   UNL     1       0.437   0.991  -3.267  0.00  0.00    +0.301 C 
ATOM      3  O   UNL     1       0.938   1.831  -2.545  0.00  0.00    -0.253 OA
ATOM      4  N   UNL     1      -0.268   1.369  -4.352  0.00  0.00    -0.288 N 
ATOM      5  H   UNL     1       0.187  -0.988  -3.558  0.00  0.00    +0.151 HD
ATOM      6  H   UNL     1      -0.668   0.699  -4.928  0.00  0.00    +0.151 HD
ENDROOT
BRANCH   4   7
ATOM      7  C   UNL     1      -0.431   2.792  -4.661  0.00  0.00    +0.158 C 
ATOM      8  C   UNL     1      -1.618   3.352  -3.875  0.00  0.00    +0.038 C 
BRANCH   7   9
ATOM      9  C   UNL     1      -0.681   2.959  -6.137  0.00  0.00    +0.240 C 
ATOM     10  O   UNL     1      -1.189   2.060  -6.772  0.00  0.00    -0.273 OA
ATOM     11  N   UNL     1      -0.340   4.109  -6.752  0.00  0.00    -0.269 N 
ATOM     12  C   UNL     1       0.379   5.218  -6.120  0.00  0.00    +0.118 C 
ATOM     13  C   UNL     1       0.525   6.283  -7.220  0.00  0.00    +0.056 C 
ATOM     14  C   UNL     1      -0.145   5.674  -8.431  0.00  0.00    -0.024 A 
ATOM     15  C   UNL     1      -0.616   4.416  -8.088  0.00  0.00    +0.040 A 
ATOM     16  C   UNL     1      -1.274   3.652  -9.054  0.00  0.00    +0.024 A 
ATOM     17  C   UNL     1      -1.446   4.144 -10.331  0.00  0.00    +0.002 A 
ATOM     18  C   UNL     1      -0.968   5.398 -10.664  0.00  0.00    +0.000 A 
ATOM     19  C   UNL     1      -0.324   6.164  -9.710  0.00  0.00    +0.005 A 
ENDBRANCH   7   9
ENDBRANCH   4   7
BRANCH   1  20
ATOM     20  C   UNL     1       1.353  -0.728  -1.803  0.00  0.00    +0.140 C 
BRANCH  20  21
ATOM     21  C   UNL     1       1.893  -2.119  -2.014  0.00  0.00    +0.129 A 
ATOM     22  N   UNL     1       1.782  -2.832  -3.168  0.00  0.00    -0.340 N 
ATOM     23  H   UNL     1       1.349  -2.539  -3.985  0.00  0.00    +0.167 HD
ATOM     24  C   UNL     1       2.399  -4.048  -2.960  0.00  0.00    +0.066 A 
ATOM     25  C   UNL     1       2.608  -5.174  -3.746  0.00  0.00    +0.028 A 
ATOM     26  C   UNL     1       3.283  -6.256  -3.224  0.00  0.00    +0.002 A 
ATOM     27  C   UNL     1       3.754  -6.228  -1.919  0.00  0.00    +0.002 A 
ATOM     28  C   UNL     1       3.558  -5.130  -1.131  0.00  0.00    +0.030 A 
ATOM     29  C   UNL     1       2.877  -4.020  -1.639  0.00  0.00    +0.089 A 
ATOM     30  N   UNL     1       2.538  -2.812  -1.122  0.00  0.00    -0.231 NA
ENDBRANCH  20  21
BRANCH  20  32
ATOM     31  C   UNL     1      -0.005   0.719  -0.286  0.00  0.00    +0.006 C 
ATOM     32  C   UNL     1       0.443  -0.715  -0.574  0.00  0.00    +0.027 C 
ENDBRANCH  20  32
ENDBRANCH   1  20
TORSDOF 5
