REMARK  Name = ZINC03840854
REMARK  7 active torsions:
REMARK  status: ('A' for Active; 'I' for Inactive)
REMARK    1  A    between atoms: C_1  and  C_2
REMARK    2  A    between atoms: C_11  and  C_30
REMARK    3  A    between atoms: C_14  and  O_29
REMARK    4  A    between atoms: C_16  and  C_20
REMARK    5  A    between atoms: C_20  and  C_22
REMARK    6  A    between atoms: C_20  and  C_23
REMARK    7  A    between atoms: N_25  and  C_26
REMARK                            x       y       z     vdW  Elec       q    Type
REMARK                         _______ _______ _______ _____ _____    ______ ____
ROOT
ATOM      1  C   UNL     1      -0.950  -0.937  -0.545  0.00  0.00    +0.014 C 
ATOM      2  C   UNL     1       0.195  -0.467   0.354  0.00  0.00    +0.042 C 
ATOM      3  C   UNL     1      -0.121   0.920   0.893  0.00  0.00    +0.057 A 
ATOM      4  C   UNL     1       0.853   1.862   0.962  0.00  0.00    +0.015 A 
ATOM      5  S   UNL     1      -0.001   3.258   1.643  0.00  0.00    -0.057 S 
ATOM      6  C   UNL     1      -1.561   2.505   1.784  0.00  0.00    +0.156 A 
ATOM      7  N   UNL     1      -1.325   1.293   1.325  0.00  0.00    -0.230 NA
ATOM      8  N   UNL     1      -2.748   3.041   2.260  0.00  0.00    -0.338 N 
ATOM      9  C   UNL     1       2.279   1.728   0.557  0.00  0.00    +0.051 C 
ATOM     10  C   UNL     1       2.608   0.235   0.365  0.00  0.00    -0.022 C 
ATOM     11  C   UNL     1       1.495  -0.418  -0.458  0.00  0.00    +0.033 C 
ATOM     12  C   UNL     1       1.874  -1.861  -0.806  0.00  0.00    +0.123 C 
ATOM     13  C   UNL     1       3.188  -1.913  -1.557  0.00  0.00    +0.029 C 
ATOM     14  C   UNL     1       4.289  -1.314  -0.677  0.00  0.00    +0.007 C 
ATOM     15  C   UNL     1       3.942   0.144  -0.383  0.00  0.00    +0.008 C 
ATOM     16  C   UNL     1       2.724  -0.454   1.726  0.00  0.00    +0.012 C 
ATOM     17  H   UNL     1      -2.774   3.958   2.574  0.00  0.00    +0.144 HD
ATOM     18  H   UNL     1      -3.551   2.498   2.281  0.00  0.00    +0.144 HD
ENDROOT
BRANCH  13  19
ATOM     19  C   UNL     1       3.063  -1.101  -2.847  0.00  0.00    +0.077 C 
ATOM     20  C   UNL     1       1.934  -1.675  -3.705  0.00  0.00    +0.017 C 
BRANCH  19  21
ATOM     21  C   UNL     1       4.360  -1.169  -3.612  0.00  0.00    +0.216 C 
ATOM     22  O   UNL     1       5.292  -1.806  -3.169  0.00  0.00    -0.276 OA
ATOM     23  N   UNL     1       4.483  -0.523  -4.788  0.00  0.00    -0.312 N 
ATOM     24  H   UNL     1       3.738  -0.014  -5.143  0.00  0.00    +0.149 HD
BRANCH  23  25
ATOM     25  C   UNL     1       5.744  -0.591  -5.532  0.00  0.00    +0.073 C 
ATOM     26  C   UNL     1       6.274   0.708  -6.142  0.00  0.00    +0.024 C 
ATOM     27  C   UNL     1       5.683  -0.376  -7.046  0.00  0.00    +0.024 C 
ENDBRANCH  23  25
ENDBRANCH  19  21
ENDBRANCH  13  19
BRANCH  12  28
ATOM     28  O   UNL     1       0.843  -2.441  -1.607  0.00  0.00    -0.391 OA
ATOM     29  H   UNL     1       1.014  -3.357  -1.866  0.00  0.00    +0.210 HD
ENDBRANCH  12  28
TORSDOF 4
