REMARK  Name = ZINC38890374
REMARK  13 active torsions:
REMARK  status: ('A' for Active; 'I' for Inactive)
REMARK    1  A    between atoms: C_1  and  C_2
REMARK    2  A    between atoms: C_7  and  C_14
REMARK    3  A    between atoms: C_14  and  N_15
REMARK    4  A    between atoms: N_15  and  C_16
REMARK    5  A    between atoms: C_21  and  O_22
REMARK    6  A    between atoms: O_22  and  C_23
REMARK    7  A    between atoms: C_24  and  C_26
REMARK    8  A    between atoms: C_28  and  O_36
REMARK    9  A    between atoms: C_29  and  O_34
REMARK   10  A    between atoms: C_30  and  O_32
REMARK   11  A    between atoms: O_32  and  C_33
REMARK   12  A    between atoms: O_34  and  C_35
REMARK   13  A    between atoms: O_36  and  C_37
REMARK                            x       y       z     vdW  Elec       q    Type
REMARK                         _______ _______ _______ _____ _____    ______ ____
ROOT
ATOM      1  N   UNL     1      -0.950  -6.370   2.317  0.00  0.00    -0.263 N 
ATOM      2  C   UNL     1      -0.370  -7.530   2.683  0.00  0.00    +0.251 C 
ATOM      3  O   UNL     1       0.111  -8.262   1.840  0.00  0.00    -0.270 OA
ENDROOT
BRANCH   1   4
ATOM      4  C   UNL     1      -1.562  -5.559   3.280  0.00  0.00    +0.078 A 
ATOM      5  C   UNL     1      -0.834  -5.101   4.369  0.00  0.00    +0.027 A 
ATOM      6  C   UNL     1      -1.440  -4.300   5.318  0.00  0.00    +0.002 A 
ATOM      7  C   UNL     1      -2.772  -3.953   5.186  0.00  0.00    +0.004 A 
ATOM      8  C   UNL     1      -3.504  -4.404   4.104  0.00  0.00    +0.047 A 
ATOM      9  C   UNL     1      -2.902  -5.203   3.145  0.00  0.00    +0.141 A 
BRANCH   9  10
ATOM     10  O   UNL     1      -3.620  -5.643   2.077  0.00  0.00    -0.493 OA
ATOM     11  C   UNL     1      -4.955  -5.152   1.946  0.00  0.00    +0.277 C 
ENDBRANCH   9  10
ENDBRANCH   1   4
BRANCH   2  12
ATOM     12  C   UNL     1      -0.320  -7.913   4.108  0.00  0.00    +0.044 A 
ATOM     13  C   UNL     1      -1.446  -7.745   4.918  0.00  0.00    +0.062 A 
ATOM     14  C   UNL     1      -1.396  -8.104   6.252  0.00  0.00    +0.166 A 
ATOM     15  C   UNL     1      -0.225  -8.633   6.788  0.00  0.00    +0.204 A 
ATOM     16  C   UNL     1       0.899  -8.801   5.983  0.00  0.00    +0.166 A 
ATOM     17  C   UNL     1       0.852  -8.449   4.647  0.00  0.00    +0.062 A 
BRANCH  16  18
ATOM     18  O   UNL     1       2.041  -9.316   6.511  0.00  0.00    -0.491 OA
ATOM     19  C   UNL     1       3.155  -9.461   5.628  0.00  0.00    +0.277 C 
ENDBRANCH  16  18
BRANCH  15  20
ATOM     20  O   UNL     1      -0.178  -8.985   8.100  0.00  0.00    -0.488 OA
ATOM     21  C   UNL     1      -0.548 -10.326   8.425  0.00  0.00    +0.277 C 
ENDBRANCH  15  20
BRANCH  14  22
ATOM     22  O   UNL     1      -2.492  -7.941   7.041  0.00  0.00    -0.491 OA
ATOM     23  C   UNL     1      -3.693  -7.507   6.401  0.00  0.00    +0.277 C 
ENDBRANCH  14  22
ENDBRANCH   2  12
BRANCH   1  24
ATOM     24  C   UNL     1      -0.941  -5.958   0.911  0.00  0.00    +0.131 C 
BRANCH  24  31
ATOM     25  C   UNL     1       1.139   0.283  -2.684  0.00  0.00    +0.044 C 
ATOM     26  C   UNL     1       0.954  -1.131  -2.197  0.00  0.00    -0.049 A 
ATOM     27  C   UNL     1       0.839  -2.153  -3.140  0.00  0.00    +0.004 A 
ATOM     28  C   UNL     1       0.670  -3.447  -2.763  0.00  0.00    +0.010 A 
ATOM     29  C   UNL     1       0.611  -3.764  -1.335  0.00  0.00    -0.007 A 
ATOM     30  C   UNL     1       0.444  -5.048  -0.910  0.00  0.00    -0.003 C 
ATOM     31  C   UNL     1       0.394  -5.284   0.586  0.00  0.00    +0.116 C 
ATOM     32  C   UNL     1       0.533  -4.077   1.486  0.00  0.00    +0.226 C 
ATOM     33  O   UNL     1       0.501  -4.208   2.694  0.00  0.00    -0.275 OA
ATOM     34  N   UNL     1       0.692  -2.877   0.953  0.00  0.00    -0.284 N 
ATOM     35  C   UNL     1       0.736  -2.664  -0.363  0.00  0.00    +0.041 A 
ATOM     36  C   UNL     1       0.912  -1.360  -0.859  0.00  0.00    +0.027 A 
ATOM     37  H   UNL     1       0.779  -2.115   1.547  0.00  0.00    +0.155 HD
ENDBRANCH  24  31
ENDBRANCH   1  24
TORSDOF 8
