REMARK  Name = ZINC03304331
REMARK  6 active torsions:
REMARK  status: ('A' for Active; 'I' for Inactive)
REMARK    1  A    between atoms: C_4  and  C_7
REMARK    2  A    between atoms: C_7  and  C_9
REMARK    3  A    between atoms: C_7  and  S_21
REMARK    4  A    between atoms: C_9  and  C_11
REMARK    5  A    between atoms: S_21  and  C_22
REMARK    6  A    between atoms: N_35  and  C_36
REMARK                            x       y       z     vdW  Elec       q    Type
REMARK                         _______ _______ _______ _____ _____    ______ ____
ROOT
ATOM      1  S   UNL     1       1.996  -2.050  -2.102  0.00  0.00    -0.069 S 
ENDROOT
BRANCH   1   2
ATOM      2  C   UNL     1       2.383  -0.826  -3.309  0.00  0.00    +0.199 A 
ATOM      3  N   UNL     1       1.962   0.416  -3.324  0.00  0.00    -0.120 NA
ATOM      4  N   UNL     1       2.437   1.031  -4.347  0.00  0.00    -0.109 NA
ATOM      5  C   UNL     1       3.192   0.221  -5.051  0.00  0.00    +0.245 A 
ATOM      6  N   UNL     1       3.186  -0.988  -4.406  0.00  0.00    -0.255 N 
ATOM      7  C   UNL     1       3.905  -2.067  -4.905  0.00  0.00    +0.064 A 
ATOM      8  C   UNL     1       3.901  -3.295  -4.262  0.00  0.00    +0.027 A 
ATOM      9  C   UNL     1       4.626  -4.348  -4.784  0.00  0.00    +0.002 A 
ATOM     10  C   UNL     1       5.361  -4.189  -5.948  0.00  0.00    +0.001 A 
ATOM     11  C   UNL     1       5.377  -2.975  -6.602  0.00  0.00    +0.015 A 
ATOM     12  C   UNL     1       4.649  -1.905  -6.086  0.00  0.00    +0.064 A 
ATOM     13  C   UNL     1       4.640  -0.592  -6.755  0.00  0.00    +0.268 A 
ATOM     14  O   UNL     1       5.273  -0.417  -7.779  0.00  0.00    -0.267 OA
ATOM     15  N   UNL     1       3.913   0.410  -6.220  0.00  0.00    -0.245 N 
BRANCH  15  16
ATOM     16  C   UNL     1       3.899   1.663  -6.844  0.00  0.00    +0.053 A 
ATOM     17  C   UNL     1       2.936   1.951  -7.803  0.00  0.00    +0.026 A 
ATOM     18  C   UNL     1       2.925   3.188  -8.418  0.00  0.00    +0.002 A 
ATOM     19  C   UNL     1       3.870   4.139  -8.079  0.00  0.00    +0.000 A 
ATOM     20  C   UNL     1       4.830   3.855  -7.125  0.00  0.00    +0.002 A 
ATOM     21  C   UNL     1       4.843   2.622  -6.503  0.00  0.00    +0.026 A 
ENDBRANCH  15  16
ENDBRANCH   1   2
BRANCH   1  22
ATOM     22  C   UNL     1       0.902  -1.189  -0.939  0.00  0.00    +0.155 C 
BRANCH  22  26
ATOM     23  C   UNL     1      -2.724  -0.117  -2.925  0.00  0.00    +0.000 A 
ATOM     24  C   UNL     1      -1.922   0.864  -2.374  0.00  0.00    +0.000 A 
ATOM     25  C   UNL     1      -0.748   0.517  -1.732  0.00  0.00    +0.005 A 
ATOM     26  C   UNL     1      -0.377  -0.811  -1.639  0.00  0.00    -0.027 A 
ATOM     27  C   UNL     1      -1.180  -1.793  -2.189  0.00  0.00    +0.005 A 
ATOM     28  C   UNL     1      -2.353  -1.446  -2.833  0.00  0.00    +0.000 A 
ENDBRANCH  22  26
BRANCH  22  29
ATOM     29  C   UNL     1       0.590  -2.097   0.223  0.00  0.00    +0.183 C 
ATOM     30  O   UNL     1       0.650  -3.302   0.085  0.00  0.00    -0.290 OA
BRANCH  29  31
ATOM     31  C   UNL     1       0.227  -1.544   1.476  0.00  0.00    +0.044 A 
ATOM     32  C   UNL     1       0.110  -0.207   1.789  0.00  0.00    +0.095 A 
ATOM     33  N   UNL     1      -0.254  -0.074   3.078  0.00  0.00    -0.360 N 
ATOM     34  H   UNL     1      -0.399   0.775   3.526  0.00  0.00    +0.165 HD
ATOM     35  C   UNL     1      -0.394  -1.310   3.676  0.00  0.00    +0.047 A 
ATOM     36  C   UNL     1      -0.108  -2.286   2.708  0.00  0.00    +0.010 A 
ATOM     37  C   UNL     1      -0.176  -3.636   3.035  0.00  0.00    +0.011 A 
ATOM     38  C   UNL     1      -0.530  -4.012   4.313  0.00  0.00    +0.001 A 
ATOM     39  C   UNL     1      -0.818  -3.050   5.270  0.00  0.00    +0.002 A 
ATOM     40  C   UNL     1      -0.746  -1.709   4.962  0.00  0.00    +0.026 A 
ENDBRANCH  29  31
ENDBRANCH  22  29
ENDBRANCH   1  22
TORSDOF 6
