REMARK  Name = ZINC35006579
REMARK  11 active torsions:
REMARK  status: ('A' for Active; 'I' for Inactive)
REMARK    1  A    between atoms: C_1  and  C_2
REMARK    2  A    between atoms: C_5  and  C_8
REMARK    3  A    between atoms: C_8  and  N_9
REMARK    4  A    between atoms: N_9  and  C_10
REMARK    5  A    between atoms: C_10  and  C_11
REMARK    6  A    between atoms: C_11  and  C_30
REMARK    7  A    between atoms: C_15  and  C_29
REMARK    8  A    between atoms: C_24  and  C_26
REMARK    9  A    between atoms: C_26  and  C_27
REMARK   10  A    between atoms: C_26  and  C_28
REMARK   11  A    between atoms: N_33  and  C_34
REMARK                            x       y       z     vdW  Elec       q    Type
REMARK                         _______ _______ _______ _____ _____    ______ ____
ROOT
ATOM      1  N   UNL     1       1.225  -5.115   0.609  0.00  0.00    -0.281 N 
ATOM      2  C   UNL     1       1.758  -5.290  -0.617  0.00  0.00    +0.307 C 
ATOM      3  O   UNL     1       2.932  -5.582  -0.732  0.00  0.00    -0.252 OA
ATOM      4  N   UNL     1       0.989  -5.142  -1.713  0.00  0.00    -0.267 N 
ATOM      5  H   UNL     1       0.068  -4.849  -1.624  0.00  0.00    +0.156 HD
ENDROOT
BRANCH   4   6
ATOM      6  C   UNL     1       1.519  -5.411  -2.982  0.00  0.00    +0.070 A 
ATOM      7  C   UNL     1       2.851  -5.131  -3.253  0.00  0.00    +0.026 A 
ATOM      8  C   UNL     1       3.371  -5.398  -4.505  0.00  0.00    +0.002 A 
ATOM      9  C   UNL     1       2.566  -5.943  -5.488  0.00  0.00    +0.003 A 
ATOM     10  C   UNL     1       1.239  -6.224  -5.223  0.00  0.00    +0.040 A 
ATOM     11  C   UNL     1       0.713  -5.965  -3.970  0.00  0.00    +0.145 A 
ATOM     12  F   UNL     1      -0.583  -6.244  -3.710  0.00  0.00    -0.204 F 
ENDBRANCH   4   6
BRANCH   1  13
ATOM     13  C   UNL     1      -0.191  -4.763   0.749  0.00  0.00    +0.144 C 
BRANCH  13  18
ATOM     14  C   UNL     1      -0.760   0.987   0.739  0.00  0.00    +0.044 C 
ATOM     15  C   UNL     1      -0.611  -0.512   0.741  0.00  0.00    -0.050 A 
ATOM     16  C   UNL     1      -0.663  -1.214  -0.449  0.00  0.00    +0.003 A 
ATOM     17  C   UNL     1      -0.527  -2.590  -0.446  0.00  0.00    +0.005 A 
ATOM     18  C   UNL     1      -0.338  -3.263   0.746  0.00  0.00    -0.030 A 
ATOM     19  C   UNL     1      -0.285  -2.562   1.936  0.00  0.00    +0.005 A 
ATOM     20  C   UNL     1      -0.417  -1.185   1.933  0.00  0.00    +0.003 A 
ENDBRANCH  13  18
ENDBRANCH   1  13
BRANCH   1  21
ATOM     21  C   UNL     1       2.061  -5.276   1.801  0.00  0.00    +0.116 C 
BRANCH  21  22
ATOM     22  C   UNL     1       2.008  -6.749   2.273  0.00  0.00    -0.013 C 
ATOM     23  C   UNL     1       2.537  -7.599   1.115  0.00  0.00    +0.008 C 
ATOM     24  C   UNL     1       2.825  -9.032   1.543  0.00  0.00    +0.001 C 
ATOM     25  C   UNL     1       3.841  -9.044   2.687  0.00  0.00    +0.011 C 
ATOM     26  C   UNL     1       3.263  -8.300   3.887  0.00  0.00    -0.003 C 
ATOM     27  C   UNL     1       2.878  -6.884   3.502  0.00  0.00    +0.007 C 
ATOM     28  C   UNL     1       2.326  -6.158   4.726  0.00  0.00    +0.009 C 
ATOM     29  C   UNL     1       3.488  -5.915   5.691  0.00  0.00    +0.036 C 
ATOM     30  C   UNL     1       4.372  -7.126   5.823  0.00  0.00    -0.043 A 
ATOM     31  C   UNL     1       4.287  -8.228   5.001  0.00  0.00    -0.038 A 
ATOM     32  C   UNL     1       5.139  -9.304   5.186  0.00  0.00    +0.005 A 
ATOM     33  C   UNL     1       6.084  -9.282   6.193  0.00  0.00    +0.004 A 
ATOM     34  C   UNL     1       6.176  -8.179   7.021  0.00  0.00    -0.045 A 
ATOM     35  C   UNL     1       5.325  -7.109   6.837  0.00  0.00    +0.007 A 
ATOM     36  C   UNL     1       2.079  -9.096   4.435  0.00  0.00    +0.016 C 
ATOM     37  C   UNL     1       0.543  -7.086   2.546  0.00  0.00    +0.013 C 
BRANCH  34  38
ATOM     38  C   UNL     1       7.204  -8.145   8.122  0.00  0.00    +0.013 C 
ATOM     39  C   UNL     1       6.960  -9.309   9.084  0.00  0.00    +0.012 C 
ATOM     40  C   UNL     1       8.604  -8.270   7.516  0.00  0.00    +0.012 C 
ENDBRANCH  34  38
ENDBRANCH  21  22
ENDBRANCH   1  21
TORSDOF 6
