REMARK  Name = ZINC15981140
REMARK  15 active torsions:
REMARK  status: ('A' for Active; 'I' for Inactive)
REMARK    1  A    between atoms: C_1  and  C_2
REMARK    2  A    between atoms: C_2  and  C_3
REMARK    3  A    between atoms: C_2  and  N_66
REMARK    4  A    between atoms: C_4  and  C_5
REMARK    5  A    between atoms: C_4  and  N_66
REMARK    6  A    between atoms: C_5  and  N_6
REMARK    7  A    between atoms: C_10  and  C_11
REMARK    8  A    between atoms: C_14  and  S_17
REMARK    9  A    between atoms: S_17  and  C_18
REMARK   10  A    between atoms: N_21  and  C_22
REMARK   11  A    between atoms: C_25  and  O_28
REMARK   12  A    between atoms: O_28  and  C_29
REMARK   13  A    between atoms: C_30  and  C_31
REMARK   14  A    between atoms: C_30  and  C_32
REMARK   15  A    between atoms: C_30  and  N_66
REMARK                            x       y       z     vdW  Elec       q    Type
REMARK                         _______ _______ _______ _____ _____    ______ ____
ROOT
ATOM      1  N   UNL     1      -1.030   9.775   0.782  0.00  0.00    -0.248 N 
ATOM      2  C   UNL     1       0.073  10.092   1.439  0.00  0.00    +0.259 C 
ATOM      3  O   UNL     1       0.306  11.238   1.776  0.00  0.00    -0.269 OA
ATOM      4  C   UNL     1       1.011   8.995   1.741  0.00  0.00    +0.078 C 
ATOM      5  C   UNL     1       2.204   9.035   2.389  0.00  0.00    +0.028 C 
ATOM      6  S   UNL     1       0.153   7.597   1.031  0.00  0.00    -0.049 S 
ATOM      7  C   UNL     1      -1.278   8.469   0.416  0.00  0.00    +0.168 C 
ATOM      8  N   UNL     1      -2.316   7.985  -0.228  0.00  0.00    -0.225 NA
ENDROOT
BRANCH   5   9
ATOM      9  C   UNL     1       2.896   7.786   2.730  0.00  0.00    -0.024 A 
ATOM     10  C   UNL     1       4.268   7.798   3.011  0.00  0.00    +0.009 A 
ATOM     11  C   UNL     1       4.909   6.634   3.328  0.00  0.00    +0.015 A 
ATOM     12  C   UNL     1       4.199   5.436   3.371  0.00  0.00    +0.008 A 
ATOM     13  C   UNL     1       2.836   5.418   3.087  0.00  0.00    +0.015 A 
ATOM     14  C   UNL     1       2.186   6.579   2.774  0.00  0.00    +0.009 A 
BRANCH  12  15
ATOM     15  S   UNL     1       5.030   3.937   3.780  0.00  0.00    -0.129 S 
ATOM     16  C   UNL     1       3.726   2.679   3.710  0.00  0.00    +0.090 C 
ENDBRANCH  12  15
ENDBRANCH   5   9
BRANCH   8  17
ATOM     17  C   UNL     1      -2.386   6.645  -0.504  0.00  0.00    +0.067 A 
ATOM     18  C   UNL     1      -1.271   5.975  -1.010  0.00  0.00    +0.031 A 
ATOM     19  C   UNL     1      -1.344   4.625  -1.281  0.00  0.00    +0.048 A 
ATOM     20  C   UNL     1      -2.529   3.934  -1.063  0.00  0.00    +0.120 A 
ATOM     21  C   UNL     1      -3.642   4.598  -0.565  0.00  0.00    +0.048 A 
ATOM     22  C   UNL     1      -3.576   5.947  -0.286  0.00  0.00    +0.031 A 
BRANCH  20  23
ATOM     23  O   UNL     1      -2.599   2.604  -1.337  0.00  0.00    -0.495 OA
ATOM     24  C   UNL     1      -1.416   1.984  -1.846  0.00  0.00    +0.277 C 
ENDBRANCH  20  23
ENDBRANCH   8  17
BRANCH   1  25
ATOM     25  C   UNL     1      -2.000  10.820   0.445  0.00  0.00    +0.097 C 
BRANCH  25  26
ATOM     26  C   UNL     1      -3.013  10.961   1.583  0.00  0.00    -0.058 C 
BRANCH  26  27
ATOM     27  N   UNL     1      -3.873  12.132   1.310  0.00  0.00    +0.384 N 
ATOM     28  H   UNL     1      -3.283  12.914   1.001  0.00  0.00    -0.081 HD
BRANCH  27  30
ATOM     29  C   UNL     1      -4.221  12.179  -1.107  0.00  0.00    -0.014 C 
ATOM     30  C   UNL     1      -4.841  11.809   0.242  0.00  0.00    -0.074 C 
ATOM     31  C   UNL     1      -5.173  10.315   0.258  0.00  0.00    -0.014 C 
ENDBRANCH  27  30
BRANCH  27  32
ATOM     32  C   UNL     1      -4.590  12.529   2.540  0.00  0.00    -0.074 C 
ATOM     33  C   UNL     1      -3.570  12.789   3.650  0.00  0.00    -0.014 C 
ATOM     34  C   UNL     1      -5.378  13.811   2.261  0.00  0.00    -0.014 C 
ENDBRANCH  27  32
ENDBRANCH  26  27
ENDBRANCH  25  26
ENDBRANCH   1  25
TORSDOF 9
