REMARK  Name = ZINC08961401
REMARK  6 active torsions:
REMARK  status: ('A' for Active; 'I' for Inactive)
REMARK    1  A    between atoms: C_1  and  C_2
REMARK    2  A    between atoms: C_2  and  C_3
REMARK    3  A    between atoms: C_2  and  C_4
REMARK    4  A    between atoms: C_4  and  S_5
REMARK    5  A    between atoms: S_5  and  N_8
REMARK    6  A    between atoms: N_8  and  C_9
REMARK                            x       y       z     vdW  Elec       q    Type
REMARK                         _______ _______ _______ _____ _____    ______ ____
ROOT
ATOM      1  C   UNL     1       3.567   2.033  -0.745  0.00  0.00    +0.049 A 
ATOM      2  C   UNL     1       3.752   3.175   0.026  0.00  0.00    +0.028 A 
ATOM      3  C   UNL     1       2.709   3.690   0.769  0.00  0.00    +0.049 A 
ATOM      4  C   UNL     1       1.466   3.073   0.751  0.00  0.00    +0.141 A 
ATOM      5  C   UNL     1       1.280   1.907   0.000  0.00  0.00    +0.081 A 
ATOM      6  C   UNL     1       2.337   1.398  -0.760  0.00  0.00    +0.041 A 
ATOM      7  C   UNL     1      -0.014   1.212   0.009  0.00  0.00    +0.252 C 
ATOM      8  O   UNL     1       0.002  -0.004   0.002  0.00  0.00    -0.270 OA
ATOM      9  N   UNL     1      -1.200   1.808   0.018  0.00  0.00    -0.278 N 
ATOM     10  C   UNL     1      -1.431   3.183   0.012  0.00  0.00    +0.078 A 
ATOM     11  C   UNL     1      -2.496   3.680  -0.732  0.00  0.00    +0.047 A 
ATOM     12  C   UNL     1      -2.784   5.032  -0.719  0.00  0.00    +0.043 A 
ATOM     13  C   UNL     1      -2.012   5.897   0.035  0.00  0.00    +0.024 A 
ATOM     14  C   UNL     1      -0.943   5.412   0.764  0.00  0.00    +0.049 A 
ATOM     15  C   UNL     1      -0.638   4.057   0.745  0.00  0.00    +0.150 A 
ATOM     16  O   UNL     1       0.439   3.619   1.441  0.00  0.00    -0.453 OA
ATOM     17 CL   UNL     1      -4.115   5.644  -1.651  0.00  0.00    -0.083 Cl
ATOM     18  H   UNL     1      -1.980   1.232   0.034  0.00  0.00    +0.155 HD
ENDROOT
BRANCH   1  19
ATOM     19  N   UNL     1       4.625   1.526  -1.508  0.00  0.00    -0.221 N 
ATOM     20  H   UNL     1       4.472   1.248  -2.425  0.00  0.00    +0.173 HD
BRANCH  19  21
ATOM     21  S   UNL     1       6.137   1.399  -0.846  0.00  0.00    +0.043 S 
ATOM     22  O   UNL     1       6.948   0.880  -1.891  0.00  0.00    -0.155 OA
ATOM     23  O   UNL     1       6.400   2.682  -0.295  0.00  0.00    -0.155 OA
BRANCH  21  24
ATOM     24  C   UNL     1       5.965   0.173   0.479  0.00  0.00    +0.191 C 
BRANCH  24  26
ATOM     25  C   UNL     1       7.145  -0.965   2.364  0.00  0.00    +0.009 C 
ATOM     26  C   UNL     1       7.316  -0.027   1.168  0.00  0.00    +0.006 C 
ATOM     27  C   UNL     1       8.309  -0.638   0.177  0.00  0.00    +0.009 C 
ENDBRANCH  24  26
ENDBRANCH  21  24
ENDBRANCH  19  21
ENDBRANCH   1  19
TORSDOF 4
