REMARK  Name = ZINC05084781
REMARK  15 active torsions:
REMARK  status: ('A' for Active; 'I' for Inactive)
REMARK    1  A    between atoms: C_1  and  C_2
REMARK    2  A    between atoms: C_2  and  C_3
REMARK    3  A    between atoms: C_2  and  C_4
REMARK    4  A    between atoms: C_4  and  C_6
REMARK    5  A    between atoms: C_4  and  N_10
REMARK    6  A    between atoms: C_6  and  O_8
REMARK    7  A    between atoms: O_8  and  C_9
REMARK    8  A    between atoms: C_11  and  C_13
REMARK    9  A    between atoms: C_13  and  C_15
REMARK   10  A    between atoms: C_13  and  N_66
REMARK   11  A    between atoms: C_15  and  S_16
REMARK   12  A    between atoms: S_16  and  C_17
REMARK   13  A    between atoms: C_17  and  C_18
REMARK   14  A    between atoms: C_17  and  C_24
REMARK   15  A    between atoms: C_17  and  C_30
REMARK                            x       y       z     vdW  Elec       q    Type
REMARK                         _______ _______ _______ _____ _____    ______ ____
ROOT
ATOM      1  S   UNL     1      -0.178  -4.591   1.509  0.00  0.00    -0.141 S 
ENDROOT
BRANCH   1   2
ATOM      2  C   UNL     1      -0.170  -2.778   1.454  0.00  0.00    +0.063 C 
BRANCH   2   3
ATOM      3  C   UNL     1       0.688  -2.307   0.278  0.00  0.00    +0.023 C 
BRANCH   3   5
ATOM      4  N   UNL     1      -0.347  -0.138  -0.306  0.00  0.00    -0.304 N 
ATOM      5  C   UNL     1       0.695  -0.800   0.233  0.00  0.00    +0.200 C 
ATOM      6  O   UNL     1       1.639  -0.185   0.681  0.00  0.00    -0.278 OA
ATOM      7  H   UNL     1      -1.102  -0.630  -0.664  0.00  0.00    +0.149 HD
BRANCH   4   8
ATOM      8  C   UNL     1      -0.340   1.327  -0.350  0.00  0.00    +0.184 C 
BRANCH   8  10
ATOM      9  C   UNL     1       0.035   1.399   2.119  0.00  0.00    +0.009 C 
ATOM     10  C   UNL     1      -0.863   1.879   0.978  0.00  0.00    +0.014 C 
ATOM     11  C   UNL     1      -0.856   3.409   0.932  0.00  0.00    +0.009 C 
ENDBRANCH   8  10
BRANCH   8  12
ATOM     12  C   UNL     1      -1.225   1.800  -1.474  0.00  0.00    +0.328 C 
ATOM     13  O   UNL     1      -1.802   0.996  -2.168  0.00  0.00    -0.249 OA
BRANCH  12  14
ATOM     14  O   UNL     1      -1.372   3.114  -1.705  0.00  0.00    -0.467 OA
ATOM     15  C   UNL     1      -2.239   3.497  -2.805  0.00  0.00    +0.280 C 
ENDBRANCH  12  14
ENDBRANCH   8  12
ENDBRANCH   4   8
ENDBRANCH   3   5
BRANCH   3  18
ATOM     16  H   UNL     1       2.468  -2.451   1.302  0.00  0.00    -0.089 HD
ATOM     17  H   UNL     1       2.092  -3.806   0.415  0.00  0.00    -0.089 HD
ATOM     18  N   UNL     1       2.073  -2.788   0.426  0.00  0.00    +0.386 N 
ATOM     19  H   UNL     1       2.638  -2.434  -0.355  0.00  0.00    -0.089 HD
ENDBRANCH   3  18
ENDBRANCH   2   3
ENDBRANCH   1   2
BRANCH   1  20
ATOM     20  C   UNL     1      -1.097  -4.980   3.024  0.00  0.00    +0.091 C 
BRANCH  20  21
ATOM     21  C   UNL     1      -2.535  -4.560   2.861  0.00  0.00    -0.023 A 
ATOM     22  C   UNL     1      -3.445  -4.805   3.872  0.00  0.00    +0.005 A 
ATOM     23  C   UNL     1      -4.763  -4.415   3.725  0.00  0.00    +0.000 A 
ATOM     24  C   UNL     1      -5.173  -3.789   2.562  0.00  0.00    +0.000 A 
ATOM     25  C   UNL     1      -4.264  -3.549   1.549  0.00  0.00    +0.000 A 
ATOM     26  C   UNL     1      -2.945  -3.934   1.699  0.00  0.00    +0.005 A 
ENDBRANCH  20  21
BRANCH  20  27
ATOM     27  C   UNL     1      -1.033  -6.463   3.283  0.00  0.00    -0.023 A 
ATOM     28  C   UNL     1      -1.132  -7.354   2.230  0.00  0.00    +0.005 A 
ATOM     29  C   UNL     1      -1.069  -8.714   2.467  0.00  0.00    +0.000 A 
ATOM     30  C   UNL     1      -0.917  -9.184   3.758  0.00  0.00    +0.000 A 
ATOM     31  C   UNL     1      -0.824  -8.294   4.812  0.00  0.00    +0.000 A 
ATOM     32  C   UNL     1      -0.882  -6.933   4.574  0.00  0.00    +0.005 A 
ENDBRANCH  20  27
BRANCH  20  33
ATOM     33  C   UNL     1      -0.486  -4.240   4.186  0.00  0.00    -0.023 A 
ATOM     34  C   UNL     1      -1.244  -3.334   4.904  0.00  0.00    +0.005 A 
ATOM     35  C   UNL     1      -0.685  -2.659   5.973  0.00  0.00    +0.000 A 
ATOM     36  C   UNL     1       0.635  -2.883   6.318  0.00  0.00    +0.000 A 
ATOM     37  C   UNL     1       1.395  -3.785   5.596  0.00  0.00    +0.000 A 
ATOM     38  C   UNL     1       0.834  -4.463   4.530  0.00  0.00    +0.005 A 
ENDBRANCH  20  33
ENDBRANCH   1  20
TORSDOF 12
