REMARK  Name = ZINC40688713
REMARK  7 active torsions:
REMARK  status: ('A' for Active; 'I' for Inactive)
REMARK    1  A    between atoms: C_1  and  C_2
REMARK    2  A    between atoms: C_4  and  C_27
REMARK    3  A    between atoms: C_7  and  N_8
REMARK    4  A    between atoms: C_10  and  N_25
REMARK    5  A    between atoms: C_11  and  N_15
REMARK    6  A    between atoms: C_27  and  C_29
REMARK    7  A    between atoms: C_27  and  C_31
REMARK                            x       y       z     vdW  Elec       q    Type
REMARK                         _______ _______ _______ _____ _____    ______ ____
ROOT
ATOM      1  N   UNL     1       0.780   0.549   1.647  0.00  0.00    -0.299 N 
ATOM      2  C   UNL     1       1.187   0.004   2.861  0.00  0.00    +0.126 A 
ATOM      3  C   UNL     1       1.295   0.808   3.998  0.00  0.00    +0.104 A 
ATOM      4  C   UNL     1       1.708   0.210   5.190  0.00  0.00    +0.151 A 
ATOM      5  N   UNL     1       1.981  -1.093   5.197  0.00  0.00    -0.220 NA
ATOM      6  C   UNL     1       1.865  -1.815   4.101  0.00  0.00    +0.200 A 
ATOM      7  N   UNL     1       1.474  -1.292   2.957  0.00  0.00    -0.333 N 
ATOM      8  H   UNL     1       0.648   1.506   1.565  0.00  0.00    +0.154 HD
ATOM      9  H   UNL     1       1.397  -1.858   2.174  0.00  0.00    +0.168 HD
ENDROOT
BRANCH   4  10
ATOM     10  N   UNL     1       1.833   0.965   6.351  0.00  0.00    -0.283 N 
ATOM     11  C   UNL     1       0.733   1.026   7.323  0.00  0.00    +0.113 C 
ATOM     12  C   UNL     1       0.565   2.491   7.748  0.00  0.00    +0.024 C 
ATOM     13  C   UNL     1       1.840   2.951   8.453  0.00  0.00    +0.038 C 
ATOM     14  C   UNL     1       3.050   2.639   7.612  0.00  0.00    -0.026 A 
ATOM     15  C   UNL     1       3.011   1.673   6.616  0.00  0.00    +0.038 A 
ATOM     16  C   UNL     1       4.149   1.401   5.864  0.00  0.00    +0.024 A 
ATOM     17  C   UNL     1       5.319   2.091   6.107  0.00  0.00    +0.002 A 
ATOM     18  C   UNL     1       5.359   3.052   7.101  0.00  0.00    +0.000 A 
ATOM     19  C   UNL     1       4.226   3.331   7.846  0.00  0.00    +0.005 A 
ENDBRANCH   4  10
BRANCH   1  26
ATOM     20  C   UNL     1      -1.583  -1.036   1.613  0.00  0.00    +0.045 C 
ATOM     21  C   UNL     1      -0.580  -1.074   0.488  0.00  0.00    -0.029 A 
ATOM     22  C   UNL     1      -0.798  -1.891  -0.604  0.00  0.00    +0.011 A 
ATOM     23  C   UNL     1       0.121  -1.927  -1.636  0.00  0.00    -0.008 A 
ATOM     24  C   UNL     1       1.262  -1.145  -1.579  0.00  0.00    +0.047 A 
ATOM     25  C   UNL     1       1.485  -0.326  -0.489  0.00  0.00    +0.043 A 
ATOM     26  C   UNL     1       0.560  -0.283   0.547  0.00  0.00    +0.037 A 
ATOM     27 CL   UNL     1       2.413  -1.194  -2.878  0.00  0.00    -0.083 Cl
BRANCH  23  28
ATOM     28  C   UNL     1      -0.120  -2.821  -2.826  0.00  0.00    +0.153 C 
BRANCH  28  29
ATOM     29  C   UNL     1      -1.328  -2.333  -3.584  0.00  0.00    -0.026 A 
ATOM     30  C   UNL     1      -2.583  -2.417  -3.010  0.00  0.00    +0.006 A 
ATOM     31  C   UNL     1      -3.691  -1.970  -3.705  0.00  0.00    +0.020 A 
ATOM     32  C   UNL     1      -3.544  -1.439  -4.974  0.00  0.00    +0.041 A 
ATOM     33  C   UNL     1      -2.288  -1.356  -5.547  0.00  0.00    +0.020 A 
ATOM     34  C   UNL     1      -1.180  -1.798  -4.850  0.00  0.00    +0.006 A 
ATOM     35 CL   UNL     1      -4.936  -0.879  -5.847  0.00  0.00    -0.084 Cl
ENDBRANCH  28  29
BRANCH  28  36
ATOM     36  C   UNL     1      -0.352  -4.199  -2.365  0.00  0.00    +0.075 C 
ATOM     37  N   UNL     1      -0.532  -5.263  -2.010  0.00  0.00    -0.196 NA
ENDBRANCH  28  36
ENDBRANCH  23  28
ENDBRANCH   1  26
BRANCH   3  38
ATOM     38  N   UNL     1       0.998   2.179   3.943  0.00  0.00    -0.353 N 
ATOM     39  H   UNL     1       0.783   2.595   3.094  0.00  0.00    +0.143 HD
ATOM     40  H   UNL     1       1.006   2.709   4.755  0.00  0.00    +0.143 HD
ENDBRANCH   3  38
TORSDOF 6
