REMARK  Name = ZINC17214762
REMARK  9 active torsions:
REMARK  status: ('A' for Active; 'I' for Inactive)
REMARK    1  A    between atoms: C_1  and  O_2
REMARK    2  A    between atoms: O_2  and  C_3
REMARK    3  A    between atoms: C_3  and  C_5
REMARK    4  A    between atoms: C_7  and  C_8
REMARK    5  A    between atoms: C_7  and  C_19
REMARK    6  A    between atoms: C_19  and  C_21
REMARK    7  A    between atoms: N_23  and  C_24
REMARK    8  A    between atoms: C_26  and  N_32
REMARK    9  A    between atoms: C_29  and  C_30
REMARK                            x       y       z     vdW  Elec       q    Type
REMARK                         _______ _______ _______ _____ _____    ______ ____
ROOT
ATOM      1  C   UNL     1       0.727  -2.117  -0.996  0.00  0.00    +0.275 C 
ATOM      2  O   UNL     1       0.595  -2.914   0.087  0.00  0.00    -0.279 OA
ATOM      3  C   UNL     1       1.074  -2.662  -2.216  0.00  0.00    +0.112 C 
ENDROOT
BRANCH   3   4
ATOM      4  C   UNL     1       1.348  -1.781  -3.366  0.00  0.00    +0.144 A 
ATOM      5  C   UNL     1       0.344  -1.631  -4.436  0.00  0.00    +0.276 A 
ATOM      6  N   UNL     1       0.615  -0.819  -5.481  0.00  0.00    -0.319 N 
ATOM      7  C   UNL     1       1.824  -0.152  -5.518  0.00  0.00    +0.068 A 
ATOM      8  C   UNL     1       2.127   0.691  -6.583  0.00  0.00    +0.028 A 
ATOM      9  C   UNL     1       3.335   1.352  -6.612  0.00  0.00    +0.002 A 
ATOM     10  C   UNL     1       4.257   1.185  -5.586  0.00  0.00    +0.002 A 
ATOM     11  C   UNL     1       3.982   0.365  -4.532  0.00  0.00    +0.030 A 
ATOM     12  C   UNL     1       2.757  -0.322  -4.477  0.00  0.00    +0.088 A 
ATOM     13  N   UNL     1       2.485  -1.126  -3.435  0.00  0.00    -0.240 NA
ATOM     14  O   UNL     1      -0.714  -2.231  -4.379  0.00  0.00    -0.266 OA
ATOM     15  H   UNL     1      -0.031  -0.705  -6.196  0.00  0.00    +0.169 HD
ENDBRANCH   3   4
BRANCH   1  16
ATOM     16  C   UNL     1       0.499  -0.662  -0.875  0.00  0.00    +0.380 C 
ATOM     17  O   UNL     1       0.705   0.066  -1.825  0.00  0.00    -0.241 OA
BRANCH  16  19
ATOM     18  C   UNL     1      -0.134   1.272   0.336  0.00  0.00    +0.280 C 
ATOM     19  O   UNL     1       0.065  -0.143   0.290  0.00  0.00    -0.462 OA
ENDBRANCH  16  19
ENDBRANCH   1  16
BRANCH   3  20
ATOM     20  C   UNL     1       1.170  -4.124  -2.369  0.00  0.00    +0.258 C 
ATOM     21  O   UNL     1       0.924  -4.851  -1.426  0.00  0.00    -0.281 OA
BRANCH  20  22
ATOM     22  C   UNL     1       1.566  -4.707  -3.669  0.00  0.00    +0.318 C 
ATOM     23  O   UNL     1       1.537  -6.048  -3.846  0.00  0.00    -0.262 OA
ATOM     24  N   UNL     1       1.944  -3.926  -4.648  0.00  0.00    -0.205 NA
BRANCH  24  25
ATOM     25  C   UNL     1       2.197  -4.451  -5.878  0.00  0.00    +0.087 A 
ATOM     26  C   UNL     1       1.244  -5.253  -6.511  0.00  0.00    +0.062 A 
ATOM     27  C   UNL     1       1.506  -5.781  -7.757  0.00  0.00    +0.128 A 
ATOM     28  C   UNL     1       2.712  -5.523  -8.391  0.00  0.00    +0.034 A 
ATOM     29  C   UNL     1       3.667  -4.734  -7.785  0.00  0.00    +0.023 A 
ATOM     30  C   UNL     1       3.423  -4.185  -6.526  0.00  0.00    +0.077 A 
BRANCH  27  31
ATOM     31  N   UNL     1       0.493  -6.630  -8.423  0.00  0.00    +0.056 N 
ATOM     32  O   UNL     1      -0.560  -6.858  -7.874  0.00  0.00    -0.126 OA
ATOM     33  O   UNL     1       0.718  -7.096  -9.516  0.00  0.00    -0.126 OA
ENDBRANCH  27  31
BRANCH  30  34
ATOM     34  C   UNL     1       4.409  -3.361  -5.895  0.00  0.00    +0.101 C 
ATOM     35  N   UNL     1       5.191  -2.707  -5.394  0.00  0.00    -0.191 NA
ENDBRANCH  30  34
ENDBRANCH  24  25
ENDBRANCH  20  22
ENDBRANCH   3  20
TORSDOF 8
