REMARK  Name = ZINC28699501
REMARK  9 active torsions:
REMARK  status: ('A' for Active; 'I' for Inactive)
REMARK    1  A    between atoms: C_1  and  C_2
REMARK    2  A    between atoms: C_2  and  O_3
REMARK    3  A    between atoms: O_3  and  C_4
REMARK    4  A    between atoms: C_11  and  C_18
REMARK    5  A    between atoms: C_13  and  O_14
REMARK    6  A    between atoms: C_18  and  O_19
REMARK    7  A    between atoms: O_19  and  C_20
REMARK    8  A    between atoms: C_20  and  C_22
REMARK    9  A    between atoms: C_22  and  C_23
REMARK                            x       y       z     vdW  Elec       q    Type
REMARK                         _______ _______ _______ _____ _____    ______ ____
ROOT
ATOM      1  C   UNL     1      10.043  -4.868  -8.328  0.00  0.00    +0.405 C 
ATOM      2  O   UNL     1      10.245  -5.587  -7.369  0.00  0.00    -0.226 OA
ATOM      3  N   UNL     1       9.197  -3.824  -8.220  0.00  0.00    -0.251 N 
ATOM      4  C   UNL     1       8.640  -3.502  -6.982  0.00  0.00    +0.040 A 
ATOM      5  C   UNL     1       7.347  -2.982  -6.919  0.00  0.00    +0.024 A 
ATOM      6  C   UNL     1       6.789  -2.662  -5.716  0.00  0.00    +0.014 A 
ATOM      7  C   UNL     1       7.517  -2.861  -4.537  0.00  0.00    +0.024 A 
ATOM      8  C   UNL     1       6.945  -2.521  -3.232  0.00  0.00    +0.007 A 
ATOM      9  C   UNL     1       7.702  -2.732  -2.125  0.00  0.00    +0.095 A 
ATOM     10  C   UNL     1       9.003  -3.261  -2.255  0.00  0.00    +0.285 A 
ATOM     11  O   UNL     1       9.523  -3.567  -3.454  0.00  0.00    -0.425 OA
ATOM     12  C   UNL     1       8.823  -3.381  -4.594  0.00  0.00    +0.141 A 
ATOM     13  C   UNL     1       9.376  -3.701  -5.824  0.00  0.00    +0.070 A 
ATOM     14  H   UNL     1       8.946  -3.226  -9.109  0.00  0.00    +0.158 HD
ENDROOT
BRANCH  10  15
ATOM     15  O   UNL     1       9.671  -3.446  -1.253  0.00  0.00    -0.480 OA
ATOM     16  H   UNL     1      10.687  -3.859  -1.339  0.00  0.00    +0.295 HD
ENDBRANCH  10  15
BRANCH   1  17
ATOM     17  O   UNL     1      10.664  -5.114  -9.497  0.00  0.00    -0.450 OA
BRANCH  17  19
ATOM     18  C   UNL     1      12.168  -6.375 -10.939  0.00  0.00    +0.048 C 
ATOM     19  C   UNL     1      11.560  -6.255  -9.540  0.00  0.00    +0.230 C 
ENDBRANCH  17  19
ENDBRANCH   1  17
BRANCH   8  20
ATOM     20  C   UNL     1       5.552  -1.957  -3.121  0.00  0.00    +0.268 C 
BRANCH  20  21
ATOM     21  O   UNL     1       5.237  -1.717  -1.724  0.00  0.00    -0.460 OA
BRANCH  21  22
ATOM     22  C   UNL     1       4.024  -1.212  -1.452  0.00  0.00    +0.312 C 
ATOM     23  O   UNL     1       3.251  -0.977  -2.350  0.00  0.00    -0.250 OA
BRANCH  22  24
ATOM     24  C   UNL     1       3.626  -0.937  -0.024  0.00  0.00    +0.155 C 
BRANCH  24  25
ATOM     25  C   UNL     1       2.227  -0.377   0.008  0.00  0.00    -0.033 A 
ATOM     26  C   UNL     1       1.144  -1.230   0.114  0.00  0.00    +0.008 A 
ATOM     27  C   UNL     1      -0.140  -0.720   0.142  0.00  0.00    +0.050 A 
ATOM     28  C   UNL     1      -0.346   0.649   0.066  0.00  0.00    +0.162 A 
ATOM     29  C   UNL     1       0.742   1.507  -0.037  0.00  0.00    +0.162 A 
ATOM     30  C   UNL     1       2.029   0.989  -0.067  0.00  0.00    +0.053 A 
ATOM     31  O   UNL     1       0.563   2.855  -0.105  0.00  0.00    -0.485 OA
ATOM     32  C   UNL     1      -0.749   3.313  -0.449  0.00  0.00    +0.270 C 
ATOM     33  C   UNL     1      -1.767   2.528   0.389  0.00  0.00    +0.270 C 
ATOM     34  O   UNL     1      -1.617   1.136   0.086  0.00  0.00    -0.485 OA
ENDBRANCH  24  25
ENDBRANCH  22  24
ENDBRANCH  21  22
ENDBRANCH  20  21
ENDBRANCH   8  20
TORSDOF 8
