REMARK  Name = ZINC59436865
REMARK  13 active torsions:
REMARK  status: ('A' for Active; 'I' for Inactive)
REMARK    1  A    between atoms: C_1  and  O_2
REMARK    2  A    between atoms: O_2  and  C_3
REMARK    3  A    between atoms: C_5  and  C_13
REMARK    4  A    between atoms: C_7  and  O_11
REMARK    5  A    between atoms: C_8  and  O_9
REMARK    6  A    between atoms: O_9  and  C_10
REMARK    7  A    between atoms: O_11  and  C_12
REMARK    8  A    between atoms: N_14  and  N_15
REMARK    9  A    between atoms: C_16  and  C_18
REMARK   10  A    between atoms: C_18  and  N_19
REMARK   11  A    between atoms: N_19  and  C_20
REMARK   12  A    between atoms: N_19  and  S_27
REMARK   13  A    between atoms: S_27  and  C_30
REMARK                            x       y       z     vdW  Elec       q    Type
REMARK                         _______ _______ _______ _____ _____    ______ ____
ROOT
ATOM      1  N   UNL     1      -8.029  -2.511  -1.233  0.00  0.00    -0.206 N 
ATOM      2  C   UNL     1      -9.226  -2.057  -0.813  0.00  0.00    +0.251 C 
ATOM      3  O   UNL     1     -10.188  -2.796  -0.808  0.00  0.00    -0.272 OA
ATOM      4  H   UNL     1      -7.260  -1.920  -1.237  0.00  0.00    +0.177 HD
ENDROOT
BRANCH   1   6
ATOM      5  C   UNL     1      -6.742  -4.276  -2.068  0.00  0.00    +0.138 C 
ATOM      6  N   UNL     1      -7.895  -3.838  -1.663  0.00  0.00    -0.188 NA
BRANCH   5   9
ATOM      7  C   UNL     1      -5.232  -7.454  -3.381  0.00  0.00    +0.166 A 
ATOM      8  C   UNL     1      -5.361  -6.144  -2.957  0.00  0.00    +0.059 A 
ATOM      9  C   UNL     1      -6.601  -5.671  -2.521  0.00  0.00    +0.002 A 
ATOM     10  C   UNL     1      -7.708  -6.524  -2.515  0.00  0.00    +0.059 A 
ATOM     11  C   UNL     1      -7.573  -7.833  -2.940  0.00  0.00    +0.166 A 
ATOM     12  C   UNL     1      -6.337  -8.300  -3.379  0.00  0.00    +0.204 A 
BRANCH   7  14
ATOM     13  C   UNL     1      -2.933  -6.993  -3.780  0.00  0.00    +0.277 C 
ATOM     14  O   UNL     1      -4.025  -7.915  -3.805  0.00  0.00    -0.491 OA
ENDBRANCH   7  14
BRANCH  12  15
ATOM     15  O   UNL     1      -6.208  -9.586  -3.802  0.00  0.00    -0.488 OA
ATOM     16  C   UNL     1      -5.868 -10.562  -2.816  0.00  0.00    +0.277 C 
ENDBRANCH  12  15
BRANCH  11  17
ATOM     17  O   UNL     1      -8.649  -8.664  -2.935  0.00  0.00    -0.491 OA
ATOM     18  C   UNL     1      -9.888  -8.118  -2.478  0.00  0.00    +0.277 C 
ENDBRANCH  11  17
ENDBRANCH   5   9
ENDBRANCH   1   6
BRANCH   2  19
ATOM     19  C   UNL     1      -9.370  -0.630  -0.349  0.00  0.00    +0.228 C 
BRANCH  19  20
ATOM     20  N   UNL     1     -10.757  -0.384   0.052  0.00  0.00    -0.194 N 
BRANCH  20  21
ATOM     21  C   UNL     1     -11.177  -0.706   1.346  0.00  0.00    +0.052 A 
ATOM     22  C   UNL     1     -12.089  -1.734   1.546  0.00  0.00    +0.026 A 
ATOM     23  C   UNL     1     -12.502  -2.050   2.826  0.00  0.00    +0.022 A 
ATOM     24  C   UNL     1     -12.008  -1.342   3.908  0.00  0.00    +0.041 A 
ATOM     25  C   UNL     1     -11.100  -0.317   3.711  0.00  0.00    +0.022 A 
ATOM     26  C   UNL     1     -10.680  -0.001   2.434  0.00  0.00    +0.026 A 
ATOM     27 CL   UNL     1     -12.530  -1.741   5.515  0.00  0.00    -0.084 Cl
ENDBRANCH  20  21
BRANCH  20  28
ATOM     28  S   UNL     1     -11.828   0.274  -1.026  0.00  0.00    +0.075 S 
ATOM     29  O   UNL     1     -12.920   0.770  -0.263  0.00  0.00    -0.150 OA
ATOM     30  O   UNL     1     -11.069   1.101  -1.898  0.00  0.00    -0.150 OA
BRANCH  28  31
ATOM     31  C   UNL     1     -12.458  -1.048  -2.007  0.00  0.00    +0.109 A 
ATOM     32  C   UNL     1     -11.741  -1.500  -3.099  0.00  0.00    +0.029 A 
ATOM     33  C   UNL     1     -12.235  -2.537  -3.868  0.00  0.00    +0.002 A 
ATOM     34  C   UNL     1     -13.446  -3.121  -3.546  0.00  0.00    +0.000 A 
ATOM     35  C   UNL     1     -14.162  -2.669  -2.453  0.00  0.00    +0.002 A 
ATOM     36  C   UNL     1     -13.666  -1.635  -1.681  0.00  0.00    +0.029 A 
ENDBRANCH  28  31
ENDBRANCH  20  28
ENDBRANCH  19  20
ENDBRANCH   2  19
TORSDOF 10
