REMARK  Name = ZINC38573589
REMARK  6 active torsions:
REMARK  status: ('A' for Active; 'I' for Inactive)
REMARK    1  A    between atoms: C_1  and  C_2
REMARK    2  A    between atoms: C_6  and  C_25
REMARK    3  A    between atoms: C_7  and  C_11
REMARK    4  A    between atoms: C_11  and  C_12
REMARK    5  A    between atoms: N_14  and  C_15
REMARK    6  A    between atoms: C_28  and  C_31
REMARK                            x       y       z     vdW  Elec       q    Type
REMARK                         _______ _______ _______ _____ _____    ______ ____
ROOT
ATOM      1  C   UNL     1      -0.038   1.625  -1.022  0.00  0.00    +0.044 C 
ATOM      2  C   UNL     1      -0.025   0.127  -0.861  0.00  0.00    -0.036 A 
ATOM      3  C   UNL     1       0.025  -0.673  -1.966  0.00  0.00    +0.051 A 
ATOM      4  C   UNL     1       0.037  -2.060  -1.835  0.00  0.00    +0.143 A 
ATOM      5  C   UNL     1      -0.001  -2.644  -0.558  0.00  0.00    +0.064 A 
ATOM      6  C   UNL     1       0.013  -4.102  -0.441  0.00  0.00    -0.026 A 
ATOM      7  C   UNL     1       0.062  -4.838  -1.582  0.00  0.00    +0.049 A 
ATOM      8  C   UNL     1       0.099  -4.187  -2.832  0.00  0.00    +0.341 A 
ATOM      9  O   UNL     1       0.142  -4.857  -3.849  0.00  0.00    -0.245 OA
ATOM     10  O   UNL     1       0.086  -2.849  -2.931  0.00  0.00    -0.422 OA
ATOM     11  C   UNL     1      -0.027  -4.769   0.910  0.00  0.00    +0.045 C 
ATOM     12  C   UNL     1      -0.052  -1.825   0.583  0.00  0.00    +0.146 A 
ATOM     13  C   UNL     1      -0.058  -0.434   0.419  0.00  0.00    +0.027 A 
ATOM     14  C   UNL     1      -0.107   0.120   1.778  0.00  0.00    -0.005 A 
ATOM     15  C   UNL     1      -0.120  -0.931   2.609  0.00  0.00    +0.199 A 
ATOM     16  O   UNL     1      -0.096  -2.075   1.905  0.00  0.00    -0.462 OA
ATOM     17  C   UNL     1      -0.137   1.578   2.161  0.00  0.00    +0.047 C 
ENDROOT
BRANCH   7  18
ATOM     18  C   UNL     1       0.078  -6.343  -1.512  0.00  0.00    +0.138 C 
BRANCH  18  19
ATOM     19  C   UNL     1      -1.327  -6.868  -1.662  0.00  0.00    +0.222 C 
ATOM     20  O   UNL     1      -2.250  -6.096  -1.811  0.00  0.00    -0.275 OA
ATOM     21  N   UNL     1      -1.557  -8.196  -1.630  0.00  0.00    -0.285 N 
ATOM     22  H   UNL     1      -0.812  -8.816  -1.584  0.00  0.00    +0.155 HD
BRANCH  21  23
ATOM     23  C   UNL     1      -2.858  -8.675  -1.663  0.00  0.00    +0.034 C 
ATOM     24  C   UNL     1      -3.245  -9.556  -2.649  0.00  0.00    +0.029 C 
ATOM     25  C   UNL     1      -4.594  -9.928  -2.618  0.00  0.00    -0.016 C 
ATOM     26  C   UNL     1      -5.242 -11.053  -2.980  0.00  0.00    +0.025 C 
ATOM     27  C   UNL     1      -6.557 -11.017  -2.477  0.00  0.00    +0.106 C 
ATOM     28  N   UNL     1      -6.828  -9.884  -1.889  0.00  0.00    -0.279 NA
ATOM     29  C   UNL     1      -5.671  -9.016  -2.054  0.00  0.00    +0.158 C 
ATOM     30  C   UNL     1      -5.142  -8.414  -0.787  0.00  0.00    +0.006 C 
ATOM     31  C   UNL     1      -3.823  -8.251  -0.644  0.00  0.00    +0.021 C 
ENDBRANCH  21  23
ENDBRANCH  18  19
ENDBRANCH   7  18
TORSDOF 3
