REMARK  Name = ZINC52615429
REMARK  4 active torsions:
REMARK  status: ('A' for Active; 'I' for Inactive)
REMARK    1  A    between atoms: C_8  and  S_10
REMARK    2  A    between atoms: S_10  and  C_13
REMARK    3  A    between atoms: C_13  and  C_14
REMARK    4  A    between atoms: C_20  and  C_22
REMARK                            x       y       z     vdW  Elec       q    Type
REMARK                         _______ _______ _______ _____ _____    ______ ____
ROOT
ATOM      1  C   UNL     1       4.034  -3.975  -1.811  0.00  0.00    +0.271 C 
ENDROOT
BRANCH   1   2
ATOM      2  C   UNL     1       4.813  -5.258  -1.945  0.00  0.00    +0.238 C 
ATOM      3  O   UNL     1       5.180  -5.852  -0.953  0.00  0.00    -0.274 OA
ATOM      4  N   UNL     1       5.102  -5.747  -3.168  0.00  0.00    -0.293 N 
ATOM      5  C   UNL     1       4.724  -5.128  -4.452  0.00  0.00    +0.108 C 
ATOM      6  C   UNL     1       5.759  -5.666  -5.471  0.00  0.00    +0.021 C 
ATOM      7  C   UNL     1       5.955  -7.123  -4.976  0.00  0.00    +0.029 C 
ATOM      8  C   UNL     1       5.851  -6.982  -3.442  0.00  0.00    +0.113 C 
BRANCH   8   9
ATOM      9  C   UNL     1       5.114  -8.166  -2.871  0.00  0.00    +0.010 A 
ATOM     10  C   UNL     1       5.611  -9.252  -2.229  0.00  0.00    +0.013 A 
ATOM     11  C   UNL     1       4.737 -10.226  -1.784  0.00  0.00    +0.008 A 
ATOM     12  C   UNL     1       3.409 -10.066  -2.003  0.00  0.00    +0.045 A 
ATOM     13  S   UNL     1       3.360  -8.498  -2.855  0.00  0.00    -0.100 S 
ENDBRANCH   8   9
ENDBRANCH   1   2
BRANCH   1  14
ATOM     14  S   UNL     1       3.809  -3.586  -0.054  0.00  0.00    +0.040 S 
ATOM     15  O   UNL     1       5.058  -3.257   0.539  0.00  0.00    -0.166 OA
ATOM     16  O   UNL     1       2.948  -4.540   0.553  0.00  0.00    -0.166 OA
BRANCH  14  24
ATOM     17  C   UNL     1      -0.017   1.372   0.010  0.00  0.00    +0.002 A 
ATOM     18  C   UNL     1       1.170   2.094   0.002  0.00  0.00    +0.002 A 
ATOM     19  C   UNL     1       2.383   1.443  -0.013  0.00  0.00    +0.030 A 
ATOM     20  C   UNL     1       2.421   0.050  -0.021  0.00  0.00    +0.093 A 
ATOM     21  C   UNL     1       1.220  -0.680  -0.013  0.00  0.00    +0.093 A 
ATOM     22  C   UNL     1       0.002  -0.004   0.002  0.00  0.00    +0.030 A 
ATOM     23  N   UNL     1       1.574  -1.999  -0.024  0.00  0.00    -0.210 NA
ATOM     24  C   UNL     1       2.894  -2.080  -0.037  0.00  0.00    +0.272 A 
ATOM     25  N   UNL     1       3.430  -0.871  -0.036  0.00  0.00    -0.210 NA
ENDBRANCH  14  24
ENDBRANCH   1  14
TORSDOF 4
