REMARK  Name = ZINC18197816
REMARK  8 active torsions:
REMARK  status: ('A' for Active; 'I' for Inactive)
REMARK    1  A    between atoms: C_1  and  O_2
REMARK    2  A    between atoms: O_2  and  C_3
REMARK    3  A    between atoms: C_5  and  C_13
REMARK    4  A    between atoms: C_7  and  O_11
REMARK    5  A    between atoms: C_8  and  O_9
REMARK    6  A    between atoms: O_9  and  C_10
REMARK    7  A    between atoms: O_11  and  C_12
REMARK    8  A    between atoms: C_18  and  C_27
REMARK                            x       y       z     vdW  Elec       q    Type
REMARK                         _______ _______ _______ _____ _____    ______ ____
ROOT
ATOM      1  C   UNL     1       0.211   6.048  -0.479  0.00  0.00    +0.032 C 
ATOM      2  C   UNL     1       1.262   6.953   0.167  0.00  0.00    +0.060 C 
ATOM      3  C   UNL     1       1.808   7.914  -0.863  0.00  0.00    +0.020 C 
ATOM      4  C   UNL     1       1.039   8.345  -1.886  0.00  0.00    +0.041 C 
ATOM      5  C   UNL     1       1.560   9.303  -2.935  0.00  0.00    +0.175 C 
ATOM      6  N   UNL     1       2.810   9.902  -2.486  0.00  0.00    -0.219 N 
ATOM      7  C   UNL     1       3.531   9.429  -1.440  0.00  0.00    +0.220 A 
ATOM      8  N   UNL     1       4.591  10.178  -1.305  0.00  0.00    -0.180 NA
ATOM      9  C   UNL     1       4.580  11.140  -2.238  0.00  0.00    +0.233 A 
ATOM     10  N   UNL     1       3.504  11.005  -2.982  0.00  0.00    -0.132 NA
ATOM     11  N   UNL     1       5.555  12.127  -2.396  0.00  0.00    -0.326 N 
ATOM     12  N   UNL     1       3.108   8.331  -0.709  0.00  0.00    -0.287 N 
ATOM     13  C   UNL     1      -0.292   7.911  -2.021  0.00  0.00    +0.164 C 
ATOM     14  O   UNL     1      -0.966   8.336  -2.938  0.00  0.00    -0.292 OA
ATOM     15  C   UNL     1      -0.900   6.932  -1.055  0.00  0.00    +0.088 C 
ATOM     16  H   UNL     1       5.467  12.787  -3.102  0.00  0.00    +0.145 HD
ATOM     17  H   UNL     1       6.320  12.152  -1.800  0.00  0.00    +0.145 HD
ATOM     18  H   UNL     1       3.712   7.869  -0.106  0.00  0.00    +0.155 HD
ENDROOT
BRANCH   5  19
ATOM     19  C   UNL     1       1.797   8.555  -4.221  0.00  0.00    -0.018 A 
ATOM     20  C   UNL     1       2.697   7.506  -4.255  0.00  0.00    +0.007 A 
ATOM     21  C   UNL     1       2.912   6.816  -5.433  0.00  0.00    +0.020 A 
ATOM     22  C   UNL     1       2.233   7.182  -6.582  0.00  0.00    +0.041 A 
ATOM     23  C   UNL     1       1.336   8.235  -6.549  0.00  0.00    +0.020 A 
ATOM     24  C   UNL     1       1.119   8.921  -5.369  0.00  0.00    +0.007 A 
ATOM     25 CL   UNL     1       2.507   6.321  -8.064  0.00  0.00    -0.084 Cl
ENDBRANCH   5  19
BRANCH   1  28
ATOM     26  C   UNL     1      -0.787   2.893   1.346  0.00  0.00    +0.165 A 
ATOM     27  C   UNL     1      -0.259   3.751   0.394  0.00  0.00    +0.053 A 
ATOM     28  C   UNL     1      -0.366   5.119   0.558  0.00  0.00    -0.036 A 
ATOM     29  C   UNL     1      -1.000   5.638   1.672  0.00  0.00    +0.053 A 
ATOM     30  C   UNL     1      -1.531   4.787   2.629  0.00  0.00    +0.165 A 
ATOM     31  C   UNL     1      -1.431   3.410   2.464  0.00  0.00    +0.204 A 
BRANCH  26  33
ATOM     32  C   UNL     1      -0.013   1.086   0.008  0.00  0.00    +0.277 C 
ATOM     33  O   UNL     1      -0.682   1.547   1.184  0.00  0.00    -0.491 OA
ENDBRANCH  26  33
BRANCH  31  34
ATOM     34  O   UNL     1      -1.957   2.571   3.398  0.00  0.00    -0.488 OA
ATOM     35  C   UNL     1      -1.102   2.182   4.475  0.00  0.00    +0.277 C 
ENDBRANCH  31  34
BRANCH  30  36
ATOM     36  O   UNL     1      -2.156   5.298   3.723  0.00  0.00    -0.491 OA
ATOM     37  C   UNL     1      -2.228   6.721   3.823  0.00  0.00    +0.277 C 
ENDBRANCH  30  36
ENDBRANCH   1  28
TORSDOF 5
