REMARK  Name = ZINC39422091
REMARK  11 active torsions:
REMARK  status: ('A' for Active; 'I' for Inactive)
REMARK    1  A    between atoms: C_1  and  C_2
REMARK    2  A    between atoms: C_2  and  C_33
REMARK    3  A    between atoms: C_4  and  N_10
REMARK    4  A    between atoms: C_6  and  C_8
REMARK    5  A    between atoms: C_6  and  C_9
REMARK    6  A    between atoms: N_10  and  C_11
REMARK    7  A    between atoms: N_10  and  C_19
REMARK    8  A    between atoms: C_11  and  C_12
REMARK    9  A    between atoms: C_19  and  N_21
REMARK   10  A    between atoms: N_21  and  C_22
REMARK   11  A    between atoms: C_27  and  C_28
REMARK                            x       y       z     vdW  Elec       q    Type
REMARK                         _______ _______ _______ _____ _____    ______ ____
ROOT
ATOM      1  N   UNL     1       2.341  -1.101  -2.486  0.00  0.00    -0.305 N 
ENDROOT
BRANCH   1   5
ATOM      2  C   UNL     1       0.204   1.580   0.279  0.00  0.00    -0.010 C 
ATOM      3  C   UNL     1       0.015   0.059   0.280  0.00  0.00    -0.072 C 
ATOM      4  C   UNL     1       0.438  -0.513  -1.070  0.00  0.00    +0.009 C 
ATOM      5  C   UNL     1       1.961  -0.518  -1.193  0.00  0.00    +0.073 C 
ATOM      6  C   UNL     1       2.529  -1.380  -0.065  0.00  0.00    +0.009 C 
ATOM      7  C   UNL     1       2.122  -0.815   1.292  0.00  0.00    -0.072 C 
ATOM      8  N   UNL     1       0.697  -0.557   1.404  0.00  0.00    +0.386 N 
ATOM      9  C   UNL     1       2.495  -1.867   2.361  0.00  0.00    -0.010 C 
ATOM     10  C   UNL     1       2.941   0.444   1.595  0.00  0.00    -0.010 C 
ATOM     11  C   UNL     1      -1.498  -0.210   0.442  0.00  0.00    -0.010 C 
ATOM     12  H   UNL     1       0.541   0.025   2.233  0.00  0.00    -0.084 HD
ATOM     13  H   UNL     1       0.227  -1.443   1.617  0.00  0.00    -0.084 HD
ENDBRANCH   1   5
BRANCH   1  14
ATOM     14  C   UNL     1       1.988  -2.367  -2.783  0.00  0.00    +0.138 C 
ATOM     15  S   UNL     1       1.038  -3.272  -1.683  0.00  0.00    -0.018 S 
BRANCH  14  16
ATOM     16  N   UNL     1       2.383  -2.921  -3.947  0.00  0.00    -0.296 N 
ATOM     17  H   UNL     1       3.065  -3.611  -3.948  0.00  0.00    +0.154 HD
BRANCH  16  18
ATOM     18  C   UNL     1       1.810  -2.501  -5.152  0.00  0.00    +0.044 A 
ATOM     19  C   UNL     1       0.957  -1.405  -5.172  0.00  0.00    +0.025 A 
ATOM     20  C   UNL     1       0.393  -0.993  -6.363  0.00  0.00    +0.022 A 
ATOM     21  C   UNL     1       0.676  -1.671  -7.536  0.00  0.00    +0.042 A 
ATOM     22  C   UNL     1       1.525  -2.763  -7.519  0.00  0.00    +0.034 A 
ATOM     23  C   UNL     1       2.097  -3.176  -6.331  0.00  0.00    +0.077 A 
ATOM     24 CL   UNL     1      -0.035  -1.150  -9.031  0.00  0.00    -0.084 Cl
BRANCH  23  25
ATOM     25  C   UNL     1       3.026  -4.363  -6.314  0.00  0.00    +0.419 C 
ATOM     26  F   UNL     1       3.194  -4.843  -7.617  0.00  0.00    -0.166 F 
ATOM     27  F   UNL     1       4.267  -3.976  -5.797  0.00  0.00    -0.166 F 
ATOM     28  F   UNL     1       2.481  -5.371  -5.512  0.00  0.00    -0.166 F 
ENDBRANCH  23  25
ENDBRANCH  16  18
ENDBRANCH  14  16
ENDBRANCH   1  14
BRANCH   1  29
ATOM     29  C   UNL     1       3.103  -0.307  -3.453  0.00  0.00    +0.145 C 
BRANCH  29  30
ATOM     30  C   UNL     1       4.562  -0.323  -3.077  0.00  0.00    +0.005 A 
ATOM     31  C   UNL     1       5.123   0.766  -2.436  0.00  0.00    +0.008 A 
ATOM     32  C   UNL     1       6.462   0.751  -2.091  0.00  0.00    +0.000 A 
ATOM     33  C   UNL     1       7.241  -0.352  -2.387  0.00  0.00    +0.003 A 
ATOM     34  C   UNL     1       6.682  -1.442  -3.027  0.00  0.00    +0.038 A 
ATOM     35  C   UNL     1       5.340  -1.430  -3.368  0.00  0.00    +0.128 A 
ATOM     36  F   UNL     1       4.791  -2.497  -3.990  0.00  0.00    -0.205 F 
ENDBRANCH  29  30
ENDBRANCH   1  29
TORSDOF 7
