REMARK  Name = ZINC00115378
REMARK  6 active torsions:
REMARK  status: ('A' for Active; 'I' for Inactive)
REMARK    1  A    between atoms: C_1  and  C_2
REMARK    2  A    between atoms: C_2  and  C_3
REMARK    3  A    between atoms: C_3  and  C_4
REMARK    4  A    between atoms: C_11  and  N_23
REMARK    5  A    between atoms: C_12  and  C_21
REMARK    6  A    between atoms: C_13  and  C_15
REMARK                            x       y       z     vdW  Elec       q    Type
REMARK                         _______ _______ _______ _____ _____    ______ ____
ROOT
ATOM      1  C   UNL     1       0.802  -1.576  -1.460  0.00  0.00    +0.044 A 
ATOM      2  C   UNL     1       0.019  -2.623  -1.759  0.00  0.00    +0.045 A 
ATOM      3  C   UNL     1       0.701  -3.802  -1.383  0.00  0.00    +0.244 A 
ATOM      4  N   UNL     1       1.849  -3.459  -0.875  0.00  0.00    -0.135 NA
ATOM      5  N   UNL     1       1.943  -2.059  -0.916  0.00  0.00    -0.278 N 
ATOM      6  H   UNL     1       2.695  -1.529  -0.606  0.00  0.00    +0.189 HD
ATOM      7  O   UNL     1       0.160  -5.037  -1.565  0.00  0.00    -0.422 OA
ATOM      8  C   UNL     1      -0.925  -5.128  -2.360  0.00  0.00    +0.200 C 
ATOM      9  C   UNL     1      -1.661  -4.076  -2.773  0.00  0.00    +0.094 C 
ATOM     10  C   UNL     1      -1.352  -2.652  -2.384  0.00  0.00    +0.075 C 
ENDROOT
BRANCH  10  11
ATOM     11  C   UNL     1      -2.390  -2.156  -1.375  0.00  0.00    +0.002 C 
ATOM     12  C   UNL     1      -3.753  -2.040  -2.060  0.00  0.00    +0.004 C 
ATOM     13  C   UNL     1      -4.790  -1.544  -1.051  0.00  0.00    +0.000 C 
ATOM     14  C   UNL     1      -4.886  -2.534   0.111  0.00  0.00    +0.000 C 
ATOM     15  C   UNL     1      -3.523  -2.651   0.796  0.00  0.00    +0.000 C 
ATOM     16  C   UNL     1      -2.486  -3.147  -0.213  0.00  0.00    +0.004 C 
ENDBRANCH  10  11
BRANCH   8  17
ATOM     17  N   UNL     1      -1.307  -6.378  -2.777  0.00  0.00    -0.328 N 
ATOM     18  H   UNL     1      -0.801  -7.158  -2.500  0.00  0.00    +0.145 HD
ATOM     19  H   UNL     1      -2.083  -6.482  -3.350  0.00  0.00    +0.145 HD
ENDBRANCH   8  17
BRANCH   9  20
ATOM     20  C   UNL     1      -2.788  -4.322  -3.622  0.00  0.00    +0.100 C 
ATOM     21  N   UNL     1      -3.682  -4.518  -4.295  0.00  0.00    -0.191 NA
ENDBRANCH   9  20
BRANCH   1  22
ATOM     22  C   UNL     1       0.473  -0.124  -1.693  0.00  0.00    +0.055 C 
BRANCH  22  24
ATOM     23  C   UNL     1      -0.413   1.958  -0.633  0.00  0.00    +0.004 C 
ATOM     24  C   UNL     1      -0.181   0.459  -0.438  0.00  0.00    +0.003 C 
ENDBRANCH  22  24
ENDBRANCH   1  22
TORSDOF 5
