REMARK  Name = ZINC58603279
REMARK  7 active torsions:
REMARK  status: ('A' for Active; 'I' for Inactive)
REMARK    1  A    between atoms: C_1  and  C_2
REMARK    2  A    between atoms: C_2  and  C_3
REMARK    3  A    between atoms: C_2  and  C_4
REMARK    4  A    between atoms: C_4  and  N_5
REMARK    5  A    between atoms: C_8  and  N_11
REMARK    6  A    between atoms: N_11  and  C_12
REMARK    7  A    between atoms: C_23  and  C_26
REMARK                            x       y       z     vdW  Elec       q    Type
REMARK                         _______ _______ _______ _____ _____    ______ ____
ROOT
ATOM      1  C   UNL     1      -3.161  -6.887   1.165  0.00  0.00    +0.071 A 
ATOM      2  C   UNL     1      -4.392  -6.308   1.542  0.00  0.00    +0.158 A 
ATOM      3  N   UNL     1      -5.424  -7.061   1.800  0.00  0.00    -0.168 NA
ATOM      4  N   UNL     1      -5.340  -8.454   1.712  0.00  0.00    -0.177 N 
ATOM      5  C   UNL     1      -4.184  -9.050   1.357  0.00  0.00    +0.293 A 
ATOM      6  O   UNL     1      -4.118 -10.267   1.282  0.00  0.00    -0.264 OA
ATOM      7  C   UNL     1      -3.060  -8.263   1.067  0.00  0.00    +0.129 A 
ATOM      8 CL   UNL     1      -1.562  -9.005   0.600  0.00  0.00    -0.076 Cl
ATOM      9  C   UNL     1      -6.462  -9.235   1.996  0.00  0.00    +0.158 A 
ATOM     10  C   UNL     1      -7.655  -8.620   2.358  0.00  0.00    +0.049 A 
ATOM     11  C   UNL     1      -8.760  -9.406   2.636  0.00  0.00    +0.017 A 
ATOM     12  C   UNL     1      -8.633 -10.785   2.542  0.00  0.00    +0.073 A 
ATOM     13  C   UNL     1      -7.416 -11.328   2.176  0.00  0.00    +0.125 A 
ATOM     14  N   UNL     1      -6.382 -10.553   1.913  0.00  0.00    -0.235 NA
ENDROOT
BRANCH  12  15
ATOM     15  C   UNL     1      -9.809 -11.680   2.836  0.00  0.00    +0.419 C 
ATOM     16  F   UNL     1     -10.530 -11.904   1.658  0.00  0.00    -0.166 F 
ATOM     17  F   UNL     1      -9.350 -12.901   3.341  0.00  0.00    -0.166 F 
ATOM     18  F   UNL     1     -10.637 -11.066   3.781  0.00  0.00    -0.166 F 
ENDBRANCH  12  15
BRANCH   1  19
ATOM     19  N   UNL     1      -2.066  -6.085   0.891  0.00  0.00    -0.339 N 
ATOM     20  H   UNL     1      -1.224  -6.487   0.629  0.00  0.00    +0.146 HD
BRANCH  19  24
ATOM     21  N   UNL     1      -1.416  -2.016   0.004  0.00  0.00    +0.380 N 
ATOM     22  C   UNL     1      -0.913  -2.498   1.296  0.00  0.00    -0.077 C 
ATOM     23  C   UNL     1      -0.799  -4.024   1.265  0.00  0.00    +0.003 C 
ATOM     24  C   UNL     1      -2.181  -4.628   0.997  0.00  0.00    +0.067 C 
ATOM     25  C   UNL     1      -2.728  -4.061  -0.316  0.00  0.00    +0.003 C 
ATOM     26  C   UNL     1      -2.770  -2.534  -0.227  0.00  0.00    -0.077 C 
ATOM     27  H   UNL     1      -0.805  -2.334  -0.733  0.00  0.00    -0.082 HD
BRANCH  21  28
ATOM     28  C   UNL     1      -1.450  -0.547   0.011  0.00  0.00    -0.076 C 
BRANCH  28  30
ATOM     29  C   UNL     1       0.749  -0.387  -1.165  0.00  0.00    +0.005 C 
ATOM     30  C   UNL     1      -0.022  -0.005   0.101  0.00  0.00    -0.034 C 
ATOM     31  C   UNL     1      -0.062   1.518   0.233  0.00  0.00    +0.005 C 
ENDBRANCH  28  30
ENDBRANCH  21  28
ENDBRANCH  19  24
ENDBRANCH   1  19
TORSDOF 5
