REMARK  Name = ZINC35372301
REMARK  9 active torsions:
REMARK  status: ('A' for Active; 'I' for Inactive)
REMARK    1  A    between atoms: C_4  and  C_7
REMARK    2  A    between atoms: C_7  and  C_8
REMARK    3  A    between atoms: C_8  and  C_10
REMARK    4  A    between atoms: C_8  and  C_24
REMARK    5  A    between atoms: C_10  and  C_11
REMARK    6  A    between atoms: N_13  and  C_14
REMARK    7  A    between atoms: C_14  and  C_15
REMARK    8  A    between atoms: N_26  and  C_33
REMARK    9  A    between atoms: C_33  and  C_34
REMARK                            x       y       z     vdW  Elec       q    Type
REMARK                         _______ _______ _______ _____ _____    ______ ____
ROOT
ATOM      1  C   UNL     1       4.171  -0.963   1.399  0.00  0.00    +0.034 C 
ENDROOT
BRANCH   1   2
ATOM      2  C   UNL     1       3.202  -1.896   2.078  0.00  0.00    -0.018 A 
ATOM      3  C   UNL     1       2.899  -3.147   1.699  0.00  0.00    +0.091 A 
ATOM      4  N   UNL     1       1.979  -3.685   2.557  0.00  0.00    -0.342 N 
ATOM      5  C   UNL     1       1.659  -2.770   3.535  0.00  0.00    +0.050 A 
ATOM      6  C   UNL     1       2.416  -1.611   3.281  0.00  0.00    +0.003 A 
ATOM      7  C   UNL     1       2.300  -0.505   4.125  0.00  0.00    +0.010 A 
ATOM      8  C   UNL     1       1.454  -0.555   5.197  0.00  0.00    +0.001 A 
ATOM      9  C   UNL     1       0.708  -1.697   5.454  0.00  0.00    +0.002 A 
ATOM     10  C   UNL     1       0.800  -2.797   4.628  0.00  0.00    +0.026 A 
BRANCH   4  11
ATOM     11  C   UNL     1       1.418  -5.034   2.452  0.00  0.00    +0.157 C 
BRANCH  11  12
ATOM     12  C   UNL     1       0.109  -4.977   1.706  0.00  0.00    -0.028 A 
ATOM     13  C   UNL     1      -1.072  -4.784   2.398  0.00  0.00    +0.005 A 
ATOM     14  C   UNL     1      -2.272  -4.731   1.714  0.00  0.00    +0.000 A 
ATOM     15  C   UNL     1      -2.291  -4.872   0.339  0.00  0.00    +0.000 A 
ATOM     16  C   UNL     1      -1.110  -5.064  -0.352  0.00  0.00    +0.000 A 
ATOM     17  C   UNL     1       0.091  -5.112   0.331  0.00  0.00    +0.005 A 
ENDBRANCH  11  12
ENDBRANCH   4  11
ENDBRANCH   1   2
BRANCH   1  18
ATOM     18  C   UNL     1       3.711  -0.707  -0.038  0.00  0.00    +0.043 C 
BRANCH  18  22
ATOM     19  C   UNL     1      -0.017   1.378   0.010  0.00  0.00    +0.000 A 
ATOM     20  C   UNL     1       1.171   2.086   0.002  0.00  0.00    +0.000 A 
ATOM     21  C   UNL     1       2.377   1.411  -0.013  0.00  0.00    +0.003 A 
ATOM     22  C   UNL     1       2.396   0.029  -0.020  0.00  0.00    -0.047 A 
ATOM     23  C   UNL     1       1.208  -0.679  -0.012  0.00  0.00    +0.003 A 
ATOM     24  C   UNL     1       0.002  -0.004   0.002  0.00  0.00    +0.000 A 
ENDBRANCH  18  22
ENDBRANCH   1  18
BRANCH   1  25
ATOM     25  C   UNL     1       5.563  -1.598   1.383  0.00  0.00    +0.104 C 
BRANCH  25  26
ATOM     26  C   UNL     1       6.556  -0.617   0.815  0.00  0.00    +0.214 C 
ATOM     27  O   UNL     1       6.187   0.482   0.459  0.00  0.00    -0.276 OA
ATOM     28  N   UNL     1       7.855  -0.960   0.704  0.00  0.00    -0.311 N 
ATOM     29  H   UNL     1       8.150  -1.839   0.989  0.00  0.00    +0.149 HD
BRANCH  28  30
ATOM     30  C   UNL     1       8.820  -0.006   0.152  0.00  0.00    +0.139 C 
BRANCH  30  31
ATOM     31  C   UNL     1      10.191  -0.631   0.136  0.00  0.00    -0.027 A 
ATOM     32  C   UNL     1      11.024  -0.495   1.232  0.00  0.00    +0.009 A 
ATOM     33  C   UNL     1      12.282  -1.067   1.222  0.00  0.00    +0.050 A 
ATOM     34  C   UNL     1      12.713  -1.778   0.114  0.00  0.00    +0.166 A 
ATOM     35  C   UNL     1      11.874  -1.915  -0.990  0.00  0.00    +0.167 A 
ATOM     36  C   UNL     1      10.612  -1.344  -0.971  0.00  0.00    +0.054 A 
ATOM     37  O   UNL     1      12.521  -2.651  -1.941  0.00  0.00    -0.453 OA
ATOM     38  C   UNL     1      13.912  -2.615  -1.573  0.00  0.00    +0.466 C 
ATOM     39  O   UNL     1      13.885  -2.428  -0.146  0.00  0.00    -0.453 OA
ENDBRANCH  30  31
ENDBRANCH  28  30
ENDBRANCH  25  26
ENDBRANCH   1  25
TORSDOF 9
