REMARK  Name = ZINC00976355
REMARK  10 active torsions:
REMARK  status: ('A' for Active; 'I' for Inactive)
REMARK    1  A    between atoms: C_1  and  C_2
REMARK    2  A    between atoms: C_2  and  C_4
REMARK    3  A    between atoms: C_2  and  S_13
REMARK    4  A    between atoms: N_6  and  C_7
REMARK    5  A    between atoms: S_13  and  C_14
REMARK    6  A    between atoms: C_17  and  C_25
REMARK    7  A    between atoms: N_18  and  C_19
REMARK    8  A    between atoms: C_25  and  O_26
REMARK    9  A    between atoms: O_26  and  C_27
REMARK   10  A    between atoms: C_30  and  N_33
REMARK                            x       y       z     vdW  Elec       q    Type
REMARK                         _______ _______ _______ _____ _____    ______ ____
ROOT
ATOM      1  C   UNL     1       8.674  -0.724  -1.157  0.00  0.00    +0.197 A 
ATOM      2  N   UNL     1       8.670  -1.998  -0.840  0.00  0.00    -0.122 NA
ATOM      3  N   UNL     1       9.815  -2.518  -1.102  0.00  0.00    -0.130 NA
ATOM      4  C   UNL     1      10.614  -1.616  -1.600  0.00  0.00    +0.176 A 
ATOM      5  N   UNL     1       9.914  -0.440  -1.659  0.00  0.00    -0.271 N 
ENDROOT
BRANCH   5   6
ATOM      6  C   UNL     1      10.375   0.797  -2.132  0.00  0.00    +0.050 A 
ATOM      7  C   UNL     1      10.713   0.948  -3.469  0.00  0.00    +0.026 A 
ATOM      8  C   UNL     1      11.160   2.170  -3.934  0.00  0.00    +0.002 A 
ATOM      9  C   UNL     1      11.283   3.238  -3.064  0.00  0.00    +0.000 A 
ATOM     10  C   UNL     1      10.952   3.089  -1.730  0.00  0.00    +0.002 A 
ATOM     11  C   UNL     1      10.498   1.872  -1.262  0.00  0.00    +0.026 A 
ENDBRANCH   5   6
BRANCH   1  12
ATOM     12  S   UNL     1       7.332   0.405  -0.978  0.00  0.00    -0.073 S 
BRANCH  12  14
ATOM     13  C   UNL     1       6.541  -1.175   1.105  0.00  0.00    +0.029 C 
ATOM     14  C   UNL     1       6.083  -0.701  -0.275  0.00  0.00    +0.137 C 
BRANCH  14  15
ATOM     15  C   UNL     1       4.776   0.037  -0.145  0.00  0.00    +0.230 C 
ATOM     16  O   UNL     1       4.761   1.250  -0.139  0.00  0.00    -0.274 OA
ATOM     17  N   UNL     1       3.622  -0.651  -0.036  0.00  0.00    -0.285 N 
ATOM     18  H   UNL     1       3.638  -1.618   0.035  0.00  0.00    +0.155 HD
BRANCH  17  19
ATOM     19  C   UNL     1       2.399   0.030  -0.027  0.00  0.00    +0.033 A 
ATOM     20  C   UNL     1       2.245   1.194  -0.769  0.00  0.00    +0.023 A 
ATOM     21  C   UNL     1       1.038   1.864  -0.758  0.00  0.00    +0.002 A 
ATOM     22  C   UNL     1      -0.018   1.377  -0.008  0.00  0.00    +0.000 A 
ATOM     23  C   UNL     1       0.132   0.219   0.732  0.00  0.00    +0.002 A 
ATOM     24  C   UNL     1       1.337  -0.456   0.725  0.00  0.00    +0.023 A 
ENDBRANCH  17  19
ENDBRANCH  14  15
ENDBRANCH  12  14
ENDBRANCH   1  12
BRANCH   4  25
ATOM     25  C   UNL     1      12.041  -1.829  -2.035  0.00  0.00    +0.305 C 
BRANCH  25  26
ATOM     26  O   UNL     1      12.068  -2.205  -3.413  0.00  0.00    -0.484 OA
BRANCH  26  27
ATOM     27  C   UNL     1      13.288  -2.436  -3.966  0.00  0.00    +0.121 A 
ATOM     28  C   UNL     1      14.435  -2.299  -3.199  0.00  0.00    +0.048 A 
ATOM     29  C   UNL     1      15.674  -2.539  -3.762  0.00  0.00    +0.036 A 
ATOM     30  C   UNL     1      15.771  -2.905  -5.092  0.00  0.00    +0.126 A 
ATOM     31  C   UNL     1      14.628  -3.038  -5.860  0.00  0.00    +0.036 A 
ATOM     32  C   UNL     1      13.387  -2.804  -5.300  0.00  0.00    +0.048 A 
BRANCH  30  33
ATOM     33  N   UNL     1      17.099  -3.157  -5.694  0.00  0.00    +0.056 N 
ATOM     34  O   UNL     1      17.185  -3.481  -6.865  0.00  0.00    -0.126 OA
ATOM     35  O   UNL     1      18.106  -3.041  -5.019  0.00  0.00    -0.126 OA
ENDBRANCH  30  33
ENDBRANCH  26  27
ENDBRANCH  25  26
ENDBRANCH   4  25
TORSDOF 9
