REMARK  Name = ZINC05894580
REMARK  4 active torsions:
REMARK  status: ('A' for Active; 'I' for Inactive)
REMARK    1  A    between atoms: C_6  and  C_7
REMARK    2  A    between atoms: C_7  and  O_25
REMARK    3  A    between atoms: N_10  and  C_13
REMARK    4  A    between atoms: N_23  and  O_24
REMARK                            x       y       z     vdW  Elec       q    Type
REMARK                         _______ _______ _______ _____ _____    ______ ____
ROOT
ATOM      1  C   UNL     1      -1.214  -0.901   0.216  0.00  0.00    +0.088 C 
ATOM      2  C   UNL     1      -1.822  -0.940  -1.189  0.00  0.00    +0.021 C 
ATOM      3  C   UNL     1      -3.085  -1.803  -1.169  0.00  0.00    -0.075 C 
ATOM      4  N   UNL     1      -2.744  -3.166  -0.743  0.00  0.00    +0.385 N 
ATOM      5  C   UNL     1      -2.227  -3.144   0.630  0.00  0.00    -0.075 C 
ATOM      6  C   UNL     1      -0.931  -2.333   0.679  0.00  0.00    +0.021 C 
ATOM      7  H   UNL     1      -2.041  -3.543  -1.361  0.00  0.00    -0.081 HD
ENDROOT
BRANCH   4   8
ATOM      8  C   UNL     1      -3.946  -4.010  -0.800  0.00  0.00    -0.016 C 
ATOM      9  C   UNL     1      -3.618  -5.454  -0.310  0.00  0.00    -0.019 C 
ATOM     10  C   UNL     1      -2.312  -5.833  -1.074  0.00  0.00    +0.003 C 
ATOM     11  C   UNL     1      -2.755  -5.980  -2.547  0.00  0.00    +0.009 C 
ATOM     12  C   UNL     1      -4.286  -5.685  -2.528  0.00  0.00    +0.035 C 
ATOM     13  C   UNL     1      -4.693  -6.271  -1.110  0.00  0.00    +0.011 C 
ATOM     14  C   UNL     1      -4.407  -4.179  -2.240  0.00  0.00    +0.047 C 
ATOM     15  N   UNL     1      -4.787  -3.260  -3.046  0.00  0.00    -0.098 NA
BRANCH  15  16
ATOM     16  O   UNL     1      -5.186  -3.595  -4.363  0.00  0.00    -0.409 OA
ATOM     17  H   UNL     1      -5.457  -2.835  -4.896  0.00  0.00    +0.328 HD
ENDBRANCH  15  16
ENDBRANCH   4   8
BRANCH   1  23
ATOM     18  C   UNL     1       0.057   1.246   0.415  0.00  0.00    +0.008 A 
ATOM     19  C   UNL     1       1.237   1.965   0.389  0.00  0.00    +0.020 A 
ATOM     20  C   UNL     1       2.434   1.321   0.133  0.00  0.00    +0.041 A 
ATOM     21  C   UNL     1       2.449  -0.044  -0.096  0.00  0.00    +0.020 A 
ATOM     22  C   UNL     1       1.269  -0.762  -0.070  0.00  0.00    +0.008 A 
ATOM     23  C   UNL     1       0.073  -0.117   0.186  0.00  0.00    -0.016 A 
ATOM     24 CL   UNL     1       3.917   2.223   0.099  0.00  0.00    -0.084 Cl
ENDBRANCH   1  23
BRANCH   1  25
ATOM     25  O   UNL     1      -2.131  -0.279   1.118  0.00  0.00    -0.384 OA
ATOM     26  H   UNL     1      -2.358   0.631   0.883  0.00  0.00    +0.211 HD
ENDBRANCH   1  25
TORSDOF 4
