REMARK  Name = ZINC39690002
REMARK  5 active torsions:
REMARK  status: ('A' for Active; 'I' for Inactive)
REMARK    1  A    between atoms: N_4  and  C_6
REMARK    2  A    between atoms: C_9  and  C_12
REMARK    3  A    between atoms: C_12  and  N_13
REMARK    4  A    between atoms: C_14  and  C_16
REMARK    5  A    between atoms: C_27  and  C_29
REMARK                            x       y       z     vdW  Elec       q    Type
REMARK                         _______ _______ _______ _____ _____    ______ ____
ROOT
ATOM      1  C   UNL     1       3.823  -8.023   2.971  0.00  0.00    +0.100 C 
ATOM      2  C   UNL     1       2.491  -7.895   3.742  0.00  0.00    +0.121 C 
ATOM      3  N   UNL     1       1.859  -9.230   3.622  0.00  0.00    -0.296 N 
ATOM      4  C   UNL     1       2.985 -10.184   3.758  0.00  0.00    +0.115 C 
ATOM      5  C   UNL     1       4.146  -9.526   2.986  0.00  0.00    -0.004 C 
ATOM      6  C   UNL     1       4.205 -10.069   1.562  0.00  0.00    -0.010 C 
ATOM      7  C   UNL     1       4.583 -11.552   1.601  0.00  0.00    -0.082 C 
ATOM      8  N   UNL     1       5.885 -11.710   2.261  0.00  0.00    +0.379 N 
ATOM      9  C   UNL     1       5.794 -11.272   3.659  0.00  0.00    -0.082 C 
ATOM     10  C   UNL     1       5.467  -9.777   3.707  0.00  0.00    -0.010 C 
ATOM     11  C   UNL     1       0.554  -9.512   3.432  0.00  0.00    +0.249 C 
ATOM     12  O   UNL     1       0.188 -10.668   3.353  0.00  0.00    -0.270 OA
ATOM     13  H   UNL     1       6.160 -12.681   2.232  0.00  0.00    -0.086 HD
ATOM     14  H   UNL     1       6.574 -11.153   1.779  0.00  0.00    -0.086 HD
ENDROOT
BRANCH  11  15
ATOM     15  C   UNL     1      -0.429  -8.416   3.318  0.00  0.00    +0.073 A 
ATOM     16  C   UNL     1      -0.733  -7.872   2.067  0.00  0.00    +0.054 A 
ATOM     17  C   UNL     1      -1.654  -6.848   1.969  0.00  0.00    +0.021 A 
ATOM     18  C   UNL     1      -2.276  -6.361   3.105  0.00  0.00    +0.003 A 
ATOM     19  C   UNL     1      -1.980  -6.894   4.346  0.00  0.00    +0.021 A 
ATOM     20  C   UNL     1      -1.066  -7.923   4.460  0.00  0.00    +0.054 A 
ATOM     21 CL   UNL     1      -0.702  -8.596   6.018  0.00  0.00    -0.083 Cl
ATOM     22 CL   UNL     1       0.047  -8.481   0.641  0.00  0.00    -0.083 Cl
ENDBRANCH  11  15
BRANCH   1  24
ATOM     23  N   UNL     1       4.727  -7.085   0.868  0.00  0.00    -0.311 N 
ATOM     24  C   UNL     1       3.659  -7.536   1.554  0.00  0.00    +0.218 C 
ATOM     25  O   UNL     1       2.564  -7.551   1.032  0.00  0.00    -0.275 OA
ATOM     26  H   UNL     1       5.602  -7.074   1.286  0.00  0.00    +0.149 HD
BRANCH  23  27
ATOM     27  C   UNL     1       4.567  -6.612  -0.509  0.00  0.00    +0.139 C 
BRANCH  27  31
ATOM     28  C   UNL     1       8.355  -5.346  -2.031  0.00  0.00    +0.046 A 
ATOM     29  C   UNL     1       7.947  -6.663  -2.189  0.00  0.00    +0.026 A 
ATOM     30  C   UNL     1       6.722  -7.070  -1.696  0.00  0.00    +0.007 A 
ATOM     31  C   UNL     1       5.902  -6.166  -1.046  0.00  0.00    -0.030 A 
ATOM     32  C   UNL     1       6.306  -4.853  -0.887  0.00  0.00    +0.007 A 
ATOM     33  C   UNL     1       7.532  -4.442  -1.373  0.00  0.00    +0.026 A 
BRANCH  28  37
ATOM     34  C   UNL     1      11.322  -3.663  -3.030  0.00  0.00    +0.019 A 
ATOM     35  C   UNL     1      11.564  -4.965  -3.511  0.00  0.00    +0.019 A 
ATOM     36  C   UNL     1      10.494  -5.720  -3.192  0.00  0.00    +0.091 A 
ATOM     37  N   UNL     1       9.598  -4.931  -2.529  0.00  0.00    -0.323 N 
ATOM     38  C   UNL     1      10.113  -3.670  -2.434  0.00  0.00    +0.091 A 
ENDBRANCH  28  37
ENDBRANCH  27  31
ENDBRANCH  23  27
ENDBRANCH   1  24
TORSDOF 5
