REMARK  Name = ZINC46791350
REMARK  8 active torsions:
REMARK  status: ('A' for Active; 'I' for Inactive)
REMARK    1  A    between atoms: C_1  and  C_2
REMARK    2  A    between atoms: C_7  and  C_10
REMARK    3  A    between atoms: C_14  and  C_17
REMARK    4  A    between atoms: C_17  and  N_18
REMARK    5  A    between atoms: C_19  and  C_21
REMARK    6  A    between atoms: C_21  and  C_23
REMARK    7  A    between atoms: C_21  and  O_24
REMARK    8  A    between atoms: O_24  and  C_25
REMARK                            x       y       z     vdW  Elec       q    Type
REMARK                         _______ _______ _______ _____ _____    ______ ____
ROOT
ATOM      1  C   UNL     1       4.840   2.526  -5.319  0.00  0.00    +0.141 C 
ENDROOT
BRANCH   1  13
ATOM      2  C   UNL     1      -0.035   1.503  -0.029  0.00  0.00    +0.039 C 
ATOM      3  C   UNL     1      -0.029  -0.026  -0.054  0.00  0.00    +0.133 C 
ATOM      4  C   UNL     1       0.687  -0.514  -1.319  0.00  0.00    +0.137 C 
ATOM      5  N   UNL     1       2.112  -0.164  -1.209  0.00  0.00    -0.312 N 
ATOM      6  C   UNL     1       2.824  -0.538   0.024  0.00  0.00    +0.137 C 
ATOM      7  C   UNL     1       2.003  -0.049   1.223  0.00  0.00    +0.133 C 
ATOM      8  O   UNL     1       0.658  -0.520   1.098  0.00  0.00    -0.371 OA
ATOM      9  C   UNL     1       2.616  -0.589   2.516  0.00  0.00    +0.039 C 
ATOM     10  C   UNL     1       2.767   0.499  -2.240  0.00  0.00    +0.099 A 
ATOM     11  C   UNL     1       2.104   0.734  -3.440  0.00  0.00    +0.042 A 
ATOM     12  C   UNL     1       2.768   1.396  -4.457  0.00  0.00    +0.010 A 
ATOM     13  C   UNL     1       4.078   1.802  -4.239  0.00  0.00    -0.014 A 
ATOM     14  C   UNL     1       4.675   1.536  -3.023  0.00  0.00    +0.089 A 
ATOM     15  N   UNL     1       4.015   0.908  -2.069  0.00  0.00    -0.349 N 
ATOM     16  H   UNL     1       4.457   0.737  -1.222  0.00  0.00    +0.167 HD
ENDBRANCH   1  13
BRANCH   1  17
ATOM     17  N   UNL     1       4.631   3.969  -5.181  0.00  0.00    -0.308 N 
ATOM     18  C   UNL     1       5.219   4.821  -6.043  0.00  0.00    +0.254 C 
ATOM     19  O   UNL     1       5.922   4.393  -6.934  0.00  0.00    -0.272 OA
ATOM     20  H   UNL     1       4.068   4.312  -4.469  0.00  0.00    +0.149 HD
BRANCH  18  21
ATOM     21  C   UNL     1       5.004   6.306  -5.902  0.00  0.00    +0.256 C 
ATOM     22  C   UNL     1       5.615   6.786  -4.584  0.00  0.00    +0.062 C 
BRANCH  21  23
ATOM     23  O   UNL     1       5.630   6.985  -6.992  0.00  0.00    -0.479 OA
BRANCH  23  24
ATOM     24  C   UNL     1       5.132   8.205  -7.328  0.00  0.00    +0.136 A 
ATOM     25  C   UNL     1       4.142   8.787  -6.551  0.00  0.00    +0.049 A 
ATOM     26  C   UNL     1       3.637  10.027  -6.893  0.00  0.00    +0.042 A 
ATOM     27  C   UNL     1       4.119  10.688  -8.010  0.00  0.00    +0.125 A 
ATOM     28  C   UNL     1       5.108  10.108  -8.787  0.00  0.00    +0.057 A 
ATOM     29  C   UNL     1       5.619   8.870  -8.444  0.00  0.00    +0.062 A 
ATOM     30 BR   UNL     1       6.975   8.081  -9.500  0.00  0.00    -0.046 Br
ATOM     31  F   UNL     1       3.624  11.900  -8.343  0.00  0.00    -0.205 F 
ENDBRANCH  23  24
ENDBRANCH  21  23
ENDBRANCH  18  21
ENDBRANCH   1  17
TORSDOF 5
