REMARK  Name = ZINC12644211
REMARK  11 active torsions:
REMARK  status: ('A' for Active; 'I' for Inactive)
REMARK    1  A    between atoms: C_1  and  C_2
REMARK    2  A    between atoms: C_2  and  C_4
REMARK    3  A    between atoms: C_2  and  N_53
REMARK    4  A    between atoms: C_7  and  S_16
REMARK    5  A    between atoms: N_8  and  C_9
REMARK    6  A    between atoms: S_16  and  C_17
REMARK    7  A    between atoms: C_17  and  C_19
REMARK    8  A    between atoms: C_17  and  C_20
REMARK    9  A    between atoms: N_22  and  C_23
REMARK   10  A    between atoms: C_31  and  N_53
REMARK   11  A    between atoms: C_32  and  N_53
REMARK                            x       y       z     vdW  Elec       q    Type
REMARK                         _______ _______ _______ _____ _____    ______ ____
ROOT
ATOM      1  C   UNL     1      -1.464   3.525   2.479  0.00  0.00    +0.125 A 
ATOM      2  N   UNL     1      -2.575   3.034   2.951  0.00  0.00    -0.135 NA
ATOM      3  N   UNL     1      -2.898   3.636   4.039  0.00  0.00    -0.122 NA
ATOM      4  C   UNL     1      -2.004   4.553   4.326  0.00  0.00    +0.197 A 
ATOM      5  N   UNL     1      -1.056   4.509   3.341  0.00  0.00    -0.275 N 
ENDROOT
BRANCH   5   6
ATOM      6  C   UNL     1       0.094   5.306   3.235  0.00  0.00    +0.050 A 
ATOM      7  C   UNL     1       1.352   4.728   3.330  0.00  0.00    +0.028 A 
ATOM      8  C   UNL     1       2.482   5.515   3.220  0.00  0.00    +0.022 A 
ATOM      9  C   UNL     1       2.360   6.879   3.025  0.00  0.00    +0.041 A 
ATOM     10  C   UNL     1       1.107   7.459   2.935  0.00  0.00    +0.022 A 
ATOM     11  C   UNL     1      -0.026   6.675   3.039  0.00  0.00    +0.028 A 
ATOM     12 CL   UNL     1       3.783   7.866   2.893  0.00  0.00    -0.084 Cl
ENDBRANCH   5   6
BRANCH   1  14
ATOM     13  C   UNL     1      -1.507   3.622   0.002  0.00  0.00    -0.005 C 
ATOM     14  C   UNL     1      -0.755   3.088   1.223  0.00  0.00    -0.003 C 
BRANCH  14  17
ATOM     15  C   UNL     1      -0.029   1.158  -0.045  0.00  0.00    -0.096 C 
ATOM     16  C   UNL     1      -0.081   1.068   2.374  0.00  0.00    -0.096 C 
ATOM     17  N   UNL     1      -0.741   1.611   1.169  0.00  0.00    +0.382 N 
ATOM     18  H   UNL     1      -1.708   1.270   1.135  0.00  0.00    -0.082 HD
ENDBRANCH  14  17
ENDBRANCH   1  14
BRANCH   4  19
ATOM     19  S   UNL     1      -2.019   5.632   5.719  0.00  0.00    -0.073 S 
BRANCH  19  20
ATOM     20  C   UNL     1      -3.543   5.083   6.525  0.00  0.00    +0.137 C 
ATOM     21  C   UNL     1      -3.378   3.637   6.999  0.00  0.00    +0.029 C 
BRANCH  20  22
ATOM     22  C   UNL     1      -3.833   5.969   7.709  0.00  0.00    +0.230 C 
ATOM     23  O   UNL     1      -2.944   6.629   8.204  0.00  0.00    -0.274 OA
ATOM     24  N   UNL     1      -5.080   6.028   8.218  0.00  0.00    -0.282 N 
ATOM     25  H   UNL     1      -5.804   5.551   7.784  0.00  0.00    +0.155 HD
BRANCH  24  26
ATOM     26  C   UNL     1      -5.330   6.779   9.374  0.00  0.00    +0.069 A 
ATOM     27  C   UNL     1      -4.630   7.956   9.604  0.00  0.00    +0.027 A 
ATOM     28  C   UNL     1      -4.879   8.694  10.744  0.00  0.00    +0.022 A 
ATOM     29  C   UNL     1      -5.824   8.263  11.659  0.00  0.00    +0.044 A 
ATOM     30  C   UNL     1      -6.523   7.090  11.434  0.00  0.00    +0.060 A 
ATOM     31  C   UNL     1      -6.282   6.349  10.291  0.00  0.00    +0.146 A 
ATOM     32  F   UNL     1      -6.969   5.207  10.069  0.00  0.00    -0.203 F 
ATOM     33 CL   UNL     1      -6.132   9.194  13.091  0.00  0.00    -0.083 Cl
ENDBRANCH  24  26
ENDBRANCH  20  22
ENDBRANCH  19  20
ENDBRANCH   4  19
TORSDOF 7
