REMARK  Name = ZINC63140589
REMARK  8 active torsions:
REMARK  status: ('A' for Active; 'I' for Inactive)
REMARK    1  A    between atoms: C_1  and  O_2
REMARK    2  A    between atoms: O_2  and  C_3
REMARK    3  A    between atoms: C_6  and  C_9
REMARK    4  A    between atoms: C_9  and  C_10
REMARK    5  A    between atoms: C_10  and  N_11
REMARK    6  A    between atoms: C_31  and  C_33
REMARK    7  A    between atoms: C_38  and  O_39
REMARK    8  A    between atoms: O_39  and  C_40
REMARK                            x       y       z     vdW  Elec       q    Type
REMARK                         _______ _______ _______ _____ _____    ______ ____
ROOT
ATOM      1  N   UNL     1       4.338  -3.380  -5.397  0.00  0.00    -0.291 N 
ATOM      2  C   UNL     1       4.381  -4.833  -5.428  0.00  0.00    +0.203 C 
ATOM      3  C   UNL     1       5.193  -5.349  -6.569  0.00  0.00    +0.234 C 
ATOM      4  O   UNL     1       5.296  -6.552  -6.688  0.00  0.00    -0.274 OA
ATOM      5  N   UNL     1       5.815  -4.580  -7.470  0.00  0.00    -0.279 N 
ATOM      6  C   UNL     1       5.749  -3.123  -7.442  0.00  0.00    +0.167 C 
ATOM      7  C   UNL     1       4.942  -2.606  -6.297  0.00  0.00    +0.237 C 
ATOM      8  O   UNL     1       4.833  -1.404  -6.176  0.00  0.00    -0.274 OA
ATOM      9  C   UNL     1       5.160  -2.598  -8.764  0.00  0.00    +0.065 C 
ATOM     10  C   UNL     1       5.862  -3.341  -9.873  0.00  0.00    -0.034 C 
ATOM     11  C   UNL     1       6.483  -2.912 -10.964  0.00  0.00    -0.001 A 
ATOM     12  C   UNL     1       6.618  -1.569 -11.551  0.00  0.00    +0.010 A 
ATOM     13  C   UNL     1       7.357  -1.484 -12.689  0.00  0.00    +0.001 A 
ATOM     14  C   UNL     1       7.967  -2.587 -13.295  0.00  0.00    +0.002 A 
ATOM     15  C   UNL     1       7.887  -3.859 -12.830  0.00  0.00    +0.026 A 
ATOM     16  C   UNL     1       7.130  -4.077 -11.642  0.00  0.00    +0.043 A 
ATOM     17  N   UNL     1       6.872  -5.178 -11.000  0.00  0.00    -0.375 N 
ATOM     18  C   UNL     1       5.986  -4.861  -9.879  0.00  0.00    +0.131 C 
ATOM     19  C   UNL     1       6.598  -5.254  -8.531  0.00  0.00    +0.137 C 
ATOM     20  H   UNL     1       7.208  -6.059 -11.225  0.00  0.00    +0.160 HD
ENDROOT
BRANCH  19  21
ATOM     21  C   UNL     1       6.521  -6.748  -8.352  0.00  0.00    +0.017 A 
ATOM     22  C   UNL     1       5.578  -7.481  -9.047  0.00  0.00    +0.009 A 
ATOM     23  C   UNL     1       5.508  -8.851  -8.882  0.00  0.00    +0.001 A 
ATOM     24  C   UNL     1       6.380  -9.493  -8.023  0.00  0.00    +0.004 A 
ATOM     25  C   UNL     1       7.325  -8.765  -7.326  0.00  0.00    +0.046 A 
ATOM     26  C   UNL     1       7.402  -7.390  -7.493  0.00  0.00    +0.125 A 
BRANCH  26  27
ATOM     27  O   UNL     1       8.334  -6.672  -6.813  0.00  0.00    -0.495 OA
ATOM     28  C   UNL     1       9.207  -7.399  -5.947  0.00  0.00    +0.277 C 
ENDBRANCH  26  27
ENDBRANCH  19  21
BRANCH   1  29
ATOM     29  C   UNL     1       3.585  -2.733  -4.320  0.00  0.00    +0.113 C 
BRANCH  29  30
ATOM     30  C   UNL     1       2.135  -2.530  -4.763  0.00  0.00    +0.054 C 
BRANCH  30  34
ATOM     31  C   UNL     1      -0.063  -0.641  -1.622  0.00  0.00    +0.120 A 
ATOM     32  C   UNL     1       0.581   0.129  -2.580  0.00  0.00    +0.046 A 
ATOM     33  C   UNL     1       1.291  -0.484  -3.594  0.00  0.00    +0.007 A 
ATOM     34  C   UNL     1       1.360  -1.864  -3.655  0.00  0.00    -0.046 A 
ATOM     35  C   UNL     1       0.719  -2.633  -2.702  0.00  0.00    +0.007 A 
ATOM     36  C   UNL     1       0.013  -2.025  -1.682  0.00  0.00    +0.046 A 
BRANCH  31  38
ATOM     37  C   UNL     1      -0.796   1.388  -0.624  0.00  0.00    +0.277 C 
ATOM     38  O   UNL     1      -0.761  -0.040  -0.623  0.00  0.00    -0.495 OA
ENDBRANCH  31  38
ENDBRANCH  30  34
ENDBRANCH  29  30
ENDBRANCH   1  29
TORSDOF 6
