REMARK  Name = ZINC13987946
REMARK  3 active torsions:
REMARK  status: ('A' for Active; 'I' for Inactive)
REMARK    1  A    between atoms: C_4  and  C_7
REMARK    2  A    between atoms: C_9  and  C_12
REMARK    3  A    between atoms: C_12  and  N_13
REMARK                            x       y       z     vdW  Elec       q    Type
REMARK                         _______ _______ _______ _____ _____    ______ ____
ROOT
ATOM      1  N   UNL     1       3.969   0.888  -1.412  0.00  0.00    -0.215 N 
ATOM      2  C   UNL     1       4.307  -0.201  -2.134  0.00  0.00    +0.252 C 
ATOM      3  O   UNL     1       4.278  -1.359  -1.775  0.00  0.00    -0.272 OA
ATOM      4  C   UNL     1       4.725   0.328  -3.484  0.00  0.00    +0.139 C 
ATOM      5  C   UNL     1       3.842  -0.229  -4.591  0.00  0.00    +0.040 C 
ATOM      6  C   UNL     1       4.133  -1.720  -4.796  0.00  0.00    +0.008 C 
ATOM      7  C   UNL     1       5.537  -1.874  -5.398  0.00  0.00    +0.043 C 
ATOM      8  C   UNL     1       6.487  -1.027  -4.617  0.00  0.00    -0.005 A 
ATOM      9  C   UNL     1       6.179  -0.026  -3.745  0.00  0.00    -0.005 A 
ATOM     10  C   UNL     1       7.254   0.621  -3.137  0.00  0.00    +0.014 A 
ATOM     11  C   UNL     1       8.522   0.245  -3.422  0.00  0.00    +0.046 A 
ATOM     12  S   UNL     1       8.259  -1.076  -4.596  0.00  0.00    -0.101 S 
ATOM     13  N   UNL     1       4.575   1.781  -3.366  0.00  0.00    -0.281 N 
ATOM     14  C   UNL     1       4.127   2.015  -2.117  0.00  0.00    +0.310 C 
ATOM     15  O   UNL     1       3.893   3.125  -1.679  0.00  0.00    -0.252 OA
ATOM     16  H   UNL     1       4.761   2.443  -4.051  0.00  0.00    +0.152 HD
ENDROOT
BRANCH   1  17
ATOM     17  C   UNL     1       3.495   0.843  -0.026  0.00  0.00    +0.216 C 
BRANCH  17  20
ATOM     18  C   UNL     1       0.002  -0.004   0.002  0.00  0.00    +0.202 A 
ATOM     19  N   UNL     1       1.299  -0.386  -0.012  0.00  0.00    -0.190 NA
ATOM     20  C   UNL     1       1.993   0.725  -0.013  0.00  0.00    +0.246 A 
ATOM     21  O   UNL     1       1.118   1.736   0.001  0.00  0.00    -0.336 OA
ATOM     22  N   UNL     1      -0.016   1.303   0.009  0.00  0.00    -0.056 NA
BRANCH  18  26
ATOM     23  C   UNL     1      -3.385  -2.575   0.021  0.00  0.00    +0.000 A 
ATOM     24  C   UNL     1      -3.562  -1.203   0.030  0.00  0.00    +0.001 A 
ATOM     25  C   UNL     1      -2.466  -0.364   0.024  0.00  0.00    +0.012 A 
ATOM     26  C   UNL     1      -1.180  -0.901   0.009  0.00  0.00    +0.022 A 
ATOM     27  C   UNL     1      -1.009  -2.284  -0.007  0.00  0.00    +0.012 A 
ATOM     28  C   UNL     1      -2.112  -3.114   0.006  0.00  0.00    +0.001 A 
ENDBRANCH  18  26
ENDBRANCH  17  20
ENDBRANCH   1  17
TORSDOF 3
