REMARK  Name = ZINC03663787
REMARK  9 active torsions:
REMARK  status: ('A' for Active; 'I' for Inactive)
REMARK    1  A    between atoms: C_1  and  C_2
REMARK    2  A    between atoms: C_2  and  C_25
REMARK    3  A    between atoms: N_12  and  N_13
REMARK    4  A    between atoms: C_14  and  C_15
REMARK    5  A    between atoms: C_18  and  O_23
REMARK    6  A    between atoms: C_19  and  O_21
REMARK    7  A    between atoms: O_21  and  C_22
REMARK    8  A    between atoms: O_23  and  C_24
REMARK    9  A    between atoms: C_29  and  N_31
REMARK                            x       y       z     vdW  Elec       q    Type
REMARK                         _______ _______ _______ _____ _____    ______ ____
ROOT
ATOM      1  C   UNL     1      -2.314   0.657  -0.612  0.00  0.00    +0.060 C 
ATOM      2  C   UNL     1      -1.248   1.620  -0.086  0.00  0.00    +0.146 C 
ATOM      3  N   UNL     1       0.062   0.960  -0.120  0.00  0.00    -0.318 N 
ATOM      4  C   UNL     1       1.209   1.742  -0.026  0.00  0.00    +0.041 A 
ATOM      5  C   UNL     1       2.383   1.252   0.520  0.00  0.00    +0.024 A 
ATOM      6  C   UNL     1       3.501   2.061   0.577  0.00  0.00    +0.002 A 
ATOM      7  C   UNL     1       3.457   3.358   0.090  0.00  0.00    +0.001 A 
ATOM      8  C   UNL     1       2.293   3.864  -0.452  0.00  0.00    +0.015 A 
ATOM      9  C   UNL     1       1.156   3.061  -0.508  0.00  0.00    +0.059 A 
ATOM     10  C   UNL     1      -0.118   3.563  -1.052  0.00  0.00    +0.270 C 
ATOM     11  O   UNL     1      -0.161   4.638  -1.621  0.00  0.00    -0.268 OA
ATOM     12  N   UNL     1      -1.236   2.823  -0.912  0.00  0.00    -0.161 N 
ATOM     13  H   UNL     1       0.128  -0.004  -0.209  0.00  0.00    +0.148 HD
ENDROOT
BRANCH   2  14
ATOM     14  C   UNL     1      -1.579   1.999   1.334  0.00  0.00    -0.003 A 
ATOM     15  C   UNL     1      -2.367   3.106   1.588  0.00  0.00    +0.007 A 
ATOM     16  C   UNL     1      -2.671   3.454   2.891  0.00  0.00    +0.003 A 
ATOM     17  C   UNL     1      -2.189   2.693   3.940  0.00  0.00    +0.033 A 
ATOM     18  C   UNL     1      -1.402   1.586   3.686  0.00  0.00    +0.127 A 
ATOM     19  C   UNL     1      -1.101   1.236   2.382  0.00  0.00    +0.040 A 
BRANCH  18  20
ATOM     20  N   UNL     1      -0.884   0.772   4.809  0.00  0.00    +0.056 N 
ATOM     21  O   UNL     1      -1.153   1.078   5.957  0.00  0.00    -0.126 OA
ATOM     22  O   UNL     1      -0.191  -0.204   4.585  0.00  0.00    -0.126 OA
ENDBRANCH  18  20
ENDBRANCH   2  14
BRANCH  12  23
ATOM     23  N   UNL     1      -2.406   3.213  -1.575  0.00  0.00    -0.182 NA
ATOM     24  C   UNL     1      -2.457   3.189  -2.871  0.00  0.00    +0.138 C 
BRANCH  24  25
ATOM     25  C   UNL     1      -3.646   3.705  -3.572  0.00  0.00    -0.002 A 
ATOM     26  C   UNL     1      -4.720   4.222  -2.843  0.00  0.00    +0.013 A 
ATOM     27  C   UNL     1      -5.832   4.706  -3.501  0.00  0.00    +0.050 A 
ATOM     28  C   UNL     1      -5.887   4.680  -4.887  0.00  0.00    +0.162 A 
ATOM     29  C   UNL     1      -4.820   4.166  -5.621  0.00  0.00    +0.162 A 
ATOM     30  C   UNL     1      -3.700   3.685  -4.969  0.00  0.00    +0.059 A 
BRANCH  29  31
ATOM     31  O   UNL     1      -4.879   4.142  -6.979  0.00  0.00    -0.491 OA
ATOM     32  C   UNL     1      -3.749   3.602  -7.668  0.00  0.00    +0.277 C 
ENDBRANCH  29  31
BRANCH  28  33
ATOM     33  O   UNL     1      -6.985   5.158  -5.530  0.00  0.00    -0.491 OA
ATOM     34  C   UNL     1      -8.042   5.670  -4.716  0.00  0.00    +0.277 C 
ENDBRANCH  28  33
ENDBRANCH  24  25
ENDBRANCH  12  23
TORSDOF 6
