REMARK  Name = ZINC08789597
REMARK  13 active torsions:
REMARK  status: ('A' for Active; 'I' for Inactive)
REMARK    1  A    between atoms: C_1  and  C_2
REMARK    2  A    between atoms: C_2  and  C_3
REMARK    3  A    between atoms: C_2  and  C_4
REMARK    4  A    between atoms: C_4  and  C_5
REMARK    5  A    between atoms: C_5  and  C_7
REMARK    6  A    between atoms: C_5  and  N_18
REMARK    7  A    between atoms: N_9  and  CA_10
REMARK    8  A    between atoms: CA_10  and  CB_12
REMARK    9  A    between atoms: CA_10  and  C_16
REMARK   10  A    between atoms: CB_12  and  CG_13
REMARK   11  A    between atoms: CG_13  and  SD_14
REMARK   12  A    between atoms: SD_14  and  CE_15
REMARK   13  A    between atoms: C_21  and  C_37
REMARK                            x       y       z     vdW  Elec       q    Type
REMARK                         _______ _______ _______ _____ _____    ______ ____
ROOT
ATOM      1  N   UNK A   0       0.231   1.558  -0.038  0.00  0.00    -0.212 N 
ATOM      2  C   UNK A   0      -0.781   2.432   0.157  0.00  0.00    +0.253 C 
ATOM      3  O   UNK A   0      -1.954   2.172   0.318  0.00  0.00    -0.272 OA
ATOM      4  C   UNK A   0      -0.142   3.800   0.134  0.00  0.00    +0.153 C 
ATOM      5  C   UNK A   0      -0.761   4.681  -0.924  0.00  0.00    +0.053 A 
ATOM      6  C   UNK A   0      -0.039   5.279  -1.899  0.00  0.00    -0.015 A 
ATOM      7  C   UNK A   0      -0.979   6.045  -2.699  0.00  0.00    +0.003 A 
ATOM      8  C   UNK A   0      -0.814   6.862  -3.821  0.00  0.00    +0.010 A 
ATOM      9  C   UNK A   0      -1.946   7.445  -4.335  0.00  0.00    +0.001 A 
ATOM     10  C   UNK A   0      -3.197   7.241  -3.776  0.00  0.00    +0.002 A 
ATOM     11  C   UNK A   0      -3.388   6.437  -2.665  0.00  0.00    +0.026 A 
ATOM     12  C   UNK A   0      -2.256   5.833  -2.122  0.00  0.00    +0.047 A 
ATOM     13  N   UNK A   0      -2.086   5.000  -1.054  0.00  0.00    -0.356 N 
ATOM     14  H   UNK A   0      -2.796   4.682  -0.476  0.00  0.00    +0.166 HD
ATOM     15  C   UNK A   0       1.447   5.151  -2.116  0.00  0.00    +0.056 C 
ATOM     16  C   UNK A   0       2.118   4.551  -0.871  0.00  0.00    +0.115 C 
ATOM     17  N   UNK A   0       1.230   3.511  -0.345  0.00  0.00    -0.266 N 
ATOM     18  C   UNK A   0       1.393   2.190  -0.268  0.00  0.00    +0.313 C 
ATOM     19  O   UNK A   0       2.463   1.627  -0.391  0.00  0.00    -0.252 OA
ATOM     20  C   UNK A   0      -0.144   4.460   1.514  0.00  0.00    +0.048 C 
ENDROOT
BRANCH   1  21
ATOM     21  C   UNK A   0       0.079   0.101  -0.008  0.00  0.00    +0.171 C 
BRANCH  21  22
ATOM     22  C   UNK A   0       0.856  -0.462   1.153  0.00  0.00    +0.235 C 
ATOM     23  O   UNK A   0       1.476   0.281   1.885  0.00  0.00    -0.274 OA
ATOM     24  N   MET A   1       0.862  -1.790   1.380  0.00  0.00    -0.301 N 
ATOM     25  H   MET A   1       0.365  -2.384   0.795  0.00  0.00    +0.150 HD
BRANCH  24  26
ATOM     26  CA  MET A   1       1.617  -2.338   2.509  0.00  0.00    +0.187 C 
BRANCH  26  27
ATOM     27  C   MET A   1       0.773  -2.275   3.756  0.00  0.00    +0.376 C 
ATOM     28  O   MET A   1      -0.345  -1.819   3.707  0.00  0.00    -0.244 OA
ATOM     29  OXT MET A   1       1.264  -2.725   4.922  0.00  0.00    -0.244 OA
ENDBRANCH  26  27
BRANCH  26  30
ATOM     30  CB  MET A   1       1.988  -3.793   2.217  0.00  0.00    +0.044 C 
BRANCH  30  31
ATOM     31  CG  MET A   1       2.946  -3.846   1.026  0.00  0.00    +0.071 C 
BRANCH  31  32
ATOM     32  SD  MET A   1       3.386  -5.572   0.679  0.00  0.00    -0.164 S 
ATOM     33  CE  MET A   1       4.510  -5.462  -0.740  0.00  0.00    +0.084 C 
ENDBRANCH  31  32
ENDBRANCH  30  31
ENDBRANCH  26  30
ENDBRANCH  24  26
ENDBRANCH  21  22
BRANCH  21  34
ATOM     34  C   UNK A   0       0.610  -0.494  -1.314  0.00  0.00    +0.035 C 
BRANCH  34  36
ATOM     35  C   UNK A   0       0.366  -0.488  -3.800  0.00  0.00    +0.007 C 
ATOM     36  C   UNK A   0      -0.238   0.006  -2.485  0.00  0.00    -0.015 C 
ATOM     37  C   UNK A   0      -1.665  -0.528  -2.346  0.00  0.00    +0.007 C 
ENDBRANCH  34  36
ENDBRANCH  21  34
ENDBRANCH   1  21
TORSDOF 9
