REMARK  Name = ZINC25383619
REMARK  8 active torsions:
REMARK  status: ('A' for Active; 'I' for Inactive)
REMARK    1  A    between atoms: C_3  and  C_6
REMARK    2  A    between atoms: C_6  and  C_8
REMARK    3  A    between atoms: C_6  and  N_26
REMARK    4  A    between atoms: C_8  and  N_9
REMARK    5  A    between atoms: C_10  and  C_12
REMARK    6  A    between atoms: C_14  and  S_19
REMARK    7  A    between atoms: S_19  and  N_22
REMARK    8  A    between atoms: N_22  and  C_23
REMARK                            x       y       z     vdW  Elec       q    Type
REMARK                         _______ _______ _______ _____ _____    ______ ____
ROOT
ATOM      1  N   UNL     1       3.857  -3.322   1.078  0.00  0.00    -0.313 N 
ATOM      2  C   UNL     1       4.401  -3.986   2.116  0.00  0.00    +0.245 C 
ATOM      3  O   UNL     1       4.148  -3.646   3.255  0.00  0.00    -0.270 OA
ATOM      4  H   UNL     1       4.086  -3.630   0.047  0.00  0.00    +0.149 HD
ENDROOT
BRANCH   2   5
ATOM      5  C   UNL     1       5.306  -5.129   1.870  0.00  0.00    +0.052 A 
ATOM      6  C   UNL     1       5.594  -5.527   0.563  0.00  0.00    +0.042 A 
ATOM      7  C   UNL     1       6.442  -6.591   0.340  0.00  0.00    +0.106 A 
ATOM      8  C   UNL     1       7.000  -7.271   1.409  0.00  0.00    +0.029 A 
ATOM      9  C   UNL     1       6.715  -6.887   2.706  0.00  0.00    +0.018 A 
ATOM     10  C   UNL     1       5.871  -5.820   2.944  0.00  0.00    +0.030 A 
ATOM     11 BR   UNL     1       5.483  -5.295   4.719  0.00  0.00    -0.050 Br
BRANCH   7  12
ATOM     12  S   UNL     1       6.812  -7.090  -1.309  0.00  0.00    +0.059 S 
ATOM     13  O   UNL     1       6.599  -5.952  -2.134  0.00  0.00    -0.153 OA
ATOM     14  O   UNL     1       8.057  -7.771  -1.257  0.00  0.00    -0.153 OA
BRANCH  12  15
ATOM     15  N   UNL     1       5.676  -8.212  -1.747  0.00  0.00    -0.187 NA
ATOM     16  H   UNL     1       5.957  -9.274  -1.787  0.00  0.00    +0.148 HD
BRANCH  15  17
ATOM     17  C   UNL     1       4.268  -7.822  -1.865  0.00  0.00    +0.077 C 
ATOM     18  C   UNL     1       3.213  -8.864  -1.491  0.00  0.00    +0.022 C 
ATOM     19  C   UNL     1       3.438  -8.495  -2.959  0.00  0.00    +0.022 C 
ENDBRANCH  15  17
ENDBRANCH  12  15
ENDBRANCH   7  12
ENDBRANCH   2   5
BRANCH   1  20
ATOM     20  C   UNL     1       2.961  -2.189   1.322  0.00  0.00    +0.094 C 
BRANCH  20  21
ATOM     21  C   UNL     1       2.366  -1.714  -0.006  0.00  0.00    -0.013 C 
BRANCH  21  22
ATOM     22  N   UNL     1       1.542  -2.784  -0.584  0.00  0.00    +0.386 N 
ATOM     23  C   UNL     1       0.731  -2.277  -1.720  0.00  0.00    -0.078 C 
ATOM     24  C   UNL     1       0.371  -3.565  -2.502  0.00  0.00    -0.020 C 
ATOM     25  C   UNL     1       1.657  -4.414  -2.380  0.00  0.00    -0.020 C 
ATOM     26  C   UNL     1       2.388  -3.862  -1.142  0.00  0.00    -0.078 C 
ATOM     27  H   UNL     1       0.910  -3.152   0.238  0.00  0.00    -0.081 HD
ENDBRANCH  21  22
BRANCH  21  30
ATOM     28  C   UNL     1       0.834   1.763   0.261  0.00  0.00    +0.008 A 
ATOM     29  C   UNL     1       1.777   0.802  -0.052  0.00  0.00    +0.009 A 
ATOM     30  C   UNL     1       1.512  -0.496   0.234  0.00  0.00    -0.022 A 
ATOM     31  S   UNL     1      -0.112  -0.388   0.968  0.00  0.00    -0.103 S 
ATOM     32  C   UNL     1      -0.327   1.380   0.845  0.00  0.00    +0.045 A 
ENDBRANCH  21  30
ENDBRANCH  20  21
ENDBRANCH   1  20
TORSDOF 8
