REMARK  Name = ZINC31973842
REMARK  6 active torsions:
REMARK  status: ('A' for Active; 'I' for Inactive)
REMARK    1  A    between atoms: C_1  and  C_2
REMARK    2  A    between atoms: C_5  and  C_9
REMARK    3  A    between atoms: C_7  and  C_8
REMARK    4  A    between atoms: C_10  and  C_22
REMARK    5  A    between atoms: C_12  and  C_17
REMARK    6  A    between atoms: C_22  and  N_23
REMARK                            x       y       z     vdW  Elec       q    Type
REMARK                         _______ _______ _______ _____ _____    ______ ____
ROOT
ATOM      1  C   UNL     1      -0.978  -1.257   0.675  0.00  0.00    +0.092 A 
ATOM      2  C   UNL     1      -2.144  -0.813   1.204  0.00  0.00    +0.035 A 
ATOM      3  N   UNL     1      -3.170  -1.577   0.658  0.00  0.00    -0.289 N 
ATOM      4  C   UNL     1      -4.550  -1.661   0.749  0.00  0.00    +0.097 A 
ATOM      5  C   UNL     1      -5.222  -2.585   0.031  0.00  0.00    +0.078 A 
ATOM      6  S   UNL     1      -3.899  -3.411  -0.839  0.00  0.00    -0.057 S 
ATOM      7  C   UNL     1      -2.547  -2.463  -0.180  0.00  0.00    +0.179 A 
ATOM      8  N   UNL     1      -1.260  -2.272  -0.168  0.00  0.00    -0.221 NA
ENDROOT
BRANCH   1  13
ATOM      9  C   UNL     1       4.268   0.813   1.839  0.00  0.00    +0.044 C 
ATOM     10  C   UNL     1       2.895   0.272   1.534  0.00  0.00    -0.047 A 
ATOM     11  C   UNL     1       1.836   1.143   1.349  0.00  0.00    +0.004 A 
ATOM     12  C   UNL     1       0.577   0.652   1.070  0.00  0.00    +0.010 A 
ATOM     13  C   UNL     1       0.373  -0.724   0.975  0.00  0.00    +0.002 A 
ATOM     14  C   UNL     1       1.443  -1.596   1.163  0.00  0.00    +0.013 A 
ATOM     15  C   UNL     1       2.699  -1.094   1.442  0.00  0.00    -0.047 A 
ATOM     16  C   UNL     1       3.857  -2.036   1.646  0.00  0.00    +0.044 C 
ENDBRANCH   1  13
BRANCH   4  17
ATOM     17  C   UNL     1      -5.285  -0.739   1.631  0.00  0.00    +0.152 A 
ATOM     18  C   UNL     1      -6.529  -0.947   2.147  0.00  0.00    +0.051 A 
ATOM     19  C   UNL     1      -6.838   0.185   2.929  0.00  0.00    +0.042 A 
ATOM     20  C   UNL     1      -5.783   1.018   2.853  0.00  0.00    +0.196 A 
ATOM     21  O   UNL     1      -4.843   0.455   2.073  0.00  0.00    -0.461 OA
ENDBRANCH   4  17
BRANCH   2  22
ATOM     22  C   UNL     1      -2.301   0.307   2.200  0.00  0.00    -0.029 C 
BRANCH  22  23
ATOM     23  N   UNL     1      -2.653   1.545   1.492  0.00  0.00    +0.382 N 
ATOM     24  H   UNL     1      -2.767   2.363   2.220  0.00  0.00    -0.090 HD
ATOM     25  H   UNL     1      -3.599   1.402   0.951  0.00  0.00    -0.090 HD
ATOM     26  H   UNL     1      -1.856   1.799   0.778  0.00  0.00    -0.090 HD
ENDBRANCH  22  23
ENDBRANCH   2  22
TORSDOF 4
