REMARK  Name = ZINC33856788
REMARK  8 active torsions:
REMARK  status: ('A' for Active; 'I' for Inactive)
REMARK    1  A    between atoms: C_1  and  C_2
REMARK    2  A    between atoms: C_2  and  N_3
REMARK    3  A    between atoms: N_6  and  C_9
REMARK    4  A    between atoms: C_10  and  C_21
REMARK    5  A    between atoms: C_15  and  C_20
REMARK    6  A    between atoms: N_25  and  C_29
REMARK    7  A    between atoms: C_29  and  C_30
REMARK    8  A    between atoms: C_33  and  C_36
REMARK                            x       y       z     vdW  Elec       q    Type
REMARK                         _______ _______ _______ _____ _____    ______ ____
ROOT
ATOM      1  C   UNL     1      -4.344  -2.859  -1.685  0.00  0.00    +0.136 A 
ATOM      2  C   UNL     1      -4.311  -4.250  -1.431  0.00  0.00    +0.081 A 
ATOM      3  C   UNL     1      -5.127  -5.097  -2.218  0.00  0.00    +0.267 A 
ATOM      4  O   UNL     1      -5.130  -6.302  -2.033  0.00  0.00    -0.267 OA
ATOM      5  N   UNL     1      -5.903  -4.548  -3.176  0.00  0.00    -0.267 N 
ATOM      6  C   UNL     1      -6.693  -5.356  -3.939  0.00  0.00    +0.099 A 
ATOM      7  C   UNL     1      -7.482  -4.838  -4.908  0.00  0.00    -0.034 A 
ATOM      8  C   UNL     1      -7.496  -3.456  -5.139  0.00  0.00    +0.008 A 
ATOM      9  C   UNL     1      -6.710  -2.639  -4.381  0.00  0.00    +0.047 A 
ATOM     10  C   UNL     1      -5.896  -3.195  -3.378  0.00  0.00    +0.142 A 
ATOM     11  N   UNL     1      -5.134  -2.388  -2.639  0.00  0.00    -0.214 NA
ATOM     12  C   UNL     1      -8.347  -5.749  -5.740  0.00  0.00    +0.045 C 
ENDROOT
BRANCH   2  13
ATOM     13  C   UNL     1      -3.481  -4.781  -0.415  0.00  0.00    +0.037 C 
ATOM     14  C   UNL     1      -2.436  -5.595  -0.744  0.00  0.00    +0.077 C 
ATOM     15  C   UNL     1      -1.927  -5.942  -2.028  0.00  0.00    +0.259 C 
ATOM     16  O   UNL     1      -2.432  -5.495  -3.043  0.00  0.00    -0.269 OA
ATOM     17  N   UNL     1      -0.891  -6.760  -2.087  0.00  0.00    -0.251 N 
ATOM     18  C   UNL     1      -0.331  -7.255  -0.961  0.00  0.00    +0.121 C 
ATOM     19  S   UNL     1       1.001  -8.319  -0.802  0.00  0.00    -0.027 S 
ATOM     20  S   UNL     1      -1.329  -6.511   0.320  0.00  0.00    -0.061 S 
BRANCH  17  21
ATOM     21  C   UNL     1      -0.343  -7.138  -3.392  0.00  0.00    +0.150 C 
BRANCH  21  22
ATOM     22  C   UNL     1       0.728  -6.154  -3.791  0.00  0.00    -0.030 A 
ATOM     23  C   UNL     1       0.394  -5.023  -4.511  0.00  0.00    +0.005 A 
ATOM     24  C   UNL     1       1.375  -4.121  -4.876  0.00  0.00    +0.003 A 
ATOM     25  C   UNL     1       2.691  -4.350  -4.520  0.00  0.00    -0.050 A 
ATOM     26  C   UNL     1       3.026  -5.481  -3.800  0.00  0.00    +0.003 A 
ATOM     27  C   UNL     1       2.043  -6.381  -3.431  0.00  0.00    +0.005 A 
ATOM     28  C   UNL     1       3.762  -3.367  -4.919  0.00  0.00    +0.044 C 
ENDBRANCH  21  22
ENDBRANCH  17  21
ENDBRANCH   2  13
BRANCH   1  32
ATOM     29  N   UNL     1      -1.751   0.036  -0.327  0.00  0.00    +0.382 N 
ATOM     30  C   UNL     1      -3.061   0.386  -0.892  0.00  0.00    -0.060 C 
ATOM     31  C   UNL     1      -4.083  -0.690  -0.512  0.00  0.00    +0.088 C 
ATOM     32  N   UNL     1      -3.566  -1.998  -0.942  0.00  0.00    -0.318 N 
ATOM     33  C   UNL     1      -2.194  -2.362  -0.556  0.00  0.00    +0.088 C 
ATOM     34  C   UNL     1      -1.260  -1.208  -0.934  0.00  0.00    -0.060 C 
ATOM     35  H   UNL     1      -1.841  -0.090   0.670  0.00  0.00    -0.082 HD
BRANCH  29  37
ATOM     36  C   UNL     1      -1.243   2.387   0.137  0.00  0.00    -0.017 C 
ATOM     37  C   UNL     1      -0.798   1.121  -0.599  0.00  0.00    -0.082 C 
ENDBRANCH  29  37
ENDBRANCH   1  32
TORSDOF 5
