REMARK  Name = ZINC12151763
REMARK  10 active torsions:
REMARK  status: ('A' for Active; 'I' for Inactive)
REMARK    1  A    between atoms: C_1  and  C_2
REMARK    2  A    between atoms: C_2  and  C_4
REMARK    3  A    between atoms: C_2  and  N_62
REMARK    4  A    between atoms: C_9  and  N_62
REMARK    5  A    between atoms: C_10  and  C_11
REMARK    6  A    between atoms: C_10  and  N_62
REMARK    7  A    between atoms: C_14  and  C_19
REMARK    8  A    between atoms: N_21  and  C_22
REMARK    9  A    between atoms: C_22  and  C_23
REMARK   10  A    between atoms: N_32  and  C_33
REMARK                            x       y       z     vdW  Elec       q    Type
REMARK                         _______ _______ _______ _____ _____    ______ ____
ROOT
ATOM      1  C   UNL     1      -0.081   4.285   0.112  0.00  0.00    +0.003 A 
ATOM      2  C   UNL     1      -1.132   3.427   0.167  0.00  0.00    +0.020 A 
ATOM      3  C   UNL     1      -0.910   2.051   0.227  0.00  0.00    +0.020 A 
ATOM      4  C   UNL     1       0.401   1.579   0.239  0.00  0.00    +0.101 A 
ATOM      5  C   UNL     1       1.466   2.516   0.180  0.00  0.00    +0.261 A 
ATOM      6  O   UNL     1       2.622   2.128   0.185  0.00  0.00    -0.267 OA
ATOM      7  N   UNL     1       1.196   3.833   0.119  0.00  0.00    -0.327 N 
ATOM      8  H   UNL     1       1.927   4.469   0.078  0.00  0.00    +0.169 HD
ENDROOT
BRANCH   4   9
ATOM      9  C   UNL     1       0.676   0.136   0.306  0.00  0.00    +0.250 C 
ATOM     10  O   UNL     1      -0.238  -0.651   0.459  0.00  0.00    -0.270 OA
ATOM     11  N   UNL     1       1.942  -0.314   0.199  0.00  0.00    -0.307 N 
ATOM     12  H   UNL     1       2.678   0.316   0.150  0.00  0.00    +0.149 HD
BRANCH  11  13
ATOM     13  C   UNL     1       2.206  -1.754   0.156  0.00  0.00    +0.139 C 
BRANCH  13  14
ATOM     14  C   UNL     1       3.689  -1.990   0.034  0.00  0.00    -0.030 A 
ATOM     15  C   UNL     1       4.276  -2.086  -1.215  0.00  0.00    +0.007 A 
ATOM     16  C   UNL     1       5.633  -2.299  -1.323  0.00  0.00    +0.024 A 
ATOM     17  C   UNL     1       6.421  -2.432  -0.179  0.00  0.00    +0.033 A 
ATOM     18  C   UNL     1       5.830  -2.334   1.069  0.00  0.00    -0.026 A 
ATOM     19  C   UNL     1       4.465  -2.117   1.170  0.00  0.00    +0.010 A 
ATOM     20  C   UNL     1       6.628  -2.451   2.343  0.00  0.00    +0.038 C 
ATOM     21  C   UNL     1       7.996  -3.064   2.039  0.00  0.00    +0.024 C 
ATOM     22  C   UNL     1       8.583  -2.333   0.825  0.00  0.00    +0.105 C 
ATOM     23  N   UNL     1       7.784  -2.668  -0.355  0.00  0.00    -0.333 N 
ATOM     24  C   UNL     1       8.289  -1.974  -1.547  0.00  0.00    +0.129 C 
ENDBRANCH  13  14
ENDBRANCH  11  13
ENDBRANCH   4   9
BRANCH   1  25
ATOM     25  C   UNL     1      -0.340   5.768   0.042  0.00  0.00    -0.024 C 
BRANCH  25  27
ATOM     26  C   UNL     1      -0.712   5.800  -2.350  0.00  0.00    -0.095 C 
ATOM     27  N   UNL     1       0.156   6.277  -1.253  0.00  0.00    +0.388 N 
ATOM     28  H   UNL     1       1.109   5.928  -1.406  0.00  0.00    -0.081 HD
BRANCH  27  30
ATOM     29  C   UNL     1       1.145   8.222  -0.143  0.00  0.00    -0.005 C 
ATOM     30  C   UNL     1       0.184   7.755  -1.238  0.00  0.00    -0.004 C 
BRANCH  30  31
ATOM     31  C   UNL     1       0.669   8.250  -2.576  0.00  0.00    +0.091 A 
ATOM     32  C   UNL     1       0.194   9.320  -3.239  0.00  0.00    +0.043 A 
ATOM     33  C   UNL     1       0.933   9.419  -4.440  0.00  0.00    +0.041 A 
ATOM     34  C   UNL     1       1.809   8.398  -4.444  0.00  0.00    +0.195 A 
ATOM     35  O   UNL     1       1.645   7.694  -3.312  0.00  0.00    -0.469 OA
ENDBRANCH  30  31
ENDBRANCH  27  30
ENDBRANCH  25  27
ENDBRANCH   1  25
TORSDOF 7
