REMARK  Name = ZINC01126950
REMARK  9 active torsions:
REMARK  status: ('A' for Active; 'I' for Inactive)
REMARK    1  A    between atoms: C_1  and  C_2
REMARK    2  A    between atoms: C_3  and  C_19
REMARK    3  A    between atoms: C_4  and  C_10
REMARK    4  A    between atoms: C_15  and  O_16
REMARK    5  A    between atoms: O_16  and  C_17
REMARK    6  A    between atoms: N_21  and  C_22
REMARK    7  A    between atoms: C_27  and  C_28
REMARK    8  A    between atoms: C_28  and  O_30
REMARK    9  A    between atoms: O_30  and  C_31
REMARK                            x       y       z     vdW  Elec       q    Type
REMARK                         _______ _______ _______ _____ _____    ______ ____
ROOT
ATOM      1  C   UNL     1      -2.320   0.169   0.896  0.00  0.00    +0.061 C 
ATOM      2  C   UNL     1      -2.462   1.646   0.636  0.00  0.00    +0.019 C 
ATOM      3  C   UNL     1      -1.360   2.384   0.385  0.00  0.00    +0.056 C 
ATOM      4  C   UNL     1      -1.547   3.867   0.135  0.00  0.00    +0.145 C 
ATOM      5  N   UNL     1      -2.926   4.383   0.175  0.00  0.00    -0.288 N 
ATOM      6  C   UNL     1      -3.926   3.519   0.441  0.00  0.00    +0.304 C 
ATOM      7  O   UNL     1      -5.067   3.935   0.482  0.00  0.00    -0.252 OA
ATOM      8  N   UNL     1      -3.703   2.217   0.660  0.00  0.00    -0.273 N 
ATOM      9  H   UNL     1      -3.110   5.322   0.019  0.00  0.00    +0.151 HD
ATOM     10  H   UNL     1      -4.466   1.647   0.846  0.00  0.00    +0.156 HD
ENDROOT
BRANCH   4  11
ATOM     11  C   UNL     1      -0.735   4.617   1.159  0.00  0.00    +0.020 A 
ATOM     12  C   UNL     1      -1.307   4.980   2.363  0.00  0.00    +0.024 A 
ATOM     13  C   UNL     1      -0.562   5.669   3.304  0.00  0.00    +0.018 A 
ATOM     14  C   UNL     1       0.757   5.994   3.042  0.00  0.00    +0.019 A 
ATOM     15  C   UNL     1       1.333   5.632   1.839  0.00  0.00    +0.047 A 
ATOM     16  C   UNL     1       0.589   4.936   0.897  0.00  0.00    +0.125 A 
ATOM     17 BR   UNL     1      -1.347   6.166   4.951  0.00  0.00    -0.050 Br
BRANCH  16  18
ATOM     18  O   UNL     1       1.155   4.575  -0.284  0.00  0.00    -0.495 OA
ATOM     19  C   UNL     1       2.550   4.841  -0.444  0.00  0.00    +0.277 C 
ENDBRANCH  16  18
ENDBRANCH   4  11
BRANCH   3  20
ATOM     20  C   UNL     1      -0.073   1.794   0.360  0.00  0.00    +0.248 C 
ATOM     21  O   UNL     1       0.521   1.673  -0.696  0.00  0.00    -0.270 OA
ATOM     22  N   UNL     1       0.496   1.371   1.506  0.00  0.00    -0.281 N 
ATOM     23  H   UNL     1       0.061   1.543   2.356  0.00  0.00    +0.155 HD
BRANCH  22  24
ATOM     24  C   UNL     1       1.707   0.687   1.470  0.00  0.00    +0.048 A 
ATOM     25  C   UNL     1       2.078  -0.016   0.332  0.00  0.00    +0.024 A 
ATOM     26  C   UNL     1       3.282  -0.690   0.297  0.00  0.00    +0.002 A 
ATOM     27  C   UNL     1       4.125  -0.679   1.397  0.00  0.00    +0.001 A 
ATOM     28  C   UNL     1       3.771   0.008   2.538  0.00  0.00    +0.017 A 
ATOM     29  C   UNL     1       2.558   0.700   2.587  0.00  0.00    +0.080 A 
BRANCH  29  30
ATOM     30  C   UNL     1       2.173   1.437   3.803  0.00  0.00    +0.341 C 
ATOM     31  O   UNL     1       1.166   2.116   3.809  0.00  0.00    -0.245 OA
BRANCH  30  32
ATOM     32  O   UNL     1       2.939   1.358   4.910  0.00  0.00    -0.464 OA
ATOM     33  C   UNL     1       2.442   2.018   6.104  0.00  0.00    +0.280 C 
ENDBRANCH  30  32
ENDBRANCH  29  30
ENDBRANCH  22  24
ENDBRANCH   3  20
TORSDOF 6
