REMARK  Name = ZINC20114632
REMARK  13 active torsions:
REMARK  status: ('A' for Active; 'I' for Inactive)
REMARK    1  A    between atoms: C_1  and  C_2
REMARK    2  A    between atoms: C_5  and  O_8
REMARK    3  A    between atoms: O_8  and  C_9
REMARK    4  A    between atoms: C_9  and  C_10
REMARK    5  A    between atoms: C_10  and  O_11
REMARK    6  A    between atoms: O_11  and  C_12
REMARK    7  A    between atoms: C_13  and  O_34
REMARK    8  A    between atoms: C_15  and  C_20
REMARK    9  A    between atoms: C_17  and  O_18
REMARK   10  A    between atoms: O_18  and  C_19
REMARK   11  A    between atoms: C_31  and  S_32
REMARK   12  A    between atoms: S_32  and  C_33
REMARK   13  A    between atoms: O_34  and  C_35
REMARK                            x       y       z     vdW  Elec       q    Type
REMARK                         _______ _______ _______ _____ _____    ______ ____
ROOT
ATOM      1  C   UNL     1       1.034  -8.287   0.829  0.00  0.00    +0.204 A 
ATOM      2  C   UNL     1       1.571  -9.246   1.686  0.00  0.00    +0.166 A 
ATOM      3  C   UNL     1       1.900 -10.498   1.204  0.00  0.00    +0.057 A 
ATOM      4  C   UNL     1       1.694 -10.803  -0.148  0.00  0.00    -0.017 A 
ATOM      5  C   UNL     1       1.154  -9.835  -1.006  0.00  0.00    +0.057 A 
ATOM      6  C   UNL     1       0.822  -8.588  -0.515  0.00  0.00    +0.166 A 
ENDROOT
BRANCH   4   7
ATOM      7  C   UNL     1       2.042 -12.129  -0.663  0.00  0.00    +0.024 C 
ATOM      8  C   UNL     1       3.159 -12.780  -0.190  0.00  0.00    +0.079 C 
ATOM      9  C   UNL     1       3.455 -14.198  -0.546  0.00  0.00    +0.137 C 
ATOM     10  N   UNL     1       3.135 -14.733  -1.693  0.00  0.00    -0.284 NA
ATOM     11  N   UNL     1       4.114 -14.901   0.482  0.00  0.00    -0.211 N 
ATOM     12  C   UNL     1       4.829 -14.180   1.418  0.00  0.00    +0.183 C 
ATOM     13  N   UNL     1       4.885 -12.871   1.521  0.00  0.00    -0.152 NA
ATOM     14  C   UNL     1       4.141 -12.107   0.697  0.00  0.00    +0.273 C 
ATOM     15  O   UNL     1       4.266 -10.893   0.683  0.00  0.00    -0.268 OA
ATOM     16  S   UNL     1       5.548 -15.363   2.347  0.00  0.00    +0.048 S 
ATOM     17  N   UNL     1       4.873 -16.721   1.635  0.00  0.00    -0.185 NA
ATOM     18  C   UNL     1       4.141 -16.246   0.665  0.00  0.00    +0.175 C 
ATOM     19  H   UNL     1       2.681 -14.202  -2.366  0.00  0.00    +0.188 HD
BRANCH  18  20
ATOM     20  S   UNL     1       3.213 -17.320  -0.379  0.00  0.00    -0.093 S 
ATOM     21  C   UNL     1       3.578 -18.977   0.262  0.00  0.00    +0.093 C 
ENDBRANCH  18  20
ENDBRANCH   4   7
BRANCH   6  22
ATOM     22  O   UNL     1       0.293  -7.650  -1.346  0.00  0.00    -0.491 OA
ATOM     23  C   UNL     1       0.103  -8.025  -2.712  0.00  0.00    +0.277 C 
ENDBRANCH   6  22
BRANCH   2  24
ATOM     24  O   UNL     1       1.771  -8.949   2.998  0.00  0.00    -0.491 OA
ATOM     25  C   UNL     1       2.325  -9.979   3.819  0.00  0.00    +0.277 C 
ENDBRANCH   2  24
BRANCH   1  26
ATOM     26  O   UNL     1       0.711  -7.057   1.307  0.00  0.00    -0.482 OA
BRANCH  26  27
ATOM     27  C   UNL     1      -0.615  -6.885   1.812  0.00  0.00    +0.270 C 
BRANCH  27  28
ATOM     28  C   UNL     1      -0.791  -5.446   2.302  0.00  0.00    +0.270 C 
BRANCH  28  29
ATOM     29  O   UNL     1      -0.690  -4.550   1.194  0.00  0.00    -0.489 OA
BRANCH  29  34
ATOM     30  C   UNL     1      -1.251   0.946   2.290  0.00  0.00    +0.044 C 
ATOM     31  C   UNL     1      -1.100  -0.524   1.997  0.00  0.00    -0.050 A 
ATOM     32  C   UNL     1      -0.875  -0.950   0.701  0.00  0.00    +0.007 A 
ATOM     33  C   UNL     1      -0.738  -2.298   0.429  0.00  0.00    +0.046 A 
ATOM     34  C   UNL     1      -0.825  -3.224   1.458  0.00  0.00    +0.121 A 
ATOM     35  C   UNL     1      -1.050  -2.794   2.758  0.00  0.00    +0.046 A 
ATOM     36  C   UNL     1      -1.182  -1.445   3.025  0.00  0.00    +0.007 A 
ENDBRANCH  29  34
ENDBRANCH  28  29
ENDBRANCH  27  28
ENDBRANCH  26  27
ENDBRANCH   1  26
TORSDOF 9
