REMARK  Name = ZINC06409006
REMARK  9 active torsions:
REMARK  status: ('A' for Active; 'I' for Inactive)
REMARK    1  A    between atoms: C_1  and  C_2
REMARK    2  A    between atoms: C_9  and  C_14
REMARK    3  A    between atoms: C_14  and  C_16
REMARK    4  A    between atoms: C_14  and  N_67
REMARK    5  A    between atoms: N_20  and  C_21
REMARK    6  A    between atoms: C_26  and  C_27
REMARK    7  A    between atoms: C_26  and  N_67
REMARK    8  A    between atoms: C_34  and  C_35
REMARK    9  A    between atoms: C_34  and  N_67
REMARK                            x       y       z     vdW  Elec       q    Type
REMARK                         _______ _______ _______ _____ _____    ______ ____
ROOT
ATOM      1  C   UNL     1      -0.133   1.615  -0.557  0.00  0.00    +0.040 C 
ENDROOT
BRANCH   1  10
ATOM      2  C   UNL     1      -0.141   5.851  -6.695  0.00  0.00    +0.044 C 
ATOM      3  C   UNL     1      -0.864   4.994  -5.689  0.00  0.00    -0.050 A 
ATOM      4  C   UNL     1      -2.229   4.779  -5.823  0.00  0.00    +0.005 A 
ATOM      5  C   UNL     1      -2.911   3.998  -4.915  0.00  0.00    +0.026 A 
ATOM      6  C   UNL     1      -2.227   3.418  -3.852  0.00  0.00    +0.049 A 
ATOM      7  C   UNL     1      -0.843   3.638  -3.719  0.00  0.00    -0.001 A 
ATOM      8  C   UNL     1      -0.171   4.434  -4.653  0.00  0.00    +0.013 A 
ATOM      9  C   UNL     1      -0.132   3.028  -2.594  0.00  0.00    +0.017 A 
ATOM     10  C   UNL     1      -0.834   2.262  -1.723  0.00  0.00    +0.011 A 
ATOM     11  C   UNL     1      -2.221   2.072  -1.902  0.00  0.00    +0.251 A 
ATOM     12  O   UNL     1      -2.835   1.383  -1.105  0.00  0.00    -0.268 OA
ATOM     13  N   UNL     1      -2.884   2.633  -2.929  0.00  0.00    -0.322 N 
ATOM     14  H   UNL     1      -3.837   2.482  -3.022  0.00  0.00    +0.169 HD
ENDBRANCH   1  10
BRANCH   1  15
ATOM     15  C   UNL     1      -0.183   0.117  -0.708  0.00  0.00    +0.143 A 
ATOM     16  N   UNL     1      -1.093  -0.689  -0.216  0.00  0.00    -0.115 NA
ATOM     17  N   UNL     1      -0.788  -1.892  -0.562  0.00  0.00    -0.023 NA
ATOM     18  N   UNL     1       0.292  -1.874  -1.262  0.00  0.00    -0.044 NA
ATOM     19  N   UNL     1       0.693  -0.653  -1.379  0.00  0.00    -0.227 N 
BRANCH  19  20
ATOM     20  C   UNL     1       1.881  -0.193  -2.103  0.00  0.00    +0.111 C 
ATOM     21  C   UNL     1       1.729  -0.487  -3.609  0.00  0.00    +0.027 C 
ATOM     22  C   UNL     1       3.156  -0.886  -4.063  0.00  0.00    +0.002 C 
ATOM     23  C   UNL     1       3.682  -1.705  -2.858  0.00  0.00    +0.002 C 
ATOM     24  C   UNL     1       3.122  -0.966  -1.625  0.00  0.00    +0.027 C 
ENDBRANCH  19  20
ENDBRANCH   1  15
BRANCH   1  25
ATOM     25  N   UNL     1      -0.826   1.993   0.693  0.00  0.00    +0.397 N 
ATOM     26  H   UNL     1      -1.770   1.591   0.685  0.00  0.00    -0.079 HD
BRANCH  25  27
ATOM     27  C   UNL     1      -0.088   1.465   1.859  0.00  0.00    -0.041 C 
BRANCH  27  28
ATOM     28  C   UNL     1       1.343   1.937   1.839  0.00  0.00    -0.064 A 
ATOM     29  C   UNL     1       2.321   1.153   1.257  0.00  0.00    +0.003 A 
ATOM     30  C   UNL     1       3.633   1.589   1.232  0.00  0.00    +0.020 A 
ATOM     31  C   UNL     1       3.968   2.805   1.800  0.00  0.00    +0.041 A 
ATOM     32  C   UNL     1       2.989   3.587   2.388  0.00  0.00    +0.020 A 
ATOM     33  C   UNL     1       1.677   3.153   2.406  0.00  0.00    +0.003 A 
ATOM     34 CL   UNL     1       5.616   3.350   1.776  0.00  0.00    -0.084 Cl
ENDBRANCH  27  28
ENDBRANCH  25  27
BRANCH  25  35
ATOM     35  C   UNL     1      -0.932   3.465   0.786  0.00  0.00    -0.001 C 
BRANCH  35  36
ATOM     36  C   UNL     1      -1.954   3.810   1.838  0.00  0.00    +0.089 A 
ATOM     37  C   UNL     1      -1.691   4.114   3.122  0.00  0.00    +0.042 A 
ATOM     38  C   UNL     1      -2.934   4.368   3.746  0.00  0.00    +0.041 A 
ATOM     39  C   UNL     1      -3.882   4.204   2.807  0.00  0.00    +0.195 A 
ATOM     40  O   UNL     1      -3.283   3.872   1.652  0.00  0.00    -0.470 OA
ENDBRANCH  35  36
ENDBRANCH  25  35
ENDBRANCH   1  25
TORSDOF 8
