REMARK  Name = ZINC43769669
REMARK  7 active torsions:
REMARK  status: ('A' for Active; 'I' for Inactive)
REMARK    1  A    between atoms: C_4  and  N_7
REMARK    2  A    between atoms: N_7  and  C_8
REMARK    3  A    between atoms: N_7  and  S_22
REMARK    4  A    between atoms: C_8  and  C_9
REMARK    5  A    between atoms: N_11  and  C_12
REMARK    6  A    between atoms: S_22  and  C_25
REMARK    7  A    between atoms: C_30  and  N_31
REMARK                            x       y       z     vdW  Elec       q    Type
REMARK                         _______ _______ _______ _____ _____    ______ ____
ROOT
ATOM      1  N   UNL     1       4.473  -0.278   0.170  0.00  0.00    -0.194 N 
ENDROOT
BRANCH   1   5
ATOM      2  C   UNL     1       0.919   1.587   1.279  0.00  0.00    +0.000 A 
ATOM      3  C   UNL     1       2.066   2.339   1.101  0.00  0.00    +0.002 A 
ATOM      4  C   UNL     1       3.246   1.723   0.734  0.00  0.00    +0.025 A 
ATOM      5  C   UNL     1       3.280   0.348   0.542  0.00  0.00    +0.052 A 
ATOM      6  C   UNL     1       2.126  -0.404   0.722  0.00  0.00    +0.025 A 
ATOM      7  C   UNL     1       0.949   0.217   1.090  0.00  0.00    +0.002 A 
ENDBRANCH   1   5
BRANCH   1   8
ATOM      8  S   UNL     1       4.432  -1.708  -0.663  0.00  0.00    +0.077 S 
ATOM      9  O   UNL     1       3.217  -1.714  -1.401  0.00  0.00    -0.150 OA
ATOM     10  O   UNL     1       5.702  -1.853  -1.285  0.00  0.00    -0.150 OA
BRANCH   8  11
ATOM     11  C   UNL     1       4.304  -3.001   0.527  0.00  0.00    +0.139 A 
ATOM     12  C   UNL     1       3.959  -2.706   1.833  0.00  0.00    +0.031 A 
ATOM     13  C   UNL     1       3.859  -3.720   2.767  0.00  0.00    +0.002 A 
ATOM     14  C   UNL     1       4.104  -5.029   2.395  0.00  0.00    +0.002 A 
ATOM     15  C   UNL     1       4.448  -5.324   1.090  0.00  0.00    +0.035 A 
ATOM     16  C   UNL     1       4.544  -4.310   0.155  0.00  0.00    +0.153 A 
BRANCH  16  17
ATOM     17  N   UNL     1       4.908  -4.626  -1.245  0.00  0.00    +0.058 N 
ATOM     18  O   UNL     1       5.240  -5.749  -1.544  0.00  0.00    -0.126 OA
ATOM     19  O   UNL     1       4.872  -3.761  -2.089  0.00  0.00    -0.126 OA
ENDBRANCH  16  17
ENDBRANCH   8  11
ENDBRANCH   1   8
BRANCH   1  20
ATOM     20  C   UNL     1       5.759   0.332   0.517  0.00  0.00    +0.227 C 
BRANCH  20  21
ATOM     21  C   UNL     1       6.057   0.083   1.973  0.00  0.00    +0.232 C 
ATOM     22  O   UNL     1       5.224  -0.443   2.681  0.00  0.00    -0.274 OA
ATOM     23  N   UNL     1       7.249   0.444   2.488  0.00  0.00    -0.311 N 
ATOM     24  H   UNL     1       7.915   0.865   1.922  0.00  0.00    +0.149 HD
BRANCH  23  25
ATOM     25  C   UNL     1       7.538   0.202   3.904  0.00  0.00    +0.076 C 
ATOM     26  C   UNL     1       8.661   1.145   4.393  0.00  0.00    +0.026 C 
ATOM     27  C   UNL     1       9.810   0.191   4.841  0.00  0.00    -0.009 C 
ATOM     28  C   UNL     1      10.369  -0.399   3.511  0.00  0.00    +0.004 C 
ATOM     29  C   UNL     1       9.255  -1.341   3.002  0.00  0.00    +0.005 C 
ATOM     30  C   UNL     1       8.112  -1.234   4.103  0.00  0.00    +0.010 C 
ATOM     31  C   UNL     1       8.981  -1.022   5.394  0.00  0.00    +0.009 C 
ENDBRANCH  23  25
ENDBRANCH  20  21
ENDBRANCH   1  20
TORSDOF 7
