REMARK  Name = ZINC12042087
REMARK  11 active torsions:
REMARK  status: ('A' for Active; 'I' for Inactive)
REMARK    1  A    between atoms: C_1  and  O_2
REMARK    2  A    between atoms: O_2  and  C_3
REMARK    3  A    between atoms: C_3  and  C_4
REMARK    4  A    between atoms: C_4  and  C_5
REMARK    5  A    between atoms: C_5  and  N_6
REMARK    6  A    between atoms: C_7  and  C_21
REMARK    7  A    between atoms: N_11  and  S_12
REMARK    8  A    between atoms: S_12  and  C_15
REMARK    9  A    between atoms: C_24  and  O_27
REMARK   10  A    between atoms: O_27  and  C_28
REMARK   11  A    between atoms: C_28  and  C_30
REMARK                            x       y       z     vdW  Elec       q    Type
REMARK                         _______ _______ _______ _____ _____    ______ ____
ROOT
ATOM      1  N   UNL     1      -2.775  -4.510  -0.074  0.00  0.00    -0.318 N 
ATOM      2  C   UNL     1      -2.217  -5.213  -1.110  0.00  0.00    +0.058 A 
ATOM      3  C   UNL     1      -1.478  -6.309  -0.850  0.00  0.00    +0.075 A 
ATOM      4  S   UNL     1      -1.543  -6.394   0.932  0.00  0.00    -0.056 S 
ATOM      5  C   UNL     1      -2.554  -4.950   1.213  0.00  0.00    +0.194 A 
ATOM      6  N   UNL     1      -2.976  -4.443   2.345  0.00  0.00    -0.103 NA
ENDROOT
BRANCH   2   7
ATOM      7  C   UNL     1      -2.427  -4.771  -2.505  0.00  0.00    -0.001 A 
ATOM      8  C   UNL     1      -1.980  -3.513  -2.915  0.00  0.00    +0.013 A 
ATOM      9  C   UNL     1      -2.178  -3.104  -4.217  0.00  0.00    +0.047 A 
ATOM     10  C   UNL     1      -2.819  -3.942  -5.120  0.00  0.00    +0.132 A 
ATOM     11  C   UNL     1      -3.264  -5.193  -4.716  0.00  0.00    +0.047 A 
ATOM     12  C   UNL     1      -3.066  -5.612  -3.418  0.00  0.00    +0.013 A 
BRANCH  10  13
ATOM     13  O   UNL     1      -3.012  -3.535  -6.402  0.00  0.00    -0.422 OA
BRANCH  13  14
ATOM     14  C   UNL     1      -1.956  -3.555  -7.238  0.00  0.00    +0.344 C 
ATOM     15  O   UNL     1      -0.895  -4.014  -6.865  0.00  0.00    -0.245 OA
BRANCH  14  16
ATOM     16  C   UNL     1      -2.088  -3.018  -8.608  0.00  0.00    +0.059 A 
ATOM     17  C   UNL     1      -3.304  -2.485  -9.038  0.00  0.00    +0.015 A 
ATOM     18  C   UNL     1      -3.420  -1.986 -10.319  0.00  0.00    +0.001 A 
ATOM     19  C   UNL     1      -2.335  -2.014 -11.177  0.00  0.00    +0.000 A 
ATOM     20  C   UNL     1      -1.127  -2.541 -10.757  0.00  0.00    +0.001 A 
ATOM     21  C   UNL     1      -0.995  -3.038  -9.477  0.00  0.00    +0.015 A 
ENDBRANCH  14  16
ENDBRANCH  13  14
ENDBRANCH  10  13
ENDBRANCH   2   7
BRANCH   6  22
ATOM     22  S   UNL     1      -3.432  -2.852   2.420  0.00  0.00    +0.101 S 
ATOM     23  O   UNL     1      -2.333  -2.092   1.938  0.00  0.00    -0.146 OA
ATOM     24  O   UNL     1      -4.727  -2.773   1.841  0.00  0.00    -0.146 OA
BRANCH  22  25
ATOM     25  C   UNL     1      -3.617  -2.444   4.124  0.00  0.00    +0.113 A 
ATOM     26  C   UNL     1      -4.839  -2.617   4.748  0.00  0.00    +0.029 A 
ATOM     27  C   UNL     1      -4.984  -2.296   6.085  0.00  0.00    +0.002 A 
ATOM     28  C   UNL     1      -3.908  -1.804   6.798  0.00  0.00    +0.000 A 
ATOM     29  C   UNL     1      -2.686  -1.632   6.175  0.00  0.00    +0.002 A 
ATOM     30  C   UNL     1      -2.539  -1.956   4.839  0.00  0.00    +0.029 A 
ENDBRANCH  22  25
ENDBRANCH   6  22
BRANCH   1  31
ATOM     31  C   UNL     1      -3.582  -3.315  -0.329  0.00  0.00    +0.126 C 
BRANCH  31  32
ATOM     32  C   UNL     1      -5.055  -3.711  -0.454  0.00  0.00    +0.050 C 
BRANCH  32  33
ATOM     33  C   UNL     1      -5.900  -2.461  -0.703  0.00  0.00    +0.161 C 
BRANCH  33  35
ATOM     34  C   UNL     1      -8.156  -1.730  -1.056  0.00  0.00    +0.193 C 
ATOM     35  O   UNL     1      -7.275  -2.831  -0.820  0.00  0.00    -0.383 OA
ENDBRANCH  33  35
ENDBRANCH  32  33
ENDBRANCH  31  32
ENDBRANCH   1  31
TORSDOF 10
