REMARK  Name = ZINC00609835
REMARK  2 active torsions:
REMARK  status: ('A' for Active; 'I' for Inactive)
REMARK    1  A    between atoms: C_3  and  C_7
REMARK    2  A    between atoms: C_12  and  C_14
REMARK                            x       y       z     vdW  Elec       q    Type
REMARK                         _______ _______ _______ _____ _____    ______ ____
ROOT
ATOM      1  C   UNL     1      -3.348   2.049   0.029  0.00  0.00    +0.185 A 
ATOM      2  N   UNL     1      -2.409   1.091   0.020  0.00  0.00    -0.193 NA
ATOM      3  C   UNL     1      -1.216   1.640   0.017  0.00  0.00    +0.219 A 
ATOM      4  N   UNL     1      -1.378   2.994   0.030  0.00  0.00    -0.162 N 
ATOM      5  N   UNL     1      -2.764   3.225   0.032  0.00  0.00    -0.141 NA
ATOM      6  C   UNL     1      -0.404   3.925   0.037  0.00  0.00    +0.288 C 
ATOM      7  O   UNL     1       0.764   3.583   0.031  0.00  0.00    -0.265 OA
ATOM      8  N   UNL     1      -0.011   0.966   0.007  0.00  0.00    -0.327 N 
ATOM      9  H   UNL     1       0.002  -0.004   0.002  0.00  0.00    +0.145 HD
ATOM     10  H   UNL     1       0.822   1.462   0.002  0.00  0.00    +0.145 HD
ENDROOT
BRANCH   1  13
ATOM     11  C   UNL     1      -6.702   0.354   0.037  0.00  0.00    +0.020 A 
ATOM     12  C   UNL     1      -5.327   0.517   0.025  0.00  0.00    +0.014 A 
ATOM     13  C   UNL     1      -4.814   1.817   0.035  0.00  0.00    +0.039 A 
ATOM     14  C   UNL     1      -5.701   2.892   0.046  0.00  0.00    +0.122 A 
ATOM     15  N   UNL     1      -7.002   2.687   0.051  0.00  0.00    -0.263 NA
ATOM     16  C   UNL     1      -7.516   1.472   0.047  0.00  0.00    +0.111 A 
ENDBRANCH   1  13
BRANCH   6  17
ATOM     17  C   UNL     1      -0.750   5.346   0.052  0.00  0.00    +0.078 A 
ATOM     18  C   UNL     1       0.090   6.451   0.061  0.00  0.00    +0.021 A 
ATOM     19  C   UNL     1      -0.505   7.687   0.074  0.00  0.00    +0.008 A 
ATOM     20  C   UNL     1      -1.862   7.771   0.078  0.00  0.00    +0.046 A 
ATOM     21  S   UNL     1      -2.362   6.111   0.055  0.00  0.00    -0.092 S 
ENDBRANCH   6  17
TORSDOF 2
