REMARK  Name = ZINC63362556
REMARK  7 active torsions:
REMARK  status: ('A' for Active; 'I' for Inactive)
REMARK    1  A    between atoms: C_1  and  C_2
REMARK    2  A    between atoms: C_5  and  N_8
REMARK    3  A    between atoms: C_9  and  C_11
REMARK    4  A    between atoms: C_14  and  N_17
REMARK    5  A    between atoms: C_20  and  C_38
REMARK    6  A    between atoms: C_26  and  O_31
REMARK    7  A    between atoms: O_31  and  C_32
REMARK                            x       y       z     vdW  Elec       q    Type
REMARK                         _______ _______ _______ _____ _____    ______ ____
ROOT
ATOM      1  N   UNL     1       0.671 -10.470   1.076  0.00  0.00    -0.192 N 
ATOM      2  C   UNL     1       0.685 -11.242   2.183  0.00  0.00    +0.253 C 
ATOM      3  O   UNL     1       0.630 -10.871   3.336  0.00  0.00    -0.272 OA
ATOM      4  C   UNL     1       0.782 -12.667   1.685  0.00  0.00    +0.137 C 
ATOM      5  C   UNL     1       2.039 -13.344   2.232  0.00  0.00    +0.139 C 
ATOM      6  C   UNL     1       2.988 -13.551   1.061  0.00  0.00    -0.034 C 
ATOM      7  C   UNL     1       4.129 -12.954   1.397  0.00  0.00    +0.003 A 
ATOM      8  C   UNL     1       5.427 -12.867   0.713  0.00  0.00    +0.055 A 
ATOM      9  C   UNL     1       6.402 -12.155   1.343  0.00  0.00    +0.121 A 
ATOM     10  C   UNL     1       6.232 -11.517   2.580  0.00  0.00    +0.047 A 
ATOM     11  C   UNL     1       5.080 -11.537   3.298  0.00  0.00    +0.029 A 
ATOM     12  C   UNL     1       3.952 -12.283   2.721  0.00  0.00    +0.043 A 
ATOM     13  N   UNL     1       2.743 -12.491   3.191  0.00  0.00    -0.375 N 
ATOM     14  C   UNL     1       2.596 -14.245  -0.221  0.00  0.00    +0.052 C 
ATOM     15  C   UNL     1       1.293 -13.582  -0.711  0.00  0.00    +0.115 C 
ATOM     16  N   UNL     1       0.955 -12.507   0.227  0.00  0.00    -0.268 N 
ATOM     17  C   UNL     1       0.784 -11.204  -0.039  0.00  0.00    +0.316 C 
ATOM     18  O   UNL     1       0.740 -10.741  -1.162  0.00  0.00    -0.252 OA
ATOM     19  C   UNL     1      -0.484 -13.460   2.014  0.00  0.00    +0.044 C 
ATOM     20  H   UNL     1       2.375 -12.143   4.019  0.00  0.00    +0.160 HD
ENDROOT
BRANCH   1  24
ATOM     21  C   UNL     1       0.304  -6.318   1.122  0.00  0.00    +0.037 A 
ATOM     22  C   UNL     1       0.290  -7.009  -0.093  0.00  0.00    +0.015 A 
ATOM     23  C   UNL     1       0.413  -8.381  -0.104  0.00  0.00    +0.025 A 
ATOM     24  C   UNL     1       0.548  -9.078   1.091  0.00  0.00    +0.045 A 
ATOM     25  C   UNL     1       0.562  -8.394   2.302  0.00  0.00    +0.025 A 
ATOM     26  C   UNL     1       0.446  -7.022   2.321  0.00  0.00    +0.015 A 
BRANCH  21  28
ATOM     27  N   UNL     1       0.036  -4.171  -0.020  0.00  0.00    -0.282 N 
ATOM     28  C   UNL     1       0.174  -4.848   1.138  0.00  0.00    +0.248 C 
ATOM     29  O   UNL     1       0.190  -4.247   2.195  0.00  0.00    -0.270 OA
ATOM     30  H   UNL     1      -0.054  -4.654  -0.856  0.00  0.00    +0.155 HD
BRANCH  27  35
ATOM     31  C   UNL     1      -0.014   1.501   0.003  0.00  0.00    +0.044 C 
ATOM     32  C   UNL     1      -0.001  -0.006  -0.004  0.00  0.00    -0.050 A 
ATOM     33  C   UNL     1      -0.759  -0.699  -0.929  0.00  0.00    +0.005 A 
ATOM     34  C   UNL     1      -0.749  -2.080  -0.937  0.00  0.00    +0.023 A 
ATOM     35  C   UNL     1       0.024  -2.772  -0.015  0.00  0.00    +0.034 A 
ATOM     36  C   UNL     1       0.785  -2.073   0.913  0.00  0.00    +0.023 A 
ATOM     37  C   UNL     1       0.775  -0.692   0.913  0.00  0.00    +0.005 A 
ENDBRANCH  27  35
ENDBRANCH  21  28
ENDBRANCH   1  24
BRANCH   9  38
ATOM     38  O   UNL     1       7.614 -12.056   0.735  0.00  0.00    -0.495 OA
ATOM     39  C   UNL     1       8.621 -11.304   1.415  0.00  0.00    +0.277 C 
ENDBRANCH   9  38
TORSDOF 4
