REMARK  Name = ZINC28119559
REMARK  13 active torsions:
REMARK  status: ('A' for Active; 'I' for Inactive)
REMARK    1  A    between atoms: C_1  and  C_2
REMARK    2  A    between atoms: C_2  and  C_3
REMARK    3  A    between atoms: C_3  and  C_4
REMARK    4  A    between atoms: N_6  and  C_7
REMARK    5  A    between atoms: N_6  and  S_27
REMARK    6  A    between atoms: C_13  and  C_22
REMARK    7  A    between atoms: C_14  and  C_16
REMARK    8  A    between atoms: C_22  and  O_24
REMARK    9  A    between atoms: O_24  and  C_25
REMARK   10  A    between atoms: C_25  and  C_26
REMARK   11  A    between atoms: S_27  and  C_30
REMARK   12  A    between atoms: C_32  and  C_37
REMARK   13  A    between atoms: C_35  and  C_36
REMARK                            x       y       z     vdW  Elec       q    Type
REMARK                         _______ _______ _______ _____ _____    ______ ____
ROOT
ATOM      1  C   UNL     1      -1.341   4.342   1.754  0.00  0.00    +0.061 A 
ATOM      2  C   UNL     1      -1.288   5.213   0.668  0.00  0.00    +0.029 A 
ATOM      3  C   UNL     1      -1.005   6.548   0.853  0.00  0.00    +0.049 A 
ATOM      4  C   UNL     1      -0.768   7.040   2.132  0.00  0.00    +0.137 A 
ATOM      5  C   UNL     1      -0.821   6.164   3.226  0.00  0.00    +0.037 A 
ATOM      6  C   UNL     1      -1.113   4.816   3.034  0.00  0.00    +0.037 A 
ATOM      7  C   UNL     1      -0.529   6.989   4.414  0.00  0.00    +0.112 A 
ATOM      8  C   UNL     1      -0.329   8.273   3.931  0.00  0.00    +0.150 A 
ATOM      9  O   UNL     1      -0.475   8.274   2.597  0.00  0.00    -0.454 OA
ENDROOT
BRANCH   8  10
ATOM     10  C   UNL     1      -0.007   9.454   4.755  0.00  0.00    +0.018 A 
ATOM     11  C   UNL     1       0.115   9.330   6.141  0.00  0.00    +0.011 A 
ATOM     12  C   UNL     1       0.423  10.437   6.905  0.00  0.00    +0.001 A 
ATOM     13  C   UNL     1       0.599  11.670   6.302  0.00  0.00    +0.000 A 
ATOM     14  C   UNL     1       0.475  11.801   4.930  0.00  0.00    +0.001 A 
ATOM     15  C   UNL     1       0.173  10.702   4.153  0.00  0.00    +0.011 A 
ENDBRANCH   8  10
BRANCH   1  18
ATOM     16  C   UNL     1      -2.648   2.408   2.217  0.00  0.00    +0.239 C 
ATOM     17  O   UNL     1      -3.376   3.080   2.917  0.00  0.00    -0.274 OA
ATOM     18  N   UNL     1      -1.630   2.986   1.550  0.00  0.00    -0.139 N 
BRANCH  18  19
ATOM     19  S   UNL     1      -0.721   2.095   0.491  0.00  0.00    +0.081 S 
ATOM     20  O   UNL     1       0.035   3.023  -0.275  0.00  0.00    -0.149 OA
ATOM     21  O   UNL     1      -1.600   1.152  -0.105  0.00  0.00    -0.149 OA
BRANCH  19  22
ATOM     22  C   UNL     1       0.435   1.171   1.447  0.00  0.00    +0.112 A 
ATOM     23  C   UNL     1       0.368  -0.210   1.467  0.00  0.00    +0.032 A 
ATOM     24  C   UNL     1       1.279  -0.935   2.212  0.00  0.00    -0.049 A 
ATOM     25  C   UNL     1       2.257  -0.280   2.937  0.00  0.00    +0.004 A 
ATOM     26  C   UNL     1       2.324   1.100   2.917  0.00  0.00    +0.005 A 
ATOM     27  C   UNL     1       1.413   1.826   2.173  0.00  0.00    -0.024 A 
ATOM     28  C   UNL     1       1.485   3.331   2.151  0.00  0.00    +0.046 C 
ATOM     29  C   UNL     1       1.207  -2.440   2.233  0.00  0.00    +0.044 C 
ENDBRANCH  19  22
ENDBRANCH  18  19
BRANCH  16  30
ATOM     30  C   UNL     1      -2.884   0.924   2.093  0.00  0.00    +0.098 C 
BRANCH  30  32
ATOM     31  C   UNL     1      -4.331  -0.980   2.817  0.00  0.00    +0.004 C 
ATOM     32  C   UNL     1      -4.092   0.526   2.943  0.00  0.00    +0.006 C 
ENDBRANCH  30  32
ENDBRANCH  16  30
ENDBRANCH   1  18
BRANCH   7  33
ATOM     33  C   UNL     1      -0.464   6.545   5.809  0.00  0.00    +0.343 C 
ATOM     34  O   UNL     1      -1.464   6.563   6.500  0.00  0.00    -0.245 OA
BRANCH  33  35
ATOM     35  O   UNL     1       0.706   6.116   6.326  0.00  0.00    -0.461 OA
BRANCH  35  36
ATOM     36  C   UNL     1       0.696   5.691   7.714  0.00  0.00    +0.229 C 
ATOM     37  C   UNL     1       2.101   5.242   8.120  0.00  0.00    +0.048 C 
ENDBRANCH  35  36
ENDBRANCH  33  35
ENDBRANCH   7  33
TORSDOF 9
