REMARK  Name = ZINC22853653
REMARK  13 active torsions:
REMARK  status: ('A' for Active; 'I' for Inactive)
REMARK    1  A    between atoms: C_1  and  C_2
REMARK    2  A    between atoms: C_2  and  C_3
REMARK    3  A    between atoms: C_3  and  C_5
REMARK    4  A    between atoms: C_3  and  C_6
REMARK    5  A    between atoms: C_11  and  O_12
REMARK    6  A    between atoms: O_12  and  C_13
REMARK    7  A    between atoms: C_13  and  C_14
REMARK    8  A    between atoms: C_14  and  C_16
REMARK    9  A    between atoms: C_14  and  O_40
REMARK   10  A    between atoms: C_16  and  N_17
REMARK   11  A    between atoms: N_20  and  C_23
REMARK   12  A    between atoms: C_23  and  C_24
REMARK   13  A    between atoms: C_24  and  N_25
REMARK                            x       y       z     vdW  Elec       q    Type
REMARK                         _______ _______ _______ _____ _____    ______ ____
ROOT
ATOM      1  N   UNL     1      -3.738   0.203   6.102  0.00  0.00    -0.303 NA
ATOM      2  C   UNL     1      -2.749   1.044   6.790  0.00  0.00    +0.066 C 
ATOM      3  C   UNL     1      -3.474   2.096   7.633  0.00  0.00    -0.063 C 
ATOM      4  N   UNL     1      -4.352   1.423   8.601  0.00  0.00    +0.382 N 
ATOM      5  C   UNL     1      -5.341   0.582   7.913  0.00  0.00    -0.063 C 
ATOM      6  C   UNL     1      -4.616  -0.469   7.070  0.00  0.00    +0.066 C 
ATOM      7  H   UNL     1      -3.728   0.770   9.228  0.00  0.00    -0.082 HD
ENDROOT
BRANCH   1   8
ATOM      8  C   UNL     1      -3.080  -0.771   5.222  0.00  0.00    +0.119 C 
BRANCH   8   9
ATOM      9  C   UNL     1      -4.083  -1.279   4.183  0.00  0.00    +0.166 C 
BRANCH   9  10
ATOM     10  O   UNL     1      -4.550  -0.181   3.397  0.00  0.00    -0.387 OA
ATOM     11  H   UNL     1      -5.070   0.660   3.879  0.00  0.00    +0.210 HD
ENDBRANCH   9  10
BRANCH   9  12
ATOM     12  C   UNL     1      -3.401  -2.304   3.275  0.00  0.00    +0.261 C 
BRANCH  12  13
ATOM     13  O   UNL     1      -4.365  -2.863   2.380  0.00  0.00    -0.489 OA
BRANCH  13  19
ATOM     14  C   UNL     1      -4.802  -4.381   0.602  0.00  0.00    -0.003 A 
ATOM     15  C   UNL     1      -4.348  -5.335  -0.289  0.00  0.00    +0.007 A 
ATOM     16  C   UNL     1      -3.014  -5.698  -0.295  0.00  0.00    +0.001 A 
ATOM     17  C   UNL     1      -2.133  -5.117   0.599  0.00  0.00    +0.004 A 
ATOM     18  C   UNL     1      -2.583  -4.168   1.496  0.00  0.00    +0.046 A 
ATOM     19  C   UNL     1      -3.920  -3.797   1.499  0.00  0.00    +0.124 A 
BRANCH  14  20
ATOM     20  C   UNL     1      -6.255  -3.982   0.604  0.00  0.00    +0.019 C 
ATOM     21  C   UNL     1      -6.627  -3.407  -0.764  0.00  0.00    +0.012 C 
BRANCH  20  23
ATOM     22  C   UNL     1      -8.585  -4.782   1.020  0.00  0.00    +0.004 C 
ATOM     23  C   UNL     1      -7.121  -5.209   0.894  0.00  0.00    +0.004 C 
ENDBRANCH  20  23
ENDBRANCH  14  20
ENDBRANCH  13  19
ENDBRANCH  12  13
ENDBRANCH   9  12
ENDBRANCH   8   9
ENDBRANCH   1   8
BRANCH   4  24
ATOM     24  C   UNL     1      -5.010   2.398   9.481  0.00  0.00    -0.059 C 
BRANCH  24  25
ATOM     25  C   UNL     1      -3.960   3.081  10.360  0.00  0.00    +0.098 C 
BRANCH  25  26
ATOM     26  N   UNL     1      -4.616   4.053  11.238  0.00  0.00    -0.236 N 
ATOM     27  C   UNL     1      -4.759   5.321  10.809  0.00  0.00    +0.254 C 
ATOM     28  O   UNL     1      -4.346   5.638   9.709  0.00  0.00    -0.270 OA
ATOM     29  C   UNL     1      -5.417   6.324  11.659  0.00  0.00    +0.046 A 
ATOM     30  C   UNL     1      -5.589   7.640  11.255  0.00  0.00    +0.014 A 
ATOM     31  C   UNL     1      -6.213   8.553  12.097  0.00  0.00    +0.001 A 
ATOM     32  C   UNL     1      -6.670   8.191  13.332  0.00  0.00    +0.008 A 
ATOM     33  C   UNL     1      -6.515   6.867  13.780  0.00  0.00    -0.016 A 
ATOM     34  C   UNL     1      -5.883   5.931  12.934  0.00  0.00    +0.006 A 
ATOM     35  C   UNL     1      -5.712   4.593  13.355  0.00  0.00    +0.046 A 
ATOM     36  C   UNL     1      -6.173   4.217  14.609  0.00  0.00    +0.014 A 
ATOM     37  C   UNL     1      -6.794   5.149  15.432  0.00  0.00    +0.001 A 
ATOM     38  C   UNL     1      -6.968   6.446  15.042  0.00  0.00    +0.008 A 
ATOM     39  C   UNL     1      -5.049   3.647  12.447  0.00  0.00    +0.254 C 
ATOM     40  O   UNL     1      -4.891   2.490  12.788  0.00  0.00    -0.270 OA
ENDBRANCH  25  26
ENDBRANCH  24  25
ENDBRANCH   4  24
TORSDOF 11
