REMARK  Name = ZINC09705589
REMARK  8 active torsions:
REMARK  status: ('A' for Active; 'I' for Inactive)
REMARK    1  A    between atoms: C_1  and  C_2
REMARK    2  A    between atoms: C_5  and  N_12
REMARK    3  A    between atoms: C_8  and  C_10
REMARK    4  A    between atoms: C_8  and  C_11
REMARK    5  A    between atoms: C_13  and  C_15
REMARK    6  A    between atoms: N_17  and  C_18
REMARK    7  A    between atoms: C_26  and  C_27
REMARK    8  A    between atoms: N_29  and  C_30
REMARK                            x       y       z     vdW  Elec       q    Type
REMARK                         _______ _______ _______ _____ _____    ______ ____
ROOT
ATOM      1  C   UNL     1      -0.823   1.357   0.179  0.00  0.00    +0.093 A 
ATOM      2  C   UNL     1      -1.734   2.241   0.916  0.00  0.00    +0.042 A 
ATOM      3  C   UNL     1      -2.919   2.040   1.625  0.00  0.00    +0.013 A 
ATOM      4  C   UNL     1      -3.545   3.103   2.215  0.00  0.00    +0.001 A 
ATOM      5  C   UNL     1      -3.007   4.378   2.115  0.00  0.00    +0.004 A 
ATOM      6  C   UNL     1      -1.837   4.596   1.420  0.00  0.00    +0.047 A 
ATOM      7  C   UNL     1      -1.184   3.530   0.811  0.00  0.00    +0.138 A 
ATOM      8  O   UNL     1      -0.053   3.438   0.084  0.00  0.00    -0.448 OA
ATOM      9  C   UNL     1       0.179   2.161  -0.293  0.00  0.00    +0.212 A 
ENDROOT
BRANCH   1  12
ATOM     10  C   UNL     1      -2.166  -0.591   0.042  0.00  0.00    +0.303 C 
ATOM     11  O   UNL     1      -3.159   0.097   0.165  0.00  0.00    -0.265 OA
ATOM     12  N   UNL     1      -0.948  -0.015   0.003  0.00  0.00    -0.274 N 
ATOM     13  H   UNL     1      -0.159  -0.558  -0.149  0.00  0.00    +0.155 HD
BRANCH  10  15
ATOM     14  N   UNL     1      -3.511  -2.651  -0.028  0.00  0.00    -0.305 N 
ATOM     15  C   UNL     1      -2.294  -2.075  -0.067  0.00  0.00    +0.300 C 
ATOM     16  O   UNL     1      -1.301  -2.762  -0.190  0.00  0.00    -0.265 OA
ATOM     17  H   UNL     1      -4.305  -2.101   0.071  0.00  0.00    +0.149 HD
BRANCH  14  21
ATOM     18  C   UNL     1      -7.386  -4.358   0.706  0.00  0.00    +0.007 C 
ATOM     19  C   UNL     1      -5.913  -3.985   0.888  0.00  0.00    -0.012 C 
ATOM     20  C   UNL     1      -5.110  -4.479  -0.316  0.00  0.00    +0.025 C 
ATOM     21  C   UNL     1      -3.637  -4.106  -0.134  0.00  0.00    +0.074 C 
ATOM     22  C   UNL     1      -3.099  -4.759   1.141  0.00  0.00    +0.028 C 
ATOM     23  C   UNL     1      -3.903  -4.265   2.345  0.00  0.00    -0.033 C 
ATOM     24  C   UNL     1      -5.376  -4.638   2.163  0.00  0.00    +0.009 C 
ATOM     25  C   UNL     1      -3.772  -2.744   2.456  0.00  0.00    +0.011 C 
ATOM     26  C   UNL     1      -3.365  -4.918   3.620  0.00  0.00    +0.011 C 
ENDBRANCH  14  21
ENDBRANCH  10  15
ENDBRANCH   1  12
BRANCH   9  27
ATOM     27  C   UNL     1       1.321   1.709  -1.085  0.00  0.00    +0.286 C 
ATOM     28  O   UNL     1       1.384   0.551  -1.457  0.00  0.00    -0.266 OA
ATOM     29  N   UNL     1       2.305   2.574  -1.403  0.00  0.00    -0.277 N 
ATOM     30  H   UNL     1       2.296   3.473  -1.040  0.00  0.00    +0.155 HD
BRANCH  29  31
ATOM     31  C   UNL     1       3.338   2.174  -2.258  0.00  0.00    +0.069 A 
ATOM     32  C   UNL     1       3.146   1.115  -3.134  0.00  0.00    +0.026 A 
ATOM     33  C   UNL     1       4.168   0.723  -3.977  0.00  0.00    +0.002 A 
ATOM     34  C   UNL     1       5.382   1.384  -3.951  0.00  0.00    +0.003 A 
ATOM     35  C   UNL     1       5.578   2.440  -3.080  0.00  0.00    +0.040 A 
ATOM     36  C   UNL     1       4.558   2.841  -2.236  0.00  0.00    +0.144 A 
ATOM     37  F   UNL     1       4.748   3.877  -1.389  0.00  0.00    -0.204 F 
ENDBRANCH  29  31
ENDBRANCH   9  27
TORSDOF 5
