REMARK  Name = ZINC02844358
REMARK  7 active torsions:
REMARK  status: ('A' for Active; 'I' for Inactive)
REMARK    1  A    between atoms: C_1  and  C_2
REMARK    2  A    between atoms: C_3  and  C_29
REMARK    3  A    between atoms: C_4  and  C_20
REMARK    4  A    between atoms: C_10  and  C_15
REMARK    5  A    between atoms: C_29  and  O_31
REMARK    6  A    between atoms: O_31  and  C_32
REMARK    7  A    between atoms: C_32  and  C_33
REMARK                            x       y       z     vdW  Elec       q    Type
REMARK                         _______ _______ _______ _____ _____    ______ ____
ROOT
ATOM      1  C   UNL     1      -6.673   5.923  -1.698  0.00  0.00    +0.061 C 
ATOM      2  C   UNL     1      -5.847   5.589  -2.913  0.00  0.00    +0.016 C 
ATOM      3  C   UNL     1      -4.578   5.170  -2.764  0.00  0.00    +0.065 C 
ATOM      4  C   UNL     1      -3.726   4.829  -3.952  0.00  0.00    +0.092 C 
ATOM      5  C   UNL     1      -4.573   4.611  -5.180  0.00  0.00    +0.024 C 
ATOM      6  C   UNL     1      -5.844   5.064  -5.231  0.00  0.00    +0.016 C 
ATOM      7  N   UNL     1      -6.391   5.718  -4.161  0.00  0.00    -0.321 N 
ATOM      8  C   UNL     1      -6.693   4.860  -6.461  0.00  0.00    +0.062 C 
ATOM      9  C   UNL     1      -6.280   3.563  -7.161  0.00  0.00    +0.068 C 
ATOM     10  C   UNL     1      -4.793   3.656  -7.519  0.00  0.00    +0.091 C 
ATOM     11  C   UNL     1      -4.004   3.923  -6.266  0.00  0.00    +0.162 C 
ATOM     12  O   UNL     1      -2.854   3.538  -6.192  0.00  0.00    -0.292 OA
ATOM     13  H   UNL     1      -7.277   6.353  -4.311  0.00  0.00    +0.152 HD
ENDROOT
BRANCH   4  14
ATOM     14  C   UNL     1      -2.763   5.959  -4.209  0.00  0.00    -0.032 A 
ATOM     15  C   UNL     1      -3.243   7.225  -4.488  0.00  0.00    +0.008 A 
ATOM     16  C   UNL     1      -2.363   8.265  -4.725  0.00  0.00    +0.050 A 
ATOM     17  C   UNL     1      -0.997   8.040  -4.685  0.00  0.00    +0.166 A 
ATOM     18  C   UNL     1      -0.513   6.764  -4.404  0.00  0.00    +0.167 A 
ATOM     19  C   UNL     1      -1.401   5.729  -4.161  0.00  0.00    +0.054 A 
ATOM     20  O   UNL     1       0.852   6.802  -4.421  0.00  0.00    -0.453 OA
ATOM     21  C   UNL     1       1.199   8.194  -4.311  0.00  0.00    +0.466 C 
ATOM     22  O   UNL     1       0.065   8.876  -4.878  0.00  0.00    -0.453 OA
ENDBRANCH   4  14
BRANCH   9  23
ATOM     23  C   UNL     1      -7.093   3.384  -8.417  0.00  0.00    +0.109 A 
ATOM     24  C   UNL     1      -7.896   2.341  -8.693  0.00  0.00    +0.045 A 
ATOM     25  C   UNL     1      -8.458   2.582  -9.968  0.00  0.00    +0.041 A 
ATOM     26  C   UNL     1      -7.965   3.759 -10.395  0.00  0.00    +0.195 A 
ATOM     27  O   UNL     1      -7.143   4.243  -9.449  0.00  0.00    -0.468 OA
ENDBRANCH   9  23
BRANCH   3  28
ATOM     28  C   UNL     1      -4.038   5.042  -1.463  0.00  0.00    +0.338 C 
ATOM     29  O   UNL     1      -3.881   3.938  -0.976  0.00  0.00    -0.245 OA
BRANCH  28  30
ATOM     30  O   UNL     1      -3.698   6.143  -0.762  0.00  0.00    -0.457 OA
BRANCH  30  31
ATOM     31  C   UNL     1      -3.159   5.940   0.545  0.00  0.00    +0.268 C 
BRANCH  31  32
ATOM     32  C   UNL     1      -2.840   7.273   1.170  0.00  0.00    -0.010 A 
ATOM     33  C   UNL     1      -1.592   7.840   0.991  0.00  0.00    +0.007 A 
ATOM     34  C   UNL     1      -1.298   9.061   1.569  0.00  0.00    +0.000 A 
ATOM     35  C   UNL     1      -2.256   9.720   2.317  0.00  0.00    +0.000 A 
ATOM     36  C   UNL     1      -3.505   9.155   2.493  0.00  0.00    +0.000 A 
ATOM     37  C   UNL     1      -3.797   7.931   1.920  0.00  0.00    +0.007 A 
ENDBRANCH  31  32
ENDBRANCH  30  31
ENDBRANCH  28  30
ENDBRANCH   3  28
TORSDOF 6
