REMARK  Name = ZINC30883948
REMARK  12 active torsions:
REMARK  status: ('A' for Active; 'I' for Inactive)
REMARK    1  A    between atoms: C_1  and  C_2
REMARK    2  A    between atoms: C_4  and  N_31
REMARK    3  A    between atoms: C_8  and  C_30
REMARK    4  A    between atoms: C_11  and  O_29
REMARK    5  A    between atoms: C_13  and  C_17
REMARK    6  A    between atoms: C_17  and  C_19
REMARK    7  A    between atoms: C_17  and  C_20
REMARK    8  A    between atoms: N_22  and  C_23
REMARK    9  A    between atoms: C_23  and  C_24
REMARK   10  A    between atoms: C_32  and  C_34
REMARK   11  A    between atoms: C_34  and  O_35
REMARK   12  A    between atoms: O_35  and  C_36
REMARK                            x       y       z     vdW  Elec       q    Type
REMARK                         _______ _______ _______ _____ _____    ______ ____
ROOT
ATOM      1  C   UNL     1       1.284   1.294  -5.014  0.00  0.00    +0.010 C 
ATOM      2  C   UNL     1      -0.202   0.934  -4.947  0.00  0.00    +0.012 C 
ATOM      3  C   UNL     1      -0.966   1.725  -6.011  0.00  0.00    +0.076 C 
ATOM      4  C   UNL     1      -2.452   1.365  -5.944  0.00  0.00    +0.023 C 
ATOM      5  C   UNL     1      -2.999   1.712  -4.558  0.00  0.00    +0.009 C 
ATOM      6  C   UNL     1      -2.234   0.921  -3.495  0.00  0.00    -0.027 C 
ATOM      7  C   UNL     1      -0.749   1.282  -3.561  0.00  0.00    +0.028 C 
ATOM      8  C   UNL     1       0.016   0.491  -2.498  0.00  0.00    +0.122 C 
ATOM      9  C   UNL     1      -0.531   0.838  -1.112  0.00  0.00    +0.029 C 
ATOM     10  C   UNL     1      -2.017   0.478  -1.046  0.00  0.00    +0.007 C 
ATOM     11  C   UNL     1      -2.782   1.269  -2.109  0.00  0.00    +0.007 C 
ATOM     12  C   UNL     1      -2.408  -0.577  -3.751  0.00  0.00    +0.011 C 
ENDROOT
BRANCH   3  13
ATOM     13  N   UNL     1      -0.442   1.393  -7.338  0.00  0.00    -0.309 N 
ATOM     14  C   UNL     1      -0.569   2.272  -8.351  0.00  0.00    +0.251 C 
ATOM     15  O   UNL     1      -1.116   3.338  -8.165  0.00  0.00    -0.272 OA
ATOM     16  H   UNL     1       0.054   0.426  -7.506  0.00  0.00    +0.149 HD
BRANCH  14  17
ATOM     17  C   UNL     1      -0.029   1.930  -9.717  0.00  0.00    +0.324 C 
BRANCH  17  18
ATOM     18  O   UNL     1      -0.283   3.013 -10.614  0.00  0.00    -0.483 OA
BRANCH  18  19
ATOM     19  C   UNL     1       0.143   2.864 -11.896  0.00  0.00    +0.121 A 
ATOM     20  C   UNL     1       0.797   1.703 -12.281  0.00  0.00    +0.045 A 
ATOM     21  C   UNL     1       1.224   1.552 -13.586  0.00  0.00    +0.004 A 
ATOM     22  C   UNL     1       1.010   2.562 -14.505  0.00  0.00    +0.000 A 
ATOM     23  C   UNL     1       0.364   3.723 -14.123  0.00  0.00    +0.004 A 
ATOM     24  C   UNL     1      -0.070   3.877 -12.820  0.00  0.00    +0.045 A 
ENDBRANCH  18  19
ENDBRANCH  17  18
ENDBRANCH  14  17
ENDBRANCH   3  13
BRANCH   9  25
ATOM     25  C   UNL     1       0.233   0.047  -0.049  0.00  0.00    +0.077 C 
ATOM     26  C   UNL     1      -0.066  -1.445  -0.210  0.00  0.00    +0.017 C 
BRANCH  25  27
ATOM     27  C   UNL     1      -0.198   0.501   1.322  0.00  0.00    +0.216 C 
ATOM     28  O   UNL     1      -1.002   1.402   1.437  0.00  0.00    -0.276 OA
ATOM     29  N   UNL     1       0.310  -0.094   2.419  0.00  0.00    -0.310 N 
ATOM     30  H   UNL     1       1.039  -0.911   2.315  0.00  0.00    +0.149 HD
BRANCH  29  31
ATOM     31  C   UNL     1      -0.109   0.347   3.752  0.00  0.00    +0.146 C 
BRANCH  31  32
ATOM     32  C   UNL     1       0.600  -0.473   4.799  0.00  0.00    +0.007 A 
ATOM     33  C   UNL     1       1.790  -0.240   5.403  0.00  0.00    +0.013 A 
ATOM     34  C   UNL     1       2.249  -1.138   6.349  0.00  0.00    +0.008 A 
ATOM     35  C   UNL     1       1.499  -2.231   6.636  0.00  0.00    +0.045 A 
ATOM     36  S   UNL     1       0.093  -2.007   5.559  0.00  0.00    -0.100 S 
ENDBRANCH  31  32
ENDBRANCH  29  31
ENDBRANCH  25  27
ENDBRANCH   9  25
BRANCH   8  37
ATOM     37  O   UNL     1       1.403   0.827  -2.561  0.00  0.00    -0.391 OA
ATOM     38  H   UNL     1       2.115   0.355  -1.868  0.00  0.00    +0.210 HD
ENDBRANCH   8  37
TORSDOF 9
