REMARK  Name = ZINC05608661
REMARK  5 active torsions:
REMARK  status: ('A' for Active; 'I' for Inactive)
REMARK    1  A    between atoms: C_1  and  C_2
REMARK    2  A    between atoms: C_5  and  C_8
REMARK    3  A    between atoms: C_9  and  O_21
REMARK    4  A    between atoms: O_21  and  C_22
REMARK    5  A    between atoms: C_22  and  C_23
REMARK                            x       y       z     vdW  Elec       q    Type
REMARK                         _______ _______ _______ _____ _____    ______ ____
ROOT
ATOM      1  C   UNL     1       2.418   1.296  -0.234  0.00  0.00    +0.181 A 
ATOM      2  C   UNL     1       1.358   2.129  -0.035  0.00  0.00    +0.211 A 
ATOM      3  C   UNL     1       0.072   1.578   0.202  0.00  0.00    +0.235 A 
ATOM      4  O   UNL     1      -0.901   2.291   0.378  0.00  0.00    -0.283 OA
ATOM      5  C   UNL     1      -0.041   0.107   0.220  0.00  0.00    +0.071 A 
ATOM      6  C   UNL     1      -1.266  -0.522   0.445  0.00  0.00    +0.035 A 
ATOM      7  C   UNL     1      -1.331  -1.899   0.454  0.00  0.00    +0.043 A 
ATOM      8  C   UNL     1      -0.187  -2.656   0.241  0.00  0.00    +0.043 A 
ATOM      9  C   UNL     1       1.029  -2.046   0.017  0.00  0.00    +0.085 A 
ATOM     10  C   UNL     1       1.116  -0.657   0.004  0.00  0.00    +0.158 A 
ATOM     11  O   UNL     1       2.297  -0.042  -0.214  0.00  0.00    -0.449 OA
ATOM     12 CL   UNL     1       2.449  -3.008  -0.247  0.00  0.00    -0.080 Cl
ATOM     13 CL   UNL     1      -2.851  -2.690   0.734  0.00  0.00    -0.083 Cl
ENDROOT
BRANCH   1  18
ATOM     14  C   UNL     1       7.604   3.594  -1.191  0.00  0.00    +0.044 C 
ATOM     15  C   UNL     1       6.245   2.992  -0.940  0.00  0.00    -0.050 A 
ATOM     16  C   UNL     1       6.101   1.984  -0.003  0.00  0.00    +0.004 A 
ATOM     17  C   UNL     1       4.861   1.428   0.232  0.00  0.00    +0.012 A 
ATOM     18  C   UNL     1       3.748   1.885  -0.480  0.00  0.00    +0.021 A 
ATOM     19  C   UNL     1       3.902   2.899  -1.428  0.00  0.00    +0.012 A 
ATOM     20  C   UNL     1       5.148   3.450  -1.648  0.00  0.00    +0.004 A 
ENDBRANCH   1  18
BRANCH   2  21
ATOM     21  O   UNL     1       1.530   3.478  -0.065  0.00  0.00    -0.476 OA
BRANCH  21  22
ATOM     22  C   UNL     1       1.729   4.135   1.189  0.00  0.00    +0.324 C 
BRANCH  22  23
ATOM     23  C   UNL     1       1.901   5.614   0.960  0.00  0.00    +0.248 C 
ATOM     24  O   UNL     1       1.857   6.063  -0.167  0.00  0.00    -0.272 OA
ATOM     25  N   UNL     1       2.103   6.439   2.006  0.00  0.00    -0.327 N 
ATOM     26  H   UNL     1       2.138   6.081   2.906  0.00  0.00    +0.145 HD
ATOM     27  H   UNL     1       2.214   7.392   1.858  0.00  0.00    +0.145 HD
ENDBRANCH  22  23
ENDBRANCH  21  22
ENDBRANCH   2  21
TORSDOF 4
