REMARK  Name = ZINC08634697
REMARK  8 active torsions:
REMARK  status: ('A' for Active; 'I' for Inactive)
REMARK    1  A    between atoms: C_1  and  C_2
REMARK    2  A    between atoms: C_4  and  C_15
REMARK    3  A    between atoms: C_5  and  C_14
REMARK    4  A    between atoms: N_6  and  C_7
REMARK    5  A    between atoms: C_15  and  C_17
REMARK    6  A    between atoms: C_17  and  N_18
REMARK    7  A    between atoms: C_21  and  C_25
REMARK    8  A    between atoms: C_21  and  C_26
REMARK                            x       y       z     vdW  Elec       q    Type
REMARK                         _______ _______ _______ _____ _____    ______ ____
ROOT
ATOM      1  C   UNL     1       5.574   0.103  -1.480  0.00  0.00    +0.183 C 
ATOM      2  O   UNL     1       5.695   0.620  -2.571  0.00  0.00    -0.290 OA
ENDROOT
BRANCH   1   6
ATOM      3  C   UNL     1       2.146   0.032   2.289  0.00  0.00    +0.064 C 
ATOM      4  C   UNL     1       2.867   0.309   0.995  0.00  0.00    +0.022 A 
ATOM      5  C   UNL     1       4.066  -0.188   0.650  0.00  0.00    +0.034 A 
ATOM      6  C   UNL     1       4.372   0.352  -0.682  0.00  0.00    +0.040 A 
ATOM      7  C   UNL     1       3.293   1.145  -1.026  0.00  0.00    +0.031 A 
ATOM      8  N   UNL     1       2.403   1.105  -0.015  0.00  0.00    -0.317 N 
ATOM      9  C   UNL     1       3.138   1.918  -2.310  0.00  0.00    +0.064 C 
BRANCH   8  10
ATOM     10  C   UNL     1       1.179   1.787   0.000  0.00  0.00    +0.049 A 
ATOM     11  C   UNL     1       1.157   3.175   0.008  0.00  0.00    +0.026 A 
ATOM     12  C   UNL     1      -0.051   3.846   0.023  0.00  0.00    +0.005 A 
ATOM     13  C   UNL     1      -1.238   3.137   0.030  0.00  0.00    +0.038 A 
ATOM     14  C   UNL     1      -1.220   1.752   0.017  0.00  0.00    +0.125 A 
ATOM     15  C   UNL     1      -0.013   1.076   0.008  0.00  0.00    +0.064 A 
ATOM     16  F   UNL     1      -2.381   1.062   0.019  0.00  0.00    -0.205 F 
ENDBRANCH   8  10
ENDBRANCH   1   6
BRANCH   1  17
ATOM     17  C   UNL     1       6.660  -0.795  -0.946  0.00  0.00    +0.197 C 
BRANCH  17  18
ATOM     18  N   UNL     1       7.746  -0.882  -1.925  0.00  0.00    -0.216 N 
ATOM     19  C   UNL     1       7.815  -1.811  -2.900  0.00  0.00    +0.251 C 
ATOM     20  O   UNL     1       7.019  -2.698  -3.123  0.00  0.00    -0.272 OA
ATOM     21  C   UNL     1       9.092  -1.514  -3.659  0.00  0.00    +0.135 C 
ATOM     22  N   UNL     1       9.652  -0.348  -2.954  0.00  0.00    -0.281 N 
ATOM     23  C   UNL     1       8.796  -0.053  -1.959  0.00  0.00    +0.310 C 
ATOM     24  O   UNL     1       8.959   0.863  -1.177  0.00  0.00    -0.252 OA
ATOM     25  C   UNL     1      10.051  -2.704  -3.577  0.00  0.00    +0.047 C 
ATOM     26  H   UNL     1      10.476   0.117  -3.166  0.00  0.00    +0.152 HD
BRANCH  21  27
ATOM     27  C   UNL     1       8.796  -1.173  -5.097  0.00  0.00    -0.016 A 
ATOM     28  C   UNL     1       7.749  -1.792  -5.753  0.00  0.00    +0.006 A 
ATOM     29  C   UNL     1       7.474  -1.475  -7.070  0.00  0.00    +0.000 A 
ATOM     30  C   UNL     1       8.253  -0.546  -7.734  0.00  0.00    +0.000 A 
ATOM     31  C   UNL     1       9.304   0.069  -7.080  0.00  0.00    +0.000 A 
ATOM     32  C   UNL     1       9.575  -0.244  -5.761  0.00  0.00    +0.006 A 
ENDBRANCH  21  27
ENDBRANCH  17  18
ENDBRANCH   1  17
TORSDOF 5
