REMARK  Name = ZINC39652653
REMARK  9 active torsions:
REMARK  status: ('A' for Active; 'I' for Inactive)
REMARK    1  A    between atoms: C_1  and  C_2
REMARK    2  A    between atoms: C_2  and  O_3
REMARK    3  A    between atoms: O_3  and  C_4
REMARK    4  A    between atoms: C_9  and  C_10
REMARK    5  A    between atoms: C_10  and  C_11
REMARK    6  A    between atoms: C_11  and  N_12
REMARK    7  A    between atoms: C_13  and  C_15
REMARK    8  A    between atoms: C_26  and  C_28
REMARK    9  A    between atoms: C_31  and  C_35
REMARK                            x       y       z     vdW  Elec       q    Type
REMARK                         _______ _______ _______ _____ _____    ______ ____
ROOT
ATOM      1  C   UNL     1       0.874   1.044   7.252  0.00  0.00    +0.100 C 
ATOM      2  C   UNL     1       1.660   2.242   6.676  0.00  0.00    +0.121 C 
ATOM      3  N   UNL     1       0.749   3.400   6.837  0.00  0.00    -0.296 N 
ATOM      4  C   UNL     1       0.113   3.187   8.159  0.00  0.00    +0.115 C 
ATOM      5  C   UNL     1      -0.138   1.668   8.228  0.00  0.00    -0.004 C 
ATOM      6  C   UNL     1       0.108   1.156   9.644  0.00  0.00    -0.010 C 
ATOM      7  C   UNL     1      -0.947   1.744  10.585  0.00  0.00    -0.082 C 
ATOM      8  N   UNL     1      -2.286   1.354  10.128  0.00  0.00    +0.379 N 
ATOM      9  C   UNL     1      -2.550   1.929   8.804  0.00  0.00    -0.082 C 
ATOM     10  C   UNL     1      -1.563   1.348   7.787  0.00  0.00    -0.010 C 
ATOM     11  C   UNL     1       0.545   4.417   5.976  0.00  0.00    +0.249 C 
ATOM     12  O   UNL     1      -0.170   5.348   6.293  0.00  0.00    -0.270 OA
ATOM     13  H   UNL     1      -2.341   0.348  10.074  0.00  0.00    -0.086 HD
ATOM     14  H   UNL     1      -2.975   1.692  10.784  0.00  0.00    -0.086 HD
ENDROOT
BRANCH  11  15
ATOM     15  C   UNL     1       1.190   4.400   4.647  0.00  0.00    +0.072 A 
ATOM     16  C   UNL     1       2.467   3.855   4.494  0.00  0.00    +0.016 A 
ATOM     17  C   UNL     1       3.064   3.842   3.251  0.00  0.00    +0.013 A 
ATOM     18  C   UNL     1       2.401   4.368   2.155  0.00  0.00    +0.058 A 
ATOM     19  C   UNL     1       1.138   4.910   2.296  0.00  0.00    +0.051 A 
ATOM     20  C   UNL     1       0.524   4.925   3.536  0.00  0.00    +0.136 A 
ATOM     21  F   UNL     1      -0.713   5.450   3.673  0.00  0.00    -0.205 F 
BRANCH  18  22
ATOM     22  C   UNL     1       3.062   4.350   0.800  0.00  0.00    +0.418 C 
ATOM     23  F   UNL     1       2.732   3.164   0.137  0.00  0.00    -0.166 F 
ATOM     24  F   UNL     1       2.616   5.444   0.050  0.00  0.00    -0.166 F 
ATOM     25  F   UNL     1       4.450   4.427   0.957  0.00  0.00    -0.166 F 
ENDBRANCH  18  22
ENDBRANCH  11  15
BRANCH   1  27
ATOM     26  N   UNL     1      -0.116  -1.006   6.282  0.00  0.00    -0.315 N 
ATOM     27  C   UNL     1       0.155   0.308   6.150  0.00  0.00    +0.218 C 
ATOM     28  O   UNL     1      -0.179   0.899   5.145  0.00  0.00    -0.275 OA
ATOM     29  H   UNL     1       0.152  -1.478   7.086  0.00  0.00    +0.149 HD
BRANCH  26  30
ATOM     30  C   UNL     1      -0.814  -1.720   5.211  0.00  0.00    +0.109 C 
BRANCH  30  31
ATOM     31  C   UNL     1      -0.995  -3.186   5.609  0.00  0.00    +0.057 C 
BRANCH  31  37
ATOM     32  C   UNL     1      -0.998  -4.439   3.437  0.00  0.00    +0.124 A 
ATOM     33  C   UNL     1      -1.662  -5.120   2.427  0.00  0.00    +0.046 A 
ATOM     34  C   UNL     1      -3.033  -5.277   2.486  0.00  0.00    +0.004 A 
ATOM     35  C   UNL     1      -3.744  -4.755   3.552  0.00  0.00    +0.000 A 
ATOM     36  C   UNL     1      -3.085  -4.076   4.559  0.00  0.00    +0.007 A 
ATOM     37  C   UNL     1      -1.713  -3.922   4.507  0.00  0.00    -0.004 A 
BRANCH  32  38
ATOM     38  O   UNL     1       0.351  -4.284   3.381  0.00  0.00    -0.492 OA
BRANCH  38  40
ATOM     39  C   UNL     1       2.523  -4.570   2.361  0.00  0.00    +0.048 C 
ATOM     40  C   UNL     1       1.022  -4.843   2.250  0.00  0.00    +0.225 C 
ENDBRANCH  38  40
ENDBRANCH  32  38
ENDBRANCH  31  37
ENDBRANCH  30  31
ENDBRANCH  26  30
ENDBRANCH   1  27
TORSDOF 8
