REMARK  Name = ZINC46791898
REMARK  9 active torsions:
REMARK  status: ('A' for Active; 'I' for Inactive)
REMARK    1  A    between atoms: C_1  and  C_2
REMARK    2  A    between atoms: C_7  and  C_10
REMARK    3  A    between atoms: C_14  and  C_17
REMARK    4  A    between atoms: C_17  and  N_18
REMARK    5  A    between atoms: C_19  and  C_21
REMARK    6  A    between atoms: C_21  and  S_22
REMARK    7  A    between atoms: S_22  and  C_23
REMARK    8  A    between atoms: C_26  and  C_32
REMARK    9  A    between atoms: C_28  and  N_29
REMARK                            x       y       z     vdW  Elec       q    Type
REMARK                         _______ _______ _______ _____ _____    ______ ____
ROOT
ATOM      1  N   UNL     1      -3.369  -5.796  -4.369  0.00  0.00    -0.310 N 
ATOM      2  C   UNL     1      -3.827  -6.645  -5.310  0.00  0.00    +0.223 C 
ATOM      3  O   UNL     1      -4.914  -7.167  -5.179  0.00  0.00    -0.275 OA
ATOM      4  H   UNL     1      -2.500  -5.378  -4.474  0.00  0.00    +0.149 HD
ENDROOT
BRANCH   1   5
ATOM      5  C   UNL     1      -4.185  -5.503  -3.188  0.00  0.00    +0.141 C 
BRANCH   5  17
ATOM      6  C   UNL     1       0.024   1.508  -0.007  0.00  0.00    +0.039 C 
ATOM      7  C   UNL     1       0.027  -0.022  -0.001  0.00  0.00    +0.133 C 
ATOM      8  C   UNL     1      -1.417  -0.537   0.001  0.00  0.00    +0.137 C 
ATOM      9  N   UNL     1      -1.389  -1.995   0.196  0.00  0.00    -0.312 N 
ATOM     10  C   UNL     1      -0.598  -2.529   1.316  0.00  0.00    +0.137 C 
ATOM     11  C   UNL     1       0.806  -1.917   1.250  0.00  0.00    +0.133 C 
ATOM     12  O   UNL     1       0.698  -0.493   1.171  0.00  0.00    -0.371 OA
ATOM     13  C   UNL     1       1.591  -2.301   2.506  0.00  0.00    +0.039 C 
ATOM     14  C   UNL     1      -2.091  -2.844  -0.652  0.00  0.00    +0.099 A 
ATOM     15  C   UNL     1      -2.927  -2.308  -1.627  0.00  0.00    +0.042 A 
ATOM     16  C   UNL     1      -3.619  -3.164  -2.464  0.00  0.00    +0.010 A 
ATOM     17  C   UNL     1      -3.451  -4.533  -2.299  0.00  0.00    -0.014 A 
ATOM     18  C   UNL     1      -2.604  -4.995  -1.311  0.00  0.00    +0.089 A 
ATOM     19  N   UNL     1      -1.953  -4.155  -0.530  0.00  0.00    -0.349 N 
ATOM     20  H   UNL     1      -1.361  -4.507   0.154  0.00  0.00    +0.167 HD
ENDBRANCH   5  17
ENDBRANCH   1   5
BRANCH   2  21
ATOM     21  C   UNL     1      -2.989  -6.946  -6.526  0.00  0.00    +0.170 C 
BRANCH  21  22
ATOM     22  S   UNL     1      -3.872  -8.114  -7.596  0.00  0.00    -0.114 S 
BRANCH  22  23
ATOM     23  C   UNL     1      -2.776  -8.361  -8.953  0.00  0.00    +0.039 A 
ATOM     24  C   UNL     1      -1.550  -7.708  -8.986  0.00  0.00    +0.017 A 
ATOM     25  C   UNL     1      -0.694  -7.905 -10.052  0.00  0.00    +0.013 A 
ATOM     26  C   UNL     1      -1.055  -8.750 -11.085  0.00  0.00    +0.057 A 
ATOM     27  C   UNL     1      -2.274  -9.402 -11.055  0.00  0.00    +0.046 A 
ATOM     28  C   UNL     1      -3.133  -9.215  -9.990  0.00  0.00    +0.140 A 
BRANCH  26  29
ATOM     29  C   UNL     1      -0.118  -8.962 -12.246  0.00  0.00    +0.417 C 
ATOM     30  F   UNL     1       1.042  -8.203 -12.053  0.00  0.00    -0.166 F 
ATOM     31  F   UNL     1       0.220 -10.316 -12.332  0.00  0.00    -0.166 F 
ATOM     32  F   UNL     1      -0.745  -8.561 -13.431  0.00  0.00    -0.166 F 
ENDBRANCH  26  29
BRANCH  28  33
ATOM     33  N   UNL     1      -4.435  -9.918  -9.956  0.00  0.00    +0.058 N 
ATOM     34  O   UNL     1      -4.745 -10.660 -10.859  0.00  0.00    -0.126 OA
ATOM     35  O   UNL     1      -5.189  -9.749  -9.026  0.00  0.00    -0.126 OA
ENDBRANCH  28  33
ENDBRANCH  22  23
ENDBRANCH  21  22
ENDBRANCH   2  21
TORSDOF 7
