REMARK  Name = ZINC01948069
REMARK  4 active torsions:
REMARK  status: ('A' for Active; 'I' for Inactive)
REMARK    1  A    between atoms: C_1  and  C_2
REMARK    2  A    between atoms: C_3  and  C_8
REMARK    3  A    between atoms: N_10  and  N_11
REMARK    4  A    between atoms: C_12  and  C_13
REMARK                            x       y       z     vdW  Elec       q    Type
REMARK                         _______ _______ _______ _____ _____    ______ ____
ROOT
ATOM      1  C   UNL     1       5.969   1.761  -0.043  0.00  0.00    +0.272 C 
ATOM      2  O   UNL     1       5.948   2.978  -0.038  0.00  0.00    -0.268 OA
ATOM      3  N   UNL     1       4.814   1.067  -0.036  0.00  0.00    -0.202 N 
ATOM      4  H   UNL     1       4.831   0.097  -0.041  0.00  0.00    +0.178 HD
ENDROOT
BRANCH   1   7
ATOM      5  C   UNL     1       8.798   3.041  -0.077  0.00  0.00    +0.067 C 
ATOM      6  C   UNL     1       8.541   1.556  -0.074  0.00  0.00    +0.060 A 
ATOM      7  C   UNL     1       7.248   1.052  -0.059  0.00  0.00    +0.100 A 
ATOM      8  S   UNL     1       7.580  -0.704  -0.070  0.00  0.00    -0.048 S 
ATOM      9  C   UNL     1       9.313  -0.608  -0.085  0.00  0.00    +0.156 A 
ATOM     10  N   UNL     1       9.529   0.700  -0.081  0.00  0.00    -0.230 NA
ATOM     11  N   UNL     1      10.234  -1.633  -0.099  0.00  0.00    -0.337 N 
ATOM     12  H   UNL     1       9.933  -2.555  -0.101  0.00  0.00    +0.144 HD
ATOM     13  H   UNL     1      11.183  -1.433  -0.107  0.00  0.00    +0.144 HD
ENDBRANCH   1   7
BRANCH   3  14
ATOM     14  N   UNL     1       3.589   1.746  -0.022  0.00  0.00    -0.187 NA
ATOM     15  C   UNL     1       2.476   1.077  -0.015  0.00  0.00    +0.138 C 
BRANCH  15  16
ATOM     16  C   UNL     1       1.187   1.792   0.000  0.00  0.00    -0.005 A 
ATOM     17  C   UNL     1      -0.013   1.076   0.008  0.00  0.00    +0.010 A 
ATOM     18  C   UNL     1      -1.215   1.751   0.017  0.00  0.00    +0.016 A 
ATOM     19  C   UNL     1      -1.236   3.135   0.030  0.00  0.00    +0.018 A 
ATOM     20  C   UNL     1      -0.051   3.851   0.022  0.00  0.00    +0.016 A 
ATOM     21  C   UNL     1       1.159   3.189   0.008  0.00  0.00    +0.010 A 
ATOM     22 BR   UNL     1      -2.890   4.052   0.049  0.00  0.00    -0.050 Br
ENDBRANCH  15  16
ENDBRANCH   3  14
TORSDOF 3
