REMARK  Name = ZINC24280180
REMARK  9 active torsions:
REMARK  status: ('A' for Active; 'I' for Inactive)
REMARK    1  A    between atoms: C_1  and  C_2
REMARK    2  A    between atoms: C_2  and  C_26
REMARK    3  A    between atoms: N_5  and  C_9
REMARK    4  A    between atoms: C_9  and  N_10
REMARK    5  A    between atoms: C_15  and  C_17
REMARK    6  A    between atoms: C_29  and  C_32
REMARK    7  A    between atoms: C_32  and  C_33
REMARK    8  A    between atoms: C_32  and  C_34
REMARK    9  A    between atoms: C_32  and  C_35
REMARK                            x       y       z     vdW  Elec       q    Type
REMARK                         _______ _______ _______ _____ _____    ______ ____
ROOT
ATOM      1  C   UNL     1      -2.792   2.363   5.691  0.00  0.00    +0.047 C 
ATOM      2  C   UNL     1      -3.554   1.619   4.591  0.00  0.00    +0.135 C 
ATOM      3  C   UNL     1      -3.176   2.155   3.225  0.00  0.00    +0.252 C 
ATOM      4  O   UNL     1      -3.331   3.284   2.812  0.00  0.00    -0.272 OA
ATOM      5  N   UNL     1      -2.631   1.114   2.564  0.00  0.00    -0.210 N 
ATOM      6  C   UNL     1      -2.616   0.006   3.314  0.00  0.00    +0.311 C 
ATOM      7  O   UNL     1      -2.177  -1.061   2.934  0.00  0.00    -0.252 OA
ATOM      8  N   UNL     1      -3.139   0.207   4.537  0.00  0.00    -0.281 N 
ATOM      9  H   UNL     1      -3.290  -0.445   5.411  0.00  0.00    +0.152 HD
ENDROOT
BRANCH   2  10
ATOM     10  C   UNL     1      -5.041   1.727   4.810  0.00  0.00    -0.015 A 
ATOM     11  C   UNL     1      -5.757   2.744   4.207  0.00  0.00    +0.006 A 
ATOM     12  C   UNL     1      -7.122   2.841   4.404  0.00  0.00    +0.004 A 
ATOM     13  C   UNL     1      -7.769   1.925   5.212  0.00  0.00    -0.042 A 
ATOM     14  C   UNL     1      -7.053   0.910   5.819  0.00  0.00    +0.004 A 
ATOM     15  C   UNL     1      -5.689   0.812   5.618  0.00  0.00    +0.006 A 
BRANCH  13  16
ATOM     16  C   UNL     1      -9.257   2.033   5.430  0.00  0.00    -0.013 C 
ATOM     17  C   UNL     1      -9.541   2.221   6.922  0.00  0.00    +0.015 C 
ATOM     18  C   UNL     1      -9.801   3.232   4.652  0.00  0.00    +0.015 C 
ATOM     19  C   UNL     1      -9.938   0.754   4.939  0.00  0.00    +0.015 C 
ENDBRANCH  13  16
ENDBRANCH   2  10
BRANCH   5  20
ATOM     20  C   UNL     1      -2.122   1.186   1.192  0.00  0.00    +0.205 C 
BRANCH  20  21
ATOM     21  N   UNL     1      -0.701   1.559   1.216  0.00  0.00    -0.277 NA
ATOM     22  C   UNL     1      -0.046   1.059   2.431  0.00  0.00    +0.086 C 
ATOM     23  C   UNL     1       1.389   1.588   2.492  0.00  0.00    +0.015 C 
ATOM     24  C   UNL     1       2.153   1.123   1.250  0.00  0.00    +0.003 C 
ATOM     25  C   UNL     1       1.423   1.615  -0.003  0.00  0.00    +0.026 C 
ATOM     26  C   UNL     1      -0.013   1.086   0.008  0.00  0.00    +0.114 C 
BRANCH  26  27
ATOM     27  C   UNL     1      -0.741   1.585  -1.213  0.00  0.00    +0.097 A 
ATOM     28  N   UNL     1      -1.058   0.925  -2.291  0.00  0.00    -0.242 NA
ATOM     29  C   UNL     1      -1.717   1.494  -3.322  0.00  0.00    +0.079 A 
ATOM     30  C   UNL     1      -2.128   0.917  -4.544  0.00  0.00    +0.029 A 
ATOM     31  C   UNL     1      -2.789   1.657  -5.475  0.00  0.00    +0.002 A 
ATOM     32  C   UNL     1      -3.085   2.996  -5.263  0.00  0.00    +0.001 A 
ATOM     33  C   UNL     1      -2.700   3.598  -4.080  0.00  0.00    +0.017 A 
ATOM     34  C   UNL     1      -2.032   2.859  -3.134  0.00  0.00    +0.039 A 
ATOM     35  S   UNL     1      -1.366   3.175  -1.519  0.00  0.00    -0.071 S 
ENDBRANCH  26  27
ENDBRANCH  20  21
ENDBRANCH   5  20
TORSDOF 5
