REMARK  Name = ZINC13643010
REMARK  5 active torsions:
REMARK  status: ('A' for Active; 'I' for Inactive)
REMARK    1  A    between atoms: C_3  and  C_6
REMARK    2  A    between atoms: C_8  and  C_29
REMARK    3  A    between atoms: C_13  and  C_24
REMARK    4  A    between atoms: C_13  and  O_28
REMARK    5  A    between atoms: C_15  and  C_17
REMARK                            x       y       z     vdW  Elec       q    Type
REMARK                         _______ _______ _______ _____ _____    ______ ____
ROOT
ATOM      1  C   UNL     1      -3.912  -3.940   1.337  0.00  0.00    +0.112 A 
ATOM      2  C   UNL     1      -4.053  -4.666   0.147  0.00  0.00    +0.064 A 
ATOM      3  C   UNL     1      -4.072  -3.973  -1.048  0.00  0.00    +0.149 A 
ATOM      4  N   UNL     1      -3.963  -2.653  -1.034  0.00  0.00    -0.209 NA
ATOM      5  C   UNL     1      -3.826  -1.990   0.106  0.00  0.00    +0.242 A 
ATOM      6  N   UNL     1      -3.802  -2.613   1.274  0.00  0.00    -0.210 NA
ATOM      7  N   UNL     1      -3.709  -0.611   0.074  0.00  0.00    -0.152 N 
ATOM      8  C   UNL     1      -4.826   0.340  -0.040  0.00  0.00    +0.240 C 
ATOM      9  C   UNL     1      -4.133   1.716  -0.021  0.00  0.00    +0.122 C 
ATOM     10  C   UNL     1      -2.663   1.382   0.096  0.00  0.00    +0.071 C 
ATOM     11  N   UNL     1      -2.515   0.103   0.145  0.00  0.00    -0.178 NA
ENDROOT
BRANCH  10  12
ATOM     12  C   UNL     1      -1.568   2.368   0.151  0.00  0.00    -0.002 A 
ATOM     13  C   UNL     1      -0.243   1.939   0.265  0.00  0.00    +0.012 A 
ATOM     14  C   UNL     1       0.777   2.866   0.310  0.00  0.00    +0.039 A 
ATOM     15  C   UNL     1       0.490   4.220   0.249  0.00  0.00    +0.123 A 
ATOM     16  C   UNL     1      -0.823   4.652   0.141  0.00  0.00    +0.039 A 
ATOM     17  C   UNL     1      -1.851   3.735   0.095  0.00  0.00    +0.012 A 
ATOM     18  F   UNL     1       1.494   5.124   0.294  0.00  0.00    -0.205 F 
ENDBRANCH  10  12
BRANCH   1  21
ATOM     19  C   UNL     1      -3.780  -5.071   4.815  0.00  0.00    +0.042 A 
ATOM     20  C   UNL     1      -3.749  -4.040   3.857  0.00  0.00    +0.051 A 
ATOM     21  C   UNL     1      -3.886  -4.633   2.640  0.00  0.00    +0.153 A 
ATOM     22  O   UNL     1      -3.987  -5.963   2.830  0.00  0.00    -0.461 OA
ATOM     23  C   UNL     1      -3.923  -6.232   4.143  0.00  0.00    +0.196 A 
ENDBRANCH   1  21
BRANCH   8  24
ATOM     24  C   UNL     1      -5.774   0.203   1.154  0.00  0.00    +0.369 C 
ATOM     25  F   UNL     1      -5.047   0.330   2.342  0.00  0.00    -0.182 F 
ATOM     26  F   UNL     1      -6.747   1.206   1.094  0.00  0.00    -0.182 F 
ATOM     27 CL   UNL     1      -6.572  -1.413   1.106  0.00  0.00    -0.043 Cl
ENDBRANCH   8  24
BRANCH   3  28
ATOM     28  C   UNL     1      -4.222  -4.711  -2.353  0.00  0.00    +0.434 C 
ATOM     29  F   UNL     1      -5.580  -4.826  -2.671  0.00  0.00    -0.164 F 
ATOM     30  F   UNL     1      -3.565  -4.004  -3.366  0.00  0.00    -0.164 F 
ATOM     31  F   UNL     1      -3.661  -5.987  -2.235  0.00  0.00    -0.164 F 
ENDBRANCH   3  28
BRANCH   8  32
ATOM     32  O   UNL     1      -5.533   0.141  -1.266  0.00  0.00    -0.364 OA
ATOM     33  H   UNL     1      -5.932  -0.736  -1.352  0.00  0.00    +0.212 HD
ENDBRANCH   8  32
TORSDOF 5
