REMARK  Name = ZINC08917737
REMARK  1 active torsions:
REMARK  status: ('A' for Active; 'I' for Inactive)
REMARK    1  A    between atoms: C_6  and  N_7
REMARK                            x       y       z     vdW  Elec       q    Type
REMARK                         _______ _______ _______ _____ _____    ______ ____
ROOT
ATOM      1  N   UNL     1       2.451   6.290  -1.350  0.00  0.00    -0.210 N 
ATOM      2  C   UNL     1       2.044   7.435  -0.789  0.00  0.00    +0.228 C 
ATOM      3  O   UNL     1       2.769   8.344  -0.448  0.00  0.00    -0.275 OA
ATOM      4  C   UNL     1       0.539   7.417  -0.647  0.00  0.00    +0.074 C 
ATOM      5  C   UNL     1       0.165   7.348   0.845  0.00  0.00    -0.054 C 
ATOM      6  C   UNL     1       1.322   7.912   1.688  0.00  0.00    -0.016 C 
ATOM      7  C   UNL     1       2.212   6.702   2.031  0.00  0.00    -0.020 C 
ATOM      8  C   UNL     1       1.539   5.498   1.340  0.00  0.00    -0.076 C 
ATOM      9  C   UNL     1      -0.433   5.259  -0.039  0.00  0.00    +0.053 C 
ATOM     10  C   UNL     1       0.141   6.033  -1.231  0.00  0.00    +0.089 C 
ATOM     11  C   UNL     1       1.466   5.432  -1.640  0.00  0.00    +0.229 C 
ATOM     12  O   UNL     1       1.614   4.343  -2.150  0.00  0.00    -0.275 OA
ATOM     13  C   UNL     1      -0.076   3.800  -0.110  0.00  0.00    -0.026 A 
ATOM     14  C   UNL     1       1.120   3.119  -0.143  0.00  0.00    +0.019 A 
ATOM     15  C   UNL     1       1.128   1.737  -0.211  0.00  0.00    +0.018 A 
ATOM     16  C   UNL     1      -0.069   1.043  -0.245  0.00  0.00    +0.017 A 
ATOM     17  C   UNL     1      -1.269   1.722  -0.217  0.00  0.00    +0.024 A 
ATOM     18  C   UNL     1      -1.285   3.113  -0.144  0.00  0.00    +0.036 A 
ATOM     19  N   UNL     1      -2.354   4.012  -0.100  0.00  0.00    -0.286 N 
ATOM     20  C   UNL     1      -1.938   5.292  -0.037  0.00  0.00    +0.212 C 
ATOM     21  O   UNL     1      -2.640   6.279   0.011  0.00  0.00    -0.277 OA
ATOM     22 BR   UNL     1       2.770   0.799  -0.257  0.00  0.00    -0.050 Br
ATOM     23  H   UNL     1      -3.286   3.746  -0.113  0.00  0.00    +0.155 HD
ATOM     24  N   UNL     1       0.142   5.931   1.130  0.00  0.00    +0.395 N 
ATOM     25  H   UNL     1      -0.421   5.734   1.966  0.00  0.00    -0.079 HD
ENDROOT
BRANCH   1  31
ATOM     26  C   UNL     1       4.485   6.739  -2.577  0.00  0.00    +0.028 A 
ATOM     27  C   UNL     1       5.814   6.465  -2.838  0.00  0.00    +0.051 A 
ATOM     28  C   UNL     1       6.469   5.464  -2.136  0.00  0.00    +0.162 A 
ATOM     29  C   UNL     1       5.788   4.736  -1.168  0.00  0.00    +0.164 A 
ATOM     30  C   UNL     1       4.456   5.014  -0.904  0.00  0.00    +0.073 A 
ATOM     31  C   UNL     1       3.802   6.012  -1.613  0.00  0.00    +0.048 A 
ATOM     32  O   UNL     1       6.415   3.753  -0.466  0.00  0.00    -0.485 OA
ATOM     33  C   UNL     1       7.640   3.253  -1.012  0.00  0.00    +0.270 C 
ATOM     34  C   UNL     1       8.503   4.452  -1.431  0.00  0.00    +0.270 C 
ATOM     35  O   UNL     1       7.778   5.205  -2.409  0.00  0.00    -0.485 OA
ENDBRANCH   1  31
TORSDOF 1
