REMARK  Name = ZINC06587670
REMARK  6 active torsions:
REMARK  status: ('A' for Active; 'I' for Inactive)
REMARK    1  A    between atoms: C_1  and  C_2
REMARK    2  A    between atoms: C_6  and  C_15
REMARK    3  A    between atoms: C_10  and  C_11
REMARK    4  A    between atoms: C_11  and  O_13
REMARK    5  A    between atoms: O_13  and  C_14
REMARK    6  A    between atoms: N_16  and  C_17
REMARK                            x       y       z     vdW  Elec       q    Type
REMARK                         _______ _______ _______ _____ _____    ______ ____
ROOT
ATOM      1  C   UNL     1       3.359   3.319  -0.947  0.00  0.00    +0.046 C 
ATOM      2  C   UNL     1       4.256   2.424  -0.131  0.00  0.00    -0.017 A 
ATOM      3  C   UNL     1       3.741   1.261   0.456  0.00  0.00    +0.051 A 
ATOM      4  C   UNL     1       2.410   0.746   0.422  0.00  0.00    +0.131 A 
ATOM      5  N   UNL     1       2.139  -0.380   1.061  0.00  0.00    -0.217 NA
ATOM      6  C   UNL     1       3.057  -1.047   1.738  0.00  0.00    +0.129 A 
ATOM      7  N   UNL     1       4.303  -0.620   1.812  0.00  0.00    -0.225 NA
ATOM      8  C   UNL     1       4.665   0.492   1.206  0.00  0.00    +0.115 A 
ATOM      9  S   UNL     1       6.178   1.404   1.047  0.00  0.00    -0.062 S 
ATOM     10  C   UNL     1       5.571   2.740   0.032  0.00  0.00    +0.102 A 
ATOM     11  C   UNL     1       2.672  -2.323   2.441  0.00  0.00    +0.088 C 
ATOM     12  N   UNL     1       1.421   1.411  -0.273  0.00  0.00    -0.326 N 
ATOM     13  H   UNL     1       1.645   2.178  -0.821  0.00  0.00    +0.148 HD
ENDROOT
BRANCH  12  14
ATOM     14  C   UNL     1       0.031   0.957  -0.182  0.00  0.00    +0.072 C 
ATOM     15  C   UNL     1      -0.623   1.568   1.027  0.00  0.00    +0.022 C 
ATOM     16  C   UNL     1      -1.659   0.626   1.675  0.00  0.00    +0.002 C 
ATOM     17  C   UNL     1      -2.528  -0.113   0.640  0.00  0.00    +0.000 C 
ATOM     18  C   UNL     1      -2.961   0.780  -0.491  0.00  0.00    +0.000 C 
ATOM     19  C   UNL     1      -1.955   0.625  -1.650  0.00  0.00    +0.002 C 
ATOM     20  C   UNL     1      -0.743   1.403  -1.440  0.00  0.00    +0.022 C 
ENDBRANCH  12  14
BRANCH  10  21
ATOM     21  C   UNL     1       6.305   3.894  -0.496  0.00  0.00    +0.346 C 
ATOM     22  O   UNL     1       5.731   4.720  -1.179  0.00  0.00    -0.244 OA
BRANCH  21  23
ATOM     23  O   UNL     1       7.619   4.039  -0.224  0.00  0.00    -0.464 OA
ATOM     24  C   UNL     1       8.282   5.206  -0.779  0.00  0.00    +0.280 C 
ENDBRANCH  21  23
ENDBRANCH  10  21
TORSDOF 3
