REMARK  Name = ZINC02870709
REMARK  13 active torsions:
REMARK  status: ('A' for Active; 'I' for Inactive)
REMARK    1  A    between atoms: C_1  and  C_2
REMARK    2  A    between atoms: C_2  and  O_3
REMARK    3  A    between atoms: O_3  and  C_4
REMARK    4  A    between atoms: C_6  and  C_19
REMARK    5  A    between atoms: C_9  and  O_10
REMARK    6  A    between atoms: O_10  and  C_11
REMARK    7  A    between atoms: C_11  and  C_12
REMARK    8  A    between atoms: C_19  and  N_58
REMARK    9  A    between atoms: C_20  and  C_21
REMARK   10  A    between atoms: C_20  and  N_58
REMARK   11  A    between atoms: C_21  and  C_22
REMARK   12  A    between atoms: C_25  and  S_28
REMARK   13  A    between atoms: S_28  and  N_31
REMARK                            x       y       z     vdW  Elec       q    Type
REMARK                         _______ _______ _______ _____ _____    ______ ____
ROOT
ATOM      1  C   UNL     1       6.477  -0.875  -1.691  0.00  0.00    +0.164 A 
ATOM      2  C   UNL     1       7.673  -1.550  -1.883  0.00  0.00    +0.051 A 
ATOM      3  C   UNL     1       7.681  -2.928  -1.981  0.00  0.00    -0.059 A 
ATOM      4  C   UNL     1       6.499  -3.639  -1.882  0.00  0.00    +0.025 A 
ATOM      5  C   UNL     1       5.303  -2.972  -1.685  0.00  0.00    +0.086 A 
ATOM      6  C   UNL     1       5.288  -1.589  -1.586  0.00  0.00    +0.181 A 
ATOM      7 CL   UNL     1       3.820  -3.867  -1.561  0.00  0.00    -0.080 Cl
ENDROOT
BRANCH   1   8
ATOM      8  O   UNL     1       6.467   0.482  -1.601  0.00  0.00    -0.489 OA
BRANCH   8  10
ATOM      9  C   UNL     1       7.516   2.659  -1.591  0.00  0.00    +0.048 C 
ATOM     10  C   UNL     1       7.726   1.149  -1.718  0.00  0.00    +0.226 C 
ENDBRANCH   8  10
ENDBRANCH   1   8
BRANCH   6  11
ATOM     11  O   UNL     1       4.113  -0.932  -1.392  0.00  0.00    -0.482 OA
BRANCH  11  12
ATOM     12  C   UNL     1       3.711  -0.707  -0.039  0.00  0.00    +0.264 C 
BRANCH  12  13
ATOM     13  C   UNL     1       2.396   0.029  -0.022  0.00  0.00    -0.010 A 
ATOM     14  C   UNL     1       1.208  -0.679  -0.014  0.00  0.00    +0.007 A 
ATOM     15  C   UNL     1       0.002  -0.004   0.002  0.00  0.00    +0.000 A 
ATOM     16  C   UNL     1      -0.017   1.378   0.010  0.00  0.00    +0.000 A 
ATOM     17  C   UNL     1       1.171   2.086   0.002  0.00  0.00    +0.000 A 
ATOM     18  C   UNL     1       2.377   1.411  -0.014  0.00  0.00    +0.007 A 
ENDBRANCH  12  13
ENDBRANCH  11  12
ENDBRANCH   6  11
BRANCH   3  19
ATOM     19  C   UNL     1       8.981  -3.659  -2.196  0.00  0.00    -0.047 C 
BRANCH  19  20
ATOM     20  N   UNL     1       9.224  -3.796  -3.645  0.00  0.00    +0.382 N 
ATOM     21  H   UNL     1       9.274  -2.863  -4.070  0.00  0.00    -0.085 HD
ATOM     22  H   UNL     1       8.453  -4.325  -4.069  0.00  0.00    -0.085 HD
BRANCH  20  23
ATOM     23  C   UNL     1      10.493  -4.510  -3.886  0.00  0.00    -0.077 C 
BRANCH  23  24
ATOM     24  C   UNL     1      10.718  -4.637  -5.394  0.00  0.00    +0.016 C 
BRANCH  24  25
ATOM     25  C   UNL     1      12.013  -5.364  -5.649  0.00  0.00    -0.049 A 
ATOM     26  C   UNL     1      13.192  -4.654  -5.772  0.00  0.00    +0.005 A 
ATOM     27  C   UNL     1      14.381  -5.322  -6.002  0.00  0.00    +0.029 A 
ATOM     28  C   UNL     1      14.388  -6.699  -6.117  0.00  0.00    +0.105 A 
ATOM     29  C   UNL     1      13.208  -7.409  -5.999  0.00  0.00    +0.029 A 
ATOM     30  C   UNL     1      12.020  -6.742  -5.765  0.00  0.00    +0.005 A 
BRANCH  28  31
ATOM     31  S   UNL     1      15.902  -7.550  -6.414  0.00  0.00    +0.056 S 
ATOM     32  O   UNL     1      16.942  -6.705  -5.941  0.00  0.00    -0.153 OA
ATOM     33  O   UNL     1      15.723  -8.877  -5.938  0.00  0.00    -0.153 OA
BRANCH  31  34
ATOM     34  N   UNL     1      16.090  -7.658  -8.056  0.00  0.00    -0.204 NA
ATOM     35  H   UNL     1      15.418  -7.281  -8.646  0.00  0.00    +0.144 HD
ATOM     36  H   UNL     1      16.871  -8.097  -8.427  0.00  0.00    +0.144 HD
ENDBRANCH  31  34
ENDBRANCH  28  31
ENDBRANCH  24  25
ENDBRANCH  23  24
ENDBRANCH  20  23
ENDBRANCH  19  20
ENDBRANCH   3  19
TORSDOF 12
