REMARK  Name = ZINC09802246
REMARK  10 active torsions:
REMARK  status: ('A' for Active; 'I' for Inactive)
REMARK    1  A    between atoms: C_1  and  C_2
REMARK    2  A    between atoms: C_7  and  N_8
REMARK    3  A    between atoms: C_9  and  C_27
REMARK    4  A    between atoms: C_12  and  S_13
REMARK    5  A    between atoms: S_13  and  C_14
REMARK    6  A    between atoms: C_14  and  C_15
REMARK    7  A    between atoms: N_17  and  C_18
REMARK    8  A    between atoms: C_22  and  C_23
REMARK    9  A    between atoms: C_23  and  O_25
REMARK   10  A    between atoms: O_25  and  C_26
REMARK                            x       y       z     vdW  Elec       q    Type
REMARK                         _______ _______ _______ _____ _____    ______ ____
ROOT
ATOM      1  N   UNL     1       0.090   1.204   4.088  0.00  0.00    -0.270 N 
ATOM      2  C   UNL     1       1.128   0.492   4.647  0.00  0.00    +0.171 A 
ATOM      3  N   UNL     1       1.823  -0.018   3.656  0.00  0.00    -0.128 NA
ATOM      4  N   UNL     1       1.296   0.316   2.533  0.00  0.00    -0.122 NA
ATOM      5  C   UNL     1       0.232   1.060   2.735  0.00  0.00    +0.197 A 
ENDROOT
BRANCH   1  12
ATOM      6  C   UNL     1       0.577   3.945   4.679  0.00  0.00    +0.046 C 
ATOM      7  C   UNL     1      -0.708   3.263   5.072  0.00  0.00    -0.026 A 
ATOM      8  C   UNL     1      -1.693   3.970   5.733  0.00  0.00    +0.005 A 
ATOM      9  C   UNL     1      -2.870   3.343   6.099  0.00  0.00    +0.000 A 
ATOM     10  C   UNL     1      -3.067   2.007   5.799  0.00  0.00    +0.002 A 
ATOM     11  C   UNL     1      -2.088   1.296   5.133  0.00  0.00    +0.026 A 
ATOM     12  C   UNL     1      -0.905   1.923   4.764  0.00  0.00    +0.053 A 
ENDBRANCH   1  12
BRANCH   2  13
ATOM     13  C   UNL     1       1.411   0.336   6.089  0.00  0.00    +0.038 A 
ATOM     14  C   UNL     1       2.656  -0.136   6.524  0.00  0.00    +0.014 A 
ATOM     15  C   UNL     1       2.869  -0.263   7.885  0.00  0.00    +0.020 A 
ATOM     16  C   UNL     1       1.857   0.076   8.764  0.00  0.00    +0.111 A 
ATOM     17  N   UNL     1       0.694   0.518   8.326  0.00  0.00    -0.263 NA
ATOM     18  C   UNL     1       0.444   0.662   7.041  0.00  0.00    +0.122 A 
ENDBRANCH   2  13
BRANCH   5  19
ATOM     19  S   UNL     1      -0.813   1.750   1.495  0.00  0.00    -0.076 S 
BRANCH  19  20
ATOM     20  C   UNL     1       0.014   1.133   0.008  0.00  0.00    +0.173 C 
BRANCH  20  21
ATOM     21  C   UNL     1      -0.726   1.611  -1.214  0.00  0.00    +0.228 C 
ATOM     22  O   UNL     1      -1.715   2.302  -1.092  0.00  0.00    -0.275 OA
ATOM     23  N   UNL     1      -0.288   1.272  -2.443  0.00  0.00    -0.284 N 
ATOM     24  H   UNL     1       0.535   0.769  -2.543  0.00  0.00    +0.155 HD
BRANCH  23  25
ATOM     25  C   UNL     1      -1.019   1.645  -3.571  0.00  0.00    +0.055 A 
ATOM     26  C   UNL     1      -1.727   2.828  -3.616  0.00  0.00    +0.032 A 
ATOM     27  C   UNL     1      -2.417   3.145  -4.740  0.00  0.00    +0.048 A 
ATOM     28  S   UNL     1      -2.122   1.796  -5.787  0.00  0.00    -0.088 S 
ATOM     29  C   UNL     1      -1.075   0.837  -4.707  0.00  0.00    +0.117 A 
BRANCH  29  30
ATOM     30  C   UNL     1      -0.461  -0.416  -4.941  0.00  0.00    +0.347 C 
ATOM     31  O   UNL     1       0.229  -0.926  -4.077  0.00  0.00    -0.244 OA
BRANCH  30  32
ATOM     32  O   UNL     1      -0.640  -1.045  -6.121  0.00  0.00    -0.464 OA
ATOM     33  C   UNL     1       0.009  -2.307  -6.289  0.00  0.00    +0.280 C 
ENDBRANCH  30  32
ENDBRANCH  29  30
ENDBRANCH  23  25
ENDBRANCH  20  21
ENDBRANCH  19  20
ENDBRANCH   5  19
TORSDOF 8
