REMARK  Name = ZINC63488603
REMARK  6 active torsions:
REMARK  status: ('A' for Active; 'I' for Inactive)
REMARK    1  A    between atoms: C_1  and  C_2
REMARK    2  A    between atoms: C_2  and  C_3
REMARK    3  A    between atoms: C_2  and  N_15
REMARK    4  A    between atoms: C_7  and  C_9
REMARK    5  A    between atoms: C_16  and  C_18
REMARK    6  A    between atoms: C_24  and  N_28
REMARK                            x       y       z     vdW  Elec       q    Type
REMARK                         _______ _______ _______ _____ _____    ______ ____
ROOT
ATOM      1  N   UNL     1      -1.372  -0.511   0.012  0.00  0.00    -0.301 N 
ATOM      2  C   UNL     1      -2.051  -0.643  -1.145  0.00  0.00    +0.261 C 
ATOM      3  O   UNL     1      -1.522  -0.340  -2.198  0.00  0.00    -0.269 OA
ATOM      4  H   UNL     1      -1.794  -0.752   0.852  0.00  0.00    +0.150 HD
ENDROOT
BRANCH   2   5
ATOM      5  C   UNL     1      -3.430  -1.152  -1.134  0.00  0.00    +0.103 A 
ATOM      6  C   UNL     1      -4.211  -1.333  -2.231  0.00  0.00    +0.041 A 
ATOM      7  C   UNL     1      -5.460  -1.836  -1.793  0.00  0.00    +0.003 A 
ATOM      8  C   UNL     1      -6.637  -2.204  -2.459  0.00  0.00    +0.010 A 
ATOM      9  C   UNL     1      -7.704  -2.666  -1.746  0.00  0.00    +0.003 A 
ATOM     10  C   UNL     1      -7.637  -2.775  -0.362  0.00  0.00    +0.035 A 
ATOM     11  C   UNL     1      -6.493  -2.419   0.315  0.00  0.00    +0.150 A 
ATOM     12  C   UNL     1      -5.390  -1.945  -0.390  0.00  0.00    +0.078 A 
ATOM     13  N   UNL     1      -4.137  -1.527  -0.008  0.00  0.00    -0.349 N 
ATOM     14  H   UNL     1      -3.805  -1.498   0.903  0.00  0.00    +0.166 HD
BRANCH  11  15
ATOM     15  N   UNL     1      -6.434  -2.540   1.789  0.00  0.00    +0.058 N 
ATOM     16  O   UNL     1      -7.393  -2.953   2.400  0.00  0.00    -0.126 OA
ATOM     17  O   UNL     1      -5.428  -2.227   2.382  0.00  0.00    -0.126 OA
ENDBRANCH  11  15
ENDBRANCH   2   5
BRANCH   1  19
ATOM     18  C   UNL     1      -0.019   1.526   0.010  0.00  0.00    +0.036 C 
ATOM     19  C   UNL     1       0.002  -0.004   0.002  0.00  0.00    +0.134 C 
BRANCH  19  20
ATOM     20  C   UNL     1       0.731  -0.503   1.223  0.00  0.00    +0.105 A 
ATOM     21  N   UNL     1       0.162  -0.785   2.416  0.00  0.00    -0.348 N 
ATOM     22  H   UNL     1      -0.779  -0.703   2.637  0.00  0.00    +0.167 HD
ATOM     23  C   UNL     1       1.156  -1.207   3.254  0.00  0.00    +0.110 A 
ATOM     24  C   UNL     1       2.311  -1.169   2.539  0.00  0.00    +0.064 A 
ATOM     25  N   UNL     1       2.011  -0.739   1.297  0.00  0.00    -0.342 N 
ATOM     26  H   UNL     1       2.647  -0.620   0.574  0.00  0.00    +0.167 HD
BRANCH  24  27
ATOM     27  C   UNL     1       3.659  -1.542   3.034  0.00  0.00    -0.000 A 
ATOM     28  C   UNL     1       4.764  -1.449   2.191  0.00  0.00    +0.010 A 
ATOM     29  C   UNL     1       6.016  -1.797   2.656  0.00  0.00    +0.001 A 
ATOM     30  C   UNL     1       6.175  -2.236   3.958  0.00  0.00    +0.000 A 
ATOM     31  C   UNL     1       5.081  -2.331   4.800  0.00  0.00    +0.001 A 
ATOM     32  C   UNL     1       3.826  -1.979   4.347  0.00  0.00    +0.010 A 
ENDBRANCH  24  27
ENDBRANCH  19  20
ENDBRANCH   1  19
TORSDOF 5
