REMARK  Name = ZINC25106034
REMARK  7 active torsions:
REMARK  status: ('A' for Active; 'I' for Inactive)
REMARK    1  A    between atoms: C_1  and  C_2
REMARK    2  A    between atoms: C_2  and  C_26
REMARK    3  A    between atoms: N_5  and  C_9
REMARK    4  A    between atoms: C_9  and  C_10
REMARK    5  A    between atoms: N_12  and  C_13
REMARK    6  A    between atoms: C_13  and  C_14
REMARK    7  A    between atoms: N_16  and  C_17
REMARK                            x       y       z     vdW  Elec       q    Type
REMARK                         _______ _______ _______ _____ _____    ______ ____
ROOT
ATOM      1  C   UNL     1       4.286  -4.747   0.459  0.00  0.00    +0.213 C 
ENDROOT
BRANCH   1   6
ATOM      2  C   UNL     1       7.546  -8.040  -0.313  0.00  0.00    +0.047 C 
ATOM      3  C   UNL     1       7.505  -6.558   0.062  0.00  0.00    +0.135 C 
ATOM      4  C   UNL     1       6.264  -5.901  -0.510  0.00  0.00    +0.251 C 
ATOM      5  O   UNL     1       5.963  -5.798  -1.679  0.00  0.00    -0.272 OA
ATOM      6  N   UNL     1       5.566  -5.454   0.553  0.00  0.00    -0.215 N 
ATOM      7  C   UNL     1       6.183  -5.740   1.705  0.00  0.00    +0.310 C 
ATOM      8  O   UNL     1       5.745  -5.442   2.798  0.00  0.00    -0.252 OA
ATOM      9  N   UNL     1       7.343  -6.395   1.517  0.00  0.00    -0.281 N 
ATOM     10  H   UNL     1       8.109  -6.787   2.203  0.00  0.00    +0.152 HD
BRANCH   3  11
ATOM     11  C   UNL     1       8.749  -5.854  -0.415  0.00  0.00    -0.015 A 
ATOM     12  C   UNL     1       8.794  -5.314  -1.687  0.00  0.00    +0.006 A 
ATOM     13  C   UNL     1       9.934  -4.665  -2.120  0.00  0.00    +0.004 A 
ATOM     14  C   UNL     1      11.036  -4.562  -1.288  0.00  0.00    -0.044 A 
ATOM     15  C   UNL     1      10.993  -5.107  -0.018  0.00  0.00    -0.044 A 
ATOM     16  C   UNL     1       9.848  -5.753   0.416  0.00  0.00    +0.010 A 
ATOM     17  C   UNL     1      12.310  -4.865   0.687  0.00  0.00    +0.036 C 
ATOM     18  C   UNL     1      12.999  -3.742  -0.117  0.00  0.00    +0.009 C 
ATOM     19  C   UNL     1      12.385  -3.917  -1.522  0.00  0.00    +0.036 C 
ENDBRANCH   3  11
ENDBRANCH   1   6
BRANCH   1  20
ATOM     20  C   UNL     1       4.537  -3.264   0.364  0.00  0.00    +0.231 C 
ATOM     21  O   UNL     1       5.673  -2.840   0.375  0.00  0.00    -0.274 OA
ATOM     22  N   UNL     1       3.499  -2.410   0.268  0.00  0.00    -0.305 N 
ATOM     23  H   UNL     1       2.468  -2.796   0.259  0.00  0.00    +0.149 HD
BRANCH  22  24
ATOM     24  C   UNL     1       3.742  -0.969   0.176  0.00  0.00    +0.200 C 
BRANCH  24  25
ATOM     25  C   UNL     1       2.426  -0.242   0.079  0.00  0.00    +0.234 C 
ATOM     26  O   UNL     1       1.386  -0.866   0.086  0.00  0.00    -0.274 OA
ATOM     27  N   UNL     1       2.404   1.103  -0.015  0.00  0.00    -0.282 N 
ATOM     28  H   UNL     1       3.345   1.663  -0.113  0.00  0.00    +0.155 HD
BRANCH  27  29
ATOM     29  C   UNL     1       1.181   1.787   0.012  0.00  0.00    +0.072 A 
ATOM     30  C   UNL     1       0.077   1.213   0.627  0.00  0.00    +0.029 A 
ATOM     31  C   UNL     1      -1.130   1.885   0.648  0.00  0.00    +0.043 A 
ATOM     32  C   UNL     1      -1.238   3.137   0.065  0.00  0.00    +0.161 A 
ATOM     33  C   UNL     1      -0.138   3.714  -0.551  0.00  0.00    +0.195 A 
ATOM     34  C   UNL     1       1.072   3.041  -0.579  0.00  0.00    +0.182 A 
ATOM     35  F   UNL     1       2.145   3.602  -1.178  0.00  0.00    -0.200 F 
ATOM     36  F   UNL     1      -0.246   4.932  -1.124  0.00  0.00    -0.199 F 
ATOM     37  F   UNL     1      -2.418   3.794   0.091  0.00  0.00    -0.202 F 
ENDBRANCH  27  29
ENDBRANCH  24  25
ENDBRANCH  22  24
ENDBRANCH   1  20
TORSDOF 6
