REMARK  Name = ZINC32668288
REMARK  14 active torsions:
REMARK  status: ('A' for Active; 'I' for Inactive)
REMARK    1  A    between atoms: C_1  and  C_2
REMARK    2  A    between atoms: C_2  and  C_3
REMARK    3  A    between atoms: C_2  and  C_4
REMARK    4  A    between atoms: C_4  and  N_5
REMARK    5  A    between atoms: N_14  and  C_34
REMARK    6  A    between atoms: C_15  and  C_17
REMARK    7  A    between atoms: C_20  and  O_25
REMARK    8  A    between atoms: C_21  and  O_23
REMARK    9  A    between atoms: O_23  and  C_24
REMARK   10  A    between atoms: O_25  and  C_26
REMARK   11  A    between atoms: C_26  and  C_27
REMARK   12  A    between atoms: C_34  and  C_35
REMARK   13  A    between atoms: C_35  and  O_36
REMARK   14  A    between atoms: O_36  and  C_37
REMARK                            x       y       z     vdW  Elec       q    Type
REMARK                         _______ _______ _______ _____ _____    ______ ____
ROOT
ATOM      1  N   UNL     1      -9.469   6.102   3.911  0.00  0.00    -0.276 N 
ATOM      2  C   UNL     1      -8.403   5.780   3.086  0.00  0.00    +0.169 A 
ATOM      3  C   UNL     1      -8.365   6.312   1.801  0.00  0.00    +0.152 A 
ATOM      4  C   UNL     1      -9.409   7.161   1.378  0.00  0.00    +0.280 A 
ATOM      5  O   UNL     1      -9.398   7.640   0.258  0.00  0.00    -0.265 OA
ATOM      6  N   UNL     1     -10.420   7.437   2.228  0.00  0.00    -0.273 N 
ATOM      7  H   UNL     1     -11.240   8.098   1.911  0.00  0.00    +0.173 HD
ATOM      8  C   UNL     1     -10.445   6.917   3.467  0.00  0.00    +0.331 A 
ATOM      9  O   UNL     1     -11.372   7.188   4.206  0.00  0.00    -0.246 OA
ATOM     10  N   UNL     1      -7.211   5.832   1.211  0.00  0.00    -0.316 N 
ATOM     11  C   UNL     1      -6.598   5.041   2.135  0.00  0.00    +0.144 A 
ATOM     12  N   UNL     1      -7.321   5.017   3.237  0.00  0.00    -0.209 NA
ENDROOT
BRANCH  11  13
ATOM     13  C   UNL     1      -5.326   4.317   1.931  0.00  0.00    +0.021 A 
ATOM     14  C   UNL     1      -4.879   4.040   0.637  0.00  0.00    +0.015 A 
ATOM     15  C   UNL     1      -3.689   3.369   0.449  0.00  0.00    +0.050 A 
ATOM     16  C   UNL     1      -2.939   2.959   1.542  0.00  0.00    +0.162 A 
ATOM     17  C   UNL     1      -3.380   3.232   2.835  0.00  0.00    +0.162 A 
ATOM     18  C   UNL     1      -4.569   3.909   3.031  0.00  0.00    +0.061 A 
BRANCH  17  19
ATOM     19  O   UNL     1      -2.640   2.834   3.905  0.00  0.00    -0.491 OA
ATOM     20  C   UNL     1      -3.152   3.148   5.201  0.00  0.00    +0.277 C 
ENDBRANCH  17  19
BRANCH  16  21
ATOM     21  O   UNL     1      -1.770   2.293   1.351  0.00  0.00    -0.484 OA
BRANCH  21  22
ATOM     22  C   UNL     1      -1.378   2.046  -0.001  0.00  0.00    +0.264 C 
BRANCH  22  23
ATOM     23  C   UNL     1      -0.066   1.304  -0.015  0.00  0.00    -0.010 A 
ATOM     24  C   UNL     1       1.124   2.006  -0.047  0.00  0.00    +0.010 A 
ATOM     25  C   UNL     1       2.328   1.326  -0.066  0.00  0.00    +0.039 A 
ATOM     26  C   UNL     1       2.340  -0.058  -0.053  0.00  0.00    +0.123 A 
ATOM     27  C   UNL     1       1.147  -0.760  -0.021  0.00  0.00    +0.039 A 
ATOM     28  C   UNL     1      -0.055  -0.079  -0.002  0.00  0.00    +0.010 A 
ATOM     29  F   UNL     1       3.516  -0.724  -0.072  0.00  0.00    -0.205 F 
ENDBRANCH  22  23
ENDBRANCH  21  22
ENDBRANCH  16  21
ENDBRANCH  11  13
BRANCH   1  30
ATOM     30  C   UNL     1      -9.534   5.556   5.269  0.00  0.00    +0.131 C 
BRANCH  30  32
ATOM     31  C   UNL     1      -9.485   3.200   4.437  0.00  0.00    +0.009 C 
ATOM     32  C   UNL     1     -10.285   4.223   5.247  0.00  0.00    +0.003 C 
ATOM     33  C   UNL     1     -10.462   3.714   6.679  0.00  0.00    +0.009 C 
ENDBRANCH  30  32
ENDBRANCH   1  30
BRANCH  10  34
ATOM     34  C   UNL     1      -6.739   6.118  -0.146  0.00  0.00    +0.152 C 
BRANCH  34  35
ATOM     35  C   UNL     1      -7.391   5.144  -1.129  0.00  0.00    +0.181 C 
BRANCH  35  36
ATOM     36  O   UNL     1      -6.931   5.423  -2.453  0.00  0.00    -0.381 OA
ATOM     37  C   UNL     1      -7.482   4.565  -3.453  0.00  0.00    +0.194 C 
ENDBRANCH  35  36
ENDBRANCH  34  35
ENDBRANCH  10  34
TORSDOF 10
