REMARK  Name = ZINC42867172
REMARK  5 active torsions:
REMARK  status: ('A' for Active; 'I' for Inactive)
REMARK    1  A    between atoms: C_1  and  C_2
REMARK    2  A    between atoms: C_8  and  C_10
REMARK    3  A    between atoms: C_10  and  N_11
REMARK    4  A    between atoms: C_12  and  C_16
REMARK    5  A    between atoms: C_21  and  N_22
REMARK                            x       y       z     vdW  Elec       q    Type
REMARK                         _______ _______ _______ _____ _____    ______ ____
ROOT
ATOM      1  N   UNL     1       2.878  -0.451   2.429  0.00  0.00    -0.225 N 
ATOM      2  C   UNL     1       4.139  -0.139   2.820  0.00  0.00    +0.184 A 
ATOM      3  N   UNL     1       4.380  -0.819   3.923  0.00  0.00    -0.108 NA
ATOM      4  N   UNL     1       3.360  -1.530   4.244  0.00  0.00    -0.023 NA
ATOM      5  N   UNL     1       2.407  -1.359   3.393  0.00  0.00    -0.044 NA
ENDROOT
BRANCH   2   6
ATOM      6  C   UNL     1       5.068   0.788   2.139  0.00  0.00    +0.044 A 
ATOM      7  C   UNL     1       4.644   1.508   1.022  0.00  0.00    +0.051 A 
ATOM      8  C   UNL     1       5.516   2.373   0.389  0.00  0.00    +0.124 A 
ATOM      9  C   UNL     1       6.811   2.527   0.860  0.00  0.00    +0.040 A 
ATOM     10  C   UNL     1       7.241   1.820   1.965  0.00  0.00    +0.026 A 
ATOM     11  C   UNL     1       6.375   0.952   2.615  0.00  0.00    +0.036 A 
ATOM     12  F   UNL     1       5.106   3.070  -0.693  0.00  0.00    -0.205 F 
BRANCH  11  13
ATOM     13  N   UNL     1       6.806   0.241   3.735  0.00  0.00    -0.357 N 
ATOM     14  H   UNL     1       6.201  -0.368   4.185  0.00  0.00    +0.142 HD
ATOM     15  H   UNL     1       7.712   0.356   4.063  0.00  0.00    +0.142 HD
ENDBRANCH  11  13
ENDBRANCH   2   6
BRANCH   1  16
ATOM     16  C   UNL     1       2.160   0.055   1.256  0.00  0.00    +0.151 C 
BRANCH  16  23
ATOM     17  C   UNL     1      -0.051   1.349  -0.164  0.00  0.00    +0.008 C 
ATOM     18  C   UNL     1       0.078  -0.175  -0.106  0.00  0.00    -0.009 C 
ATOM     19  C   UNL     1      -1.313  -0.808  -0.164  0.00  0.00    +0.003 C 
ATOM     20  C   UNL     1      -2.145  -0.321   1.025  0.00  0.00    +0.000 C 
ATOM     21  C   UNL     1      -1.454  -0.725   2.329  0.00  0.00    +0.000 C 
ATOM     22  C   UNL     1      -0.063  -0.092   2.387  0.00  0.00    +0.005 C 
ATOM     23  C   UNL     1       0.768  -0.578   1.198  0.00  0.00    +0.013 C 
ENDBRANCH  16  23
ENDBRANCH   1  16
TORSDOF 4
