REMARK  Name = ZINC39733508
REMARK  9 active torsions:
REMARK  status: ('A' for Active; 'I' for Inactive)
REMARK    1  A    between atoms: C_1  and  C_2
REMARK    2  A    between atoms: C_2  and  O_3
REMARK    3  A    between atoms: O_3  and  C_4
REMARK    4  A    between atoms: C_4  and  C_6
REMARK    5  A    between atoms: C_8  and  N_17
REMARK    6  A    between atoms: C_18  and  C_20
REMARK    7  A    between atoms: C_20  and  C_22
REMARK    8  A    between atoms: C_20  and  S_23
REMARK    9  A    between atoms: S_23  and  C_24
REMARK                            x       y       z     vdW  Elec       q    Type
REMARK                         _______ _______ _______ _____ _____    ______ ____
ROOT
ATOM      1  N   UNL     1       1.657  -1.668  -4.937  0.00  0.00    -0.301 N 
ATOM      2  C   UNL     1       1.341  -2.125  -6.165  0.00  0.00    +0.227 C 
ATOM      3  O   UNL     1       0.289  -2.702  -6.345  0.00  0.00    -0.275 OA
ATOM      4  H   UNL     1       2.498  -1.207  -4.793  0.00  0.00    +0.150 HD
ENDROOT
BRANCH   1   6
ATOM      5  C   UNL     1       1.468  -2.353  -2.550  0.00  0.00    +0.155 C 
ATOM      6  C   UNL     1       0.730  -1.867  -3.820  0.00  0.00    +0.153 C 
ATOM      7  S   UNL     1      -0.353  -3.332  -4.092  0.00  0.00    -0.106 S 
ATOM      8  C   UNL     1       0.597  -4.529  -3.184  0.00  0.00    -0.013 C 
ATOM      9  C   UNL     1       1.481  -3.859  -2.459  0.00  0.00    -0.044 C 
ATOM     10  C   UNL     1       2.478  -4.593  -1.565  0.00  0.00    +0.032 C 
ATOM     11  C   UNL     1       1.970  -6.010  -1.305  0.00  0.00    +0.005 C 
ATOM     12  C   UNL     1       1.649  -6.691  -2.639  0.00  0.00    +0.005 C 
ATOM     13  C   UNL     1       0.417  -6.020  -3.240  0.00  0.00    +0.042 C 
BRANCH   5  14
ATOM     14  C   UNL     1       0.775  -1.794  -1.334  0.00  0.00    +0.317 C 
ATOM     15  O   UNL     1       0.314  -2.540  -0.504  0.00  0.00    -0.250 OA
BRANCH  14  16
ATOM     16  O   UNL     1       0.671  -0.465  -1.174  0.00  0.00    -0.464 OA
BRANCH  16  18
ATOM     17  C   UNL     1      -0.019   1.526   0.010  0.00  0.00    +0.048 C 
ATOM     18  C   UNL     1       0.002  -0.004   0.002  0.00  0.00    +0.229 C 
ENDBRANCH  16  18
ENDBRANCH  14  16
ENDBRANCH   5  14
ENDBRANCH   1   6
BRANCH   2  19
ATOM     19  C   UNL     1       2.294  -1.920  -7.314  0.00  0.00    +0.137 C 
ATOM     20  C   UNL     1       3.332  -3.045  -7.323  0.00  0.00    +0.029 C 
BRANCH  19  21
ATOM     21  S   UNL     1       1.371  -1.937  -8.876  0.00  0.00    -0.073 S 
BRANCH  21  22
ATOM     22  C   UNL     1       2.584  -1.542 -10.092  0.00  0.00    +0.198 A 
ATOM     23  N   UNL     1       3.856  -1.304  -9.875  0.00  0.00    -0.120 NA
ATOM     24  N   UNL     1       4.458  -1.050 -10.983  0.00  0.00    -0.107 NA
ATOM     25  C   UNL     1       3.599  -1.111 -11.983  0.00  0.00    +0.260 A 
ATOM     26  N   UNL     1       2.377  -1.432 -11.437  0.00  0.00    -0.258 N 
ATOM     27  C   UNL     1       1.269  -1.575 -12.236  0.00  0.00    +0.037 A 
ATOM     28  C   UNL     1       1.398  -1.389 -13.561  0.00  0.00    +0.039 A 
ATOM     29  C   UNL     1       2.672  -1.067 -14.093  0.00  0.00    +0.278 A 
ATOM     30  O   UNL     1       2.813  -0.886 -15.428  0.00  0.00    -0.265 OA
ATOM     31  N   UNL     1       3.717  -0.933 -13.307  0.00  0.00    -0.171 NA
ATOM     32  C   UNL     1       0.242  -1.500 -14.519  0.00  0.00    +0.042 C 
ATOM     33  C   UNL     1      -0.918  -2.261 -13.880  0.00  0.00    +0.005 C 
ATOM     34  C   UNL     1      -1.209  -1.633 -12.511  0.00  0.00    +0.006 C 
ATOM     35  C   UNL     1      -0.036  -1.941 -11.583  0.00  0.00    +0.054 C 
ENDBRANCH  21  22
ENDBRANCH  19  21
ENDBRANCH   2  19
TORSDOF 7
