REMARK  Name = ZINC40170765
REMARK  12 active torsions:
REMARK  status: ('A' for Active; 'I' for Inactive)
REMARK    1  A    between atoms: C_1  and  C_2
REMARK    2  A    between atoms: C_2  and  C_3
REMARK    3  A    between atoms: C_3  and  C_5
REMARK    4  A    between atoms: C_3  and  S_21
REMARK    5  A    between atoms: N_7  and  C_8
REMARK    6  A    between atoms: C_9  and  C_17
REMARK    7  A    between atoms: C_17  and  O_19
REMARK    8  A    between atoms: O_19  and  C_20
REMARK    9  A    between atoms: S_21  and  C_22
REMARK   10  A    between atoms: C_28  and  C_37
REMARK   11  A    between atoms: C_30  and  C_36
REMARK   12  A    between atoms: C_33  and  C_35
REMARK                            x       y       z     vdW  Elec       q    Type
REMARK                         _______ _______ _______ _____ _____    ______ ____
ROOT
ATOM      1  C   UNL     1       0.720  -0.388   1.118  0.00  0.00    +0.140 C 
ENDROOT
BRANCH   1   2
ATOM      2  C   UNL     1       1.006  -1.859   0.959  0.00  0.00    +0.231 C 
ATOM      3  O   UNL     1       0.327  -2.676   1.544  0.00  0.00    -0.274 OA
ATOM      4  N   UNL     1       2.017  -2.267   0.166  0.00  0.00    -0.278 N 
ATOM      5  H   UNL     1       2.560  -1.613  -0.302  0.00  0.00    +0.155 HD
BRANCH   4   6
ATOM      6  C   UNL     1       2.280  -3.620   0.020  0.00  0.00    +0.086 A 
ATOM      7  C   UNL     1       3.273  -4.218  -0.742  0.00  0.00    +0.091 A 
ATOM      8  C   UNL     1       3.339  -5.669  -0.726  0.00  0.00    -0.021 A 
ATOM      9  C   UNL     1       2.400  -6.256   0.048  0.00  0.00    -0.004 A 
ATOM     10  S   UNL     1       1.475  -4.911   0.730  0.00  0.00    -0.077 S 
ATOM     11  C   UNL     1       2.206  -7.724   0.269  0.00  0.00    +0.043 C 
ATOM     12  C   UNL     1       2.993  -8.482  -0.810  0.00  0.00    +0.005 C 
ATOM     13  C   UNL     1       4.407  -7.901  -0.893  0.00  0.00    +0.005 C 
ATOM     14  C   UNL     1       4.358  -6.495  -1.496  0.00  0.00    +0.037 C 
BRANCH   7  15
ATOM     15  C   UNL     1       4.216  -3.420  -1.530  0.00  0.00    +0.342 C 
ATOM     16  O   UNL     1       5.263  -3.050  -1.033  0.00  0.00    -0.245 OA
BRANCH  15  17
ATOM     17  O   UNL     1       3.923  -3.095  -2.806  0.00  0.00    -0.464 OA
ATOM     18  C   UNL     1       4.888  -2.315  -3.514  0.00  0.00    +0.280 C 
ENDBRANCH  15  17
ENDBRANCH   7  15
ENDBRANCH   4   6
ENDBRANCH   1   2
BRANCH   1  20
ATOM     19  C   UNL     1      -0.359   1.600   0.057  0.00  0.00    +0.005 C 
ATOM     20  C   UNL     1      -0.181   0.083  -0.025  0.00  0.00    +0.020 C 
ENDBRANCH   1  20
BRANCH   1  21
ATOM     21  S   UNL     1      -0.115  -0.102   2.703  0.00  0.00    -0.073 S 
BRANCH  21  22
ATOM     22  C   UNL     1       1.129  -0.434   3.906  0.00  0.00    +0.197 A 
ATOM     23  N   UNL     1       2.326  -0.919   3.630  0.00  0.00    -0.122 NA
ATOM     24  N   UNL     1       3.044  -0.944   4.691  0.00  0.00    -0.129 NA
ATOM     25  C   UNL     1       2.357  -0.434   5.695  0.00  0.00    +0.162 A 
ATOM     26  N   UNL     1       1.053  -0.280   5.256  0.00  0.00    -0.270 N 
ATOM     27  C   UNL     1       0.052  -0.061   6.184  0.00  0.00    +0.061 A 
ATOM     28  C   UNL     1      -1.275  -0.406   5.984  0.00  0.00    -0.026 A 
ATOM     29  C   UNL     1      -2.251   0.043   6.854  0.00  0.00    +0.008 A 
ATOM     30  C   UNL     1      -1.912   0.751   7.995  0.00  0.00    -0.050 A 
ATOM     31  C   UNL     1      -0.585   0.944   8.309  0.00  0.00    +0.013 A 
ATOM     32  C   UNL     1       0.405   0.467   7.448  0.00  0.00    +0.002 A 
ATOM     33  C   UNL     1       1.810   0.427   7.864  0.00  0.00    -0.038 A 
ATOM     34  C   UNL     1       2.732  -0.059   7.004  0.00  0.00    +0.052 A 
ATOM     35  C   UNL     1       2.237   0.914   9.225  0.00  0.00    +0.044 C 
ATOM     36  C   UNL     1      -2.987   1.307   8.890  0.00  0.00    +0.044 C 
ATOM     37  C   UNL     1      -1.696  -1.341   4.879  0.00  0.00    +0.046 C 
ENDBRANCH  21  22
ENDBRANCH   1  21
TORSDOF 7
