REMARK  Name = ZINC47146547
REMARK  4 active torsions:
REMARK  status: ('A' for Active; 'I' for Inactive)
REMARK    1  A    between atoms: C_1  and  O_2
REMARK    2  A    between atoms: O_2  and  C_3
REMARK    3  A    between atoms: C_6  and  N_9
REMARK    4  A    between atoms: C_14  and  C_28
REMARK                            x       y       z     vdW  Elec       q    Type
REMARK                         _______ _______ _______ _____ _____    ______ ____
ROOT
ATOM      1  N   UNL     1      -4.892  -2.582   0.034  0.00  0.00    -0.209 N 
ATOM      2  C   UNL     1      -5.020  -3.935   0.038  0.00  0.00    +0.232 C 
ATOM      3  O   UNL     1      -4.147  -4.750  -0.169  0.00  0.00    -0.274 OA
ATOM      4  C   UNL     1      -6.457  -4.214   0.350  0.00  0.00    +0.110 C 
ATOM      5  C   UNL     1      -7.117  -5.432  -0.246  0.00  0.00    +0.072 C 
ATOM      6  C   UNL     1      -8.571  -5.420   0.133  0.00  0.00    +0.033 A 
ATOM      7  C   UNL     1      -9.343  -4.389   0.541  0.00  0.00    +0.088 A 
ATOM      8  N   UNL     1     -10.644  -4.718   0.832  0.00  0.00    -0.311 N 
ATOM      9  H   UNL     1     -11.259  -4.036   1.142  0.00  0.00    +0.170 HD
ATOM     10  C   UNL     1     -11.066  -5.989   0.686  0.00  0.00    +0.289 A 
ATOM     11  O   UNL     1     -12.176  -6.445   0.893  0.00  0.00    -0.260 OA
ATOM     12  S   UNL     1      -9.691  -6.795   0.147  0.00  0.00    -0.030 S 
ATOM     13  S   UNL     1      -8.682  -2.733   0.665  0.00  0.00    -0.093 S 
ATOM     14  C   UNL     1      -7.132  -2.953  -0.267  0.00  0.00    +0.152 C 
ATOM     15  C   UNL     1      -6.079  -1.923   0.044  0.00  0.00    +0.240 C 
ATOM     16  O   UNL     1      -6.255  -0.743   0.259  0.00  0.00    -0.274 OA
ENDROOT
BRANCH   5  17
ATOM     17  C   UNL     1      -6.460  -6.678   0.290  0.00  0.00    -0.039 A 
ATOM     18  C   UNL     1      -6.469  -6.933   1.649  0.00  0.00    +0.005 A 
ATOM     19  C   UNL     1      -5.867  -8.076   2.141  0.00  0.00    +0.015 A 
ATOM     20  C   UNL     1      -5.255  -8.964   1.274  0.00  0.00    +0.018 A 
ATOM     21  C   UNL     1      -5.247  -8.708  -0.085  0.00  0.00    +0.015 A 
ATOM     22  C   UNL     1      -5.854  -7.567  -0.577  0.00  0.00    +0.005 A 
ATOM     23 BR   UNL     1      -4.431 -10.527   1.948  0.00  0.00    -0.050 Br
ENDBRANCH   5  17
BRANCH   1  27
ATOM     24  C   UNL     1      -1.201  -0.638   0.010  0.00  0.00    +0.120 A 
ATOM     25  C   UNL     1      -2.374   0.102   0.019  0.00  0.00    +0.047 A 
ATOM     26  C   UNL     1      -3.596  -0.541   0.027  0.00  0.00    +0.027 A 
ATOM     27  C   UNL     1      -3.650  -1.928   0.026  0.00  0.00    +0.044 A 
ATOM     28  C   UNL     1      -2.476  -2.668   0.016  0.00  0.00    +0.027 A 
ATOM     29  C   UNL     1      -1.254  -2.024   0.003  0.00  0.00    +0.047 A 
BRANCH  24  31
ATOM     30  C   UNL     1      -0.017   1.425   0.010  0.00  0.00    +0.277 C 
ATOM     31  O   UNL     1       0.002  -0.004   0.002  0.00  0.00    -0.495 OA
ENDBRANCH  24  31
ENDBRANCH   1  27
TORSDOF 3
