REMARK  Name = ZINC14166255
REMARK  9 active torsions:
REMARK  status: ('A' for Active; 'I' for Inactive)
REMARK    1  A    between atoms: C_1  and  C_2
REMARK    2  A    between atoms: C_5  and  S_8
REMARK    3  A    between atoms: S_8  and  N_11
REMARK    4  A    between atoms: N_11  and  C_12
REMARK    5  A    between atoms: N_11  and  C_28
REMARK    6  A    between atoms: C_12  and  C_13
REMARK    7  A    between atoms: N_15  and  N_16
REMARK    8  A    between atoms: C_17  and  C_18
REMARK    9  A    between atoms: C_33  and  C_34
REMARK                            x       y       z     vdW  Elec       q    Type
REMARK                         _______ _______ _______ _____ _____    ______ ____
ROOT
ATOM      1  N   UNL     1       0.145  -0.118  -2.463  0.00  0.00    -0.194 N 
ENDROOT
BRANCH   1   2
ATOM      2  C   UNL     1       0.099  -0.713  -1.200  0.00  0.00    +0.056 A 
ATOM      3  C   UNL     1       0.177   0.074  -0.058  0.00  0.00    +0.045 A 
ATOM      4  C   UNL     1       0.138  -0.519   1.190  0.00  0.00    +0.043 A 
ATOM      5  C   UNL     1       0.012  -1.893   1.302  0.00  0.00    +0.020 A 
ATOM      6  C   UNL     1      -0.072  -2.676   0.166  0.00  0.00    +0.006 A 
ATOM      7  C   UNL     1      -0.032  -2.091  -1.084  0.00  0.00    -0.028 A 
ATOM      8  C   UNL     1      -0.124  -2.946  -2.321  0.00  0.00    +0.046 C 
ATOM      9 CL   UNL     1       0.244   0.461   2.619  0.00  0.00    -0.083 Cl
ENDBRANCH   1   2
BRANCH   1  10
ATOM     10  S   UNL     1       1.596   0.059  -3.242  0.00  0.00    +0.075 S 
ATOM     11  O   UNL     1       1.407   1.065  -4.228  0.00  0.00    -0.150 OA
ATOM     12  O   UNL     1       2.590   0.160  -2.231  0.00  0.00    -0.150 OA
BRANCH  10  17
ATOM     13  C   UNL     1       2.670  -5.083  -6.209  0.00  0.00    +0.044 C 
ATOM     14  C   UNL     1       2.402  -3.799  -5.468  0.00  0.00    -0.050 A 
ATOM     15  C   UNL     1       1.710  -2.775  -6.088  0.00  0.00    +0.005 A 
ATOM     16  C   UNL     1       1.464  -1.597  -5.408  0.00  0.00    +0.029 A 
ATOM     17  C   UNL     1       1.909  -1.442  -4.108  0.00  0.00    +0.109 A 
ATOM     18  C   UNL     1       2.605  -2.464  -3.490  0.00  0.00    +0.029 A 
ATOM     19  C   UNL     1       2.848  -3.644  -4.169  0.00  0.00    +0.005 A 
ENDBRANCH  10  17
ENDBRANCH   1  10
BRANCH   1  20
ATOM     20  C   UNL     1      -1.089   0.348  -3.099  0.00  0.00    +0.228 C 
BRANCH  20  21
ATOM     21  C   UNL     1      -1.398   1.748  -2.632  0.00  0.00    +0.251 C 
ATOM     22  O   UNL     1      -0.611   2.336  -1.921  0.00  0.00    -0.272 OA
ATOM     23  N   UNL     1      -2.547   2.345  -3.005  0.00  0.00    -0.206 N 
ATOM     24  H   UNL     1      -3.176   1.874  -3.574  0.00  0.00    +0.177 HD
BRANCH  23  25
ATOM     25  N   UNL     1      -2.834   3.646  -2.570  0.00  0.00    -0.188 NA
ATOM     26  C   UNL     1      -3.942   4.221  -2.929  0.00  0.00    +0.139 C 
BRANCH  26  27
ATOM     27  C   UNL     1      -4.242   5.587  -2.473  0.00  0.00    +0.002 A 
ATOM     28  C   UNL     1      -5.469   6.176  -2.756  0.00  0.00    +0.010 A 
ATOM     29  C   UNL     1      -5.750   7.465  -2.325  0.00  0.00    +0.001 A 
ATOM     30  C   UNL     1      -4.848   8.197  -1.615  0.00  0.00    +0.008 A 
ATOM     31  C   UNL     1      -3.588   7.665  -1.293  0.00  0.00    -0.017 A 
ATOM     32  C   UNL     1      -3.260   6.351  -1.707  0.00  0.00    -0.009 A 
ATOM     33  C   UNL     1      -2.003   5.820  -1.393  0.00  0.00    +0.009 A 
ATOM     34  C   UNL     1      -1.114   6.570  -0.682  0.00  0.00    +0.001 A 
ATOM     35  C   UNL     1      -1.435   7.860  -0.269  0.00  0.00    +0.001 A 
ATOM     36  C   UNL     1      -2.646   8.409  -0.561  0.00  0.00    +0.008 A 
ENDBRANCH  26  27
ENDBRANCH  23  25
ENDBRANCH  20  21
ENDBRANCH   1  20
TORSDOF 7
