REMARK  Name = ZINC20857907
REMARK  6 active torsions:
REMARK  status: ('A' for Active; 'I' for Inactive)
REMARK    1  A    between atoms: C_1  and  N_2
REMARK    2  A    between atoms: N_2  and  C_3
REMARK    3  A    between atoms: N_2  and  C_6
REMARK    4  A    between atoms: C_3  and  C_4
REMARK    5  A    between atoms: C_4  and  O_5
REMARK    6  A    between atoms: C_8  and  N_23
REMARK                            x       y       z     vdW  Elec       q    Type
REMARK                         _______ _______ _______ _____ _____    ______ ____
ROOT
ATOM      1  C   UNL     1       2.390   1.319  -0.161  0.00  0.00    +0.043 A 
ATOM      2  C   UNL     1       3.434   2.252  -0.191  0.00  0.00    +0.049 A 
ATOM      3  C   UNL     1       3.269   3.618  -0.305  0.00  0.00    +0.061 A 
ATOM      4  C   UNL     1       1.912   4.169  -0.406  0.00  0.00    +0.136 A 
ATOM      5  C   UNL     1       0.849   3.172  -0.372  0.00  0.00    +0.063 A 
ATOM      6  C   UNL     1       1.060   1.755  -0.251  0.00  0.00    +0.056 A 
ATOM      7  C   UNL     1      -0.096   0.942  -0.236  0.00  0.00    +0.196 C 
ATOM      8  O   UNL     1      -0.010  -0.272  -0.135  0.00  0.00    -0.287 OA
ATOM      9  C   UNL     1      -1.414   1.605  -0.353  0.00  0.00    +0.033 A 
ATOM     10  C   UNL     1      -2.572   0.818  -0.334  0.00  0.00    +0.012 A 
ATOM     11  C   UNL     1      -3.810   1.407  -0.435  0.00  0.00    +0.001 A 
ATOM     12  C   UNL     1      -3.933   2.785  -0.550  0.00  0.00    +0.001 A 
ATOM     13  C   UNL     1      -2.813   3.585  -0.564  0.00  0.00    +0.012 A 
ATOM     14  C   UNL     1      -1.542   3.011  -0.463  0.00  0.00    +0.031 A 
ATOM     15  C   UNL     1      -0.342   3.845  -0.476  0.00  0.00    +0.176 A 
ATOM     16  O   UNL     1       0.034   5.127  -0.561  0.00  0.00    -0.353 OA
ATOM     17  N   UNL     1       1.252   5.287  -0.522  0.00  0.00    -0.076 NA
ENDROOT
BRANCH   3  18
ATOM     18  N   UNL     1       4.366   4.455  -0.326  0.00  0.00    -0.325 N 
ATOM     19  C   UNL     1       5.202   4.198  -1.506  0.00  0.00    +0.124 C 
ATOM     20  C   UNL     1       6.362   5.197  -1.534  0.00  0.00    +0.125 C 
ATOM     21  N   UNL     1       7.146   5.067  -0.297  0.00  0.00    -0.314 N 
ATOM     22  C   UNL     1       6.309   5.324   0.883  0.00  0.00    +0.125 C 
ATOM     23  C   UNL     1       5.150   4.325   0.910  0.00  0.00    +0.124 C 
ATOM     24  C   UNL     1       8.251   5.910  -0.318  0.00  0.00    +0.099 A 
ATOM     25  C   UNL     1       9.167   5.821  -1.361  0.00  0.00    +0.042 A 
ATOM     26  C   UNL     1      10.262   6.666  -1.369  0.00  0.00    +0.005 A 
ATOM     27  C   UNL     1      10.405   7.576  -0.329  0.00  0.00    +0.018 A 
ATOM     28  C   UNL     1       9.457   7.610   0.674  0.00  0.00    +0.084 A 
ATOM     29  N   UNL     1       8.419   6.795   0.652  0.00  0.00    -0.350 N 
ATOM     30  H   UNL     1       7.684   6.864   1.468  0.00  0.00    +0.166 HD
ENDBRANCH   3  18
BRANCH   1  32
ATOM     31  C   UNL     1       3.417  -0.514  -1.209  0.00  0.00    +0.129 C 
ATOM     32  N   UNL     1       2.670  -0.026  -0.042  0.00  0.00    -0.330 N 
BRANCH  32  33
ATOM     33  C   UNL     1       3.398  -0.305   1.203  0.00  0.00    +0.132 C 
BRANCH  33  34
ATOM     34  C   UNL     1       2.427  -0.248   2.385  0.00  0.00    +0.174 C 
BRANCH  34  35
ATOM     35  O   UNL     1       1.474  -1.307   2.270  0.00  0.00    -0.393 OA
ATOM     36  H   UNL     1       0.692  -1.428   3.033  0.00  0.00    +0.209 HD
ENDBRANCH  34  35
ENDBRANCH  33  34
ENDBRANCH  32  33
ENDBRANCH   1  32
TORSDOF 5
