REMARK  Name = ZINC45277186
REMARK  9 active torsions:
REMARK  status: ('A' for Active; 'I' for Inactive)
REMARK    1  A    between atoms: C_1  and  C_2
REMARK    2  A    between atoms: C_2  and  C_4
REMARK    3  A    between atoms: C_2  and  O_20
REMARK    4  A    between atoms: N_6  and  C_7
REMARK    5  A    between atoms: C_10  and  N_17
REMARK    6  A    between atoms: C_12  and  C_13
REMARK    7  A    between atoms: O_20  and  C_21
REMARK    8  A    between atoms: C_21  and  C_23
REMARK    9  A    between atoms: C_24  and  C_25
REMARK                            x       y       z     vdW  Elec       q    Type
REMARK                         _______ _______ _______ _____ _____    ______ ____
ROOT
ATOM      1  C   UNL     1      -0.035   1.539   0.001  0.00  0.00    +0.062 C 
ATOM      2  C   UNL     1      -0.003   0.009  -0.004  0.00  0.00    +0.259 C 
ENDROOT
BRANCH   2   3
ATOM      3  C   UNL     1      -1.413  -0.523   0.011  0.00  0.00    +0.258 C 
ATOM      4  O   UNL     1      -1.835  -1.149  -0.937  0.00  0.00    -0.271 OA
ATOM      5  N   UNL     1      -2.204  -0.302   1.079  0.00  0.00    -0.282 N 
ATOM      6  H   UNL     1      -1.844   0.129   1.870  0.00  0.00    +0.155 HD
BRANCH   5   7
ATOM      7  C   UNL     1      -3.547  -0.694   1.048  0.00  0.00    +0.045 A 
ATOM      8  C   UNL     1      -4.207  -0.821  -0.168  0.00  0.00    +0.026 A 
ATOM      9  C   UNL     1      -5.532  -1.208  -0.196  0.00  0.00    +0.034 A 
ATOM     10  C   UNL     1      -6.203  -1.469   0.985  0.00  0.00    +0.127 A 
ATOM     11  C   UNL     1      -5.549  -1.343   2.197  0.00  0.00    +0.047 A 
ATOM     12  C   UNL     1      -4.222  -0.963   2.231  0.00  0.00    +0.078 A 
BRANCH  12  13
ATOM     13  C   UNL     1      -3.509  -0.833   3.552  0.00  0.00    +0.419 C 
ATOM     14  F   UNL     1      -4.389  -1.153   4.591  0.00  0.00    -0.166 F 
ATOM     15  F   UNL     1      -2.417  -1.707   3.580  0.00  0.00    -0.166 F 
ATOM     16  F   UNL     1      -3.058   0.482   3.712  0.00  0.00    -0.166 F 
ENDBRANCH  12  13
BRANCH  10  17
ATOM     17  N   UNL     1      -7.623  -1.883   0.951  0.00  0.00    +0.056 N 
ATOM     18  O   UNL     1      -8.196  -1.993  -0.108  0.00  0.00    -0.126 OA
ATOM     19  O   UNL     1      -8.211  -2.112   1.982  0.00  0.00    -0.126 OA
ENDBRANCH  10  17
ENDBRANCH   5   7
ENDBRANCH   2   3
BRANCH   2  20
ATOM     20  O   UNL     1       0.667  -0.450  -1.180  0.00  0.00    -0.449 OA
BRANCH  20  21
ATOM     21  C   UNL     1       2.001  -0.626  -1.095  0.00  0.00    +0.333 C 
ATOM     22  O   UNL     1       2.580  -0.396  -0.051  0.00  0.00    -0.246 OA
BRANCH  21  23
ATOM     23  C   UNL     1       2.754  -1.095  -2.263  0.00  0.00    +0.093 C 
ATOM     24  C   UNL     1       4.087  -1.271  -2.178  0.00  0.00    +0.035 C 
BRANCH  24  25
ATOM     25  C   UNL     1       4.844  -1.743  -3.352  0.00  0.00    +0.065 A 
ATOM     26  C   UNL     1       6.234  -1.927  -3.245  0.00  0.00    +0.028 A 
ATOM     27  C   UNL     1       6.944  -2.363  -4.324  0.00  0.00    +0.012 A 
ATOM     28  C   UNL     1       6.250  -2.616  -5.523  0.00  0.00    +0.000 A 
ATOM     29  C   UNL     1       6.920  -3.067  -6.671  0.00  0.00    +0.010 A 
ATOM     30  C   UNL     1       6.216  -3.302  -7.813  0.00  0.00    +0.001 A 
ATOM     31  C   UNL     1       4.838  -3.101  -7.859  0.00  0.00    +0.002 A 
ATOM     32  C   UNL     1       4.155  -2.665  -6.767  0.00  0.00    +0.028 A 
ATOM     33  C   UNL     1       4.846  -2.411  -5.567  0.00  0.00    +0.072 A 
ATOM     34  N   UNL     1       4.200  -1.988  -4.480  0.00  0.00    -0.247 NA
ENDBRANCH  24  25
ENDBRANCH  21  23
ENDBRANCH  20  21
ENDBRANCH   2  20
TORSDOF 8
