REMARK  Name = ZINC02136688
REMARK  9 active torsions:
REMARK  status: ('A' for Active; 'I' for Inactive)
REMARK    1  A    between atoms: C_1  and  C_2
REMARK    2  A    between atoms: C_2  and  C_3
REMARK    3  A    between atoms: C_17  and  C_19
REMARK    4  A    between atoms: C_19  and  C_20
REMARK    5  A    between atoms: C_20  and  C_21
REMARK    6  A    between atoms: N_26  and  C_29
REMARK    7  A    between atoms: C_29  and  C_30
REMARK    8  A    between atoms: C_35  and  O_36
REMARK    9  A    between atoms: O_36  and  C_37
REMARK                            x       y       z     vdW  Elec       q    Type
REMARK                         _______ _______ _______ _____ _____    ______ ____
ROOT
ATOM      1  C   UNL     1      -0.017   1.376   0.010  0.00  0.00    -0.026 A 
ATOM      2  C   UNL     1       0.002  -0.004   0.002  0.00  0.00    +0.005 A 
ATOM      3  C   UNL     1       1.205  -0.686  -0.014  0.00  0.00    +0.001 A 
ATOM      4  C   UNL     1       2.396   0.018  -0.021  0.00  0.00    +0.004 A 
ATOM      5  C   UNL     1       2.382   1.395  -0.013  0.00  0.00    -0.027 A 
ATOM      6  C   UNL     1       1.177   2.092   0.002  0.00  0.00    +0.039 A 
ATOM      7  N   UNL     1       1.416   3.469   0.006  0.00  0.00    -0.286 N 
ATOM      8  C   UNL     1       2.732   3.755  -0.003  0.00  0.00    +0.211 C 
ATOM      9  O   UNL     1       3.232   4.860  -0.002  0.00  0.00    -0.277 OA
ATOM     10  C   UNL     1       3.461   2.440  -0.015  0.00  0.00    +0.050 C 
ATOM     11  C   UNL     1       4.381   2.298   1.204  0.00  0.00    +0.088 C 
ATOM     12  C   UNL     1       5.615   1.516   0.672  0.00  0.00    +0.073 C 
ATOM     13  C   UNL     1       5.308   1.256  -0.818  0.00  0.00    -0.057 C 
ATOM     14  C   UNL     1       6.739   2.520   0.783  0.00  0.00    +0.224 C 
ATOM     15  O   UNL     1       7.891   2.320   0.462  0.00  0.00    -0.275 OA
ATOM     16  N   UNL     1       6.266   3.663   1.291  0.00  0.00    -0.237 N 
ATOM     17  C   UNL     1       4.956   3.649   1.565  0.00  0.00    +0.225 C 
ATOM     18  O   UNL     1       4.329   4.576   2.031  0.00  0.00    -0.275 OA
ATOM     19  H   UNL     1       0.716   4.140   0.015  0.00  0.00    +0.155 HD
ATOM     20  N   UNL     1       4.335   2.295  -1.165  0.00  0.00    +0.394 N 
ATOM     21  H   UNL     1       4.817   3.181  -1.359  0.00  0.00    -0.083 HD
ATOM     22  H   UNL     1       3.793   2.012  -1.990  0.00  0.00    -0.083 HD
ENDROOT
BRANCH   1  24
ATOM     23  C   UNL     1      -1.724   2.475  -1.413  0.00  0.00    +0.009 C 
ATOM     24  C   UNL     1      -1.333   2.109   0.020  0.00  0.00    +0.033 C 
ENDBRANCH   1  24
BRANCH  13  25
ATOM     25  C   UNL     1       6.583   1.380  -1.654  0.00  0.00    -0.006 C 
BRANCH  25  26
ATOM     26  C   UNL     1       6.281   0.998  -3.104  0.00  0.00    +0.094 C 
BRANCH  26  27
ATOM     27  C   UNL     1       7.538   1.120  -3.928  0.00  0.00    +0.210 C 
ATOM     28  O   UNL     1       8.572   1.477  -3.405  0.00  0.00    -0.276 OA
ATOM     29  N   UNL     1       7.511   0.832  -5.244  0.00  0.00    -0.329 N 
ATOM     30  H   UNL     1       6.684   0.546  -5.661  0.00  0.00    +0.145 HD
ATOM     31  H   UNL     1       8.320   0.910  -5.774  0.00  0.00    +0.145 HD
ENDBRANCH  26  27
ENDBRANCH  25  26
ENDBRANCH  13  25
BRANCH  16  32
ATOM     32  C   UNL     1       7.112   4.836   1.526  0.00  0.00    +0.155 C 
BRANCH  32  33
ATOM     33  C   UNL     1       7.683   4.771   2.920  0.00  0.00    +0.012 A 
ATOM     34  C   UNL     1       7.111   5.513   3.936  0.00  0.00    +0.009 A 
ATOM     35  C   UNL     1       7.634   5.454   5.214  0.00  0.00    +0.001 A 
ATOM     36  C   UNL     1       8.730   4.654   5.479  0.00  0.00    +0.004 A 
ATOM     37  C   UNL     1       9.305   3.910   4.467  0.00  0.00    +0.046 A 
ATOM     38  C   UNL     1       8.779   3.964   3.184  0.00  0.00    +0.125 A 
BRANCH  38  39
ATOM     39  O   UNL     1       9.340   3.229   2.188  0.00  0.00    -0.495 OA
ATOM     40  C   UNL     1      10.466   2.421   2.533  0.00  0.00    +0.277 C 
ENDBRANCH  38  39
ENDBRANCH  32  33
ENDBRANCH  16  32
TORSDOF 7
