REMARK  Name = ZINC29231477
REMARK  3 active torsions:
REMARK  status: ('A' for Active; 'I' for Inactive)
REMARK    1  A    between atoms: C_6  and  O_7
REMARK    2  A    between atoms: O_7  and  S_8
REMARK    3  A    between atoms: S_8  and  C_11
REMARK                            x       y       z     vdW  Elec       q    Type
REMARK                         _______ _______ _______ _____ _____    ______ ____
ROOT
ATOM      1  S   UNL     1       3.893   2.318  -0.023  0.00  0.00    +0.151 S 
ATOM      2  O   UNL     1       3.612   3.593   0.538  0.00  0.00    -0.131 OA
ATOM      3  O   UNL     1       4.883   1.451   0.512  0.00  0.00    -0.131 OA
ENDROOT
BRANCH   1   4
ATOM      4  C   UNL     1       2.378   1.419  -0.013  0.00  0.00    +0.130 A 
ATOM      5  C   UNL     1       2.397   0.036  -0.022  0.00  0.00    +0.034 A 
ATOM      6  C   UNL     1       1.211  -0.677  -0.014  0.00  0.00    +0.049 A 
ATOM      7  C   UNL     1       0.002  -0.004   0.002  0.00  0.00    +0.142 A 
ATOM      8  C   UNL     1      -0.017   1.390   0.010  0.00  0.00    +0.078 A 
ATOM      9  C   UNL     1       1.173   2.098   0.002  0.00  0.00    +0.057 A 
ATOM     10  N   UNL     1      -1.249   2.059   0.019  0.00  0.00    -0.280 N 
ATOM     11  C   UNL     1      -2.365   1.369   0.346  0.00  0.00    +0.255 C 
ATOM     12  O   UNL     1      -3.446   1.919   0.336  0.00  0.00    -0.272 OA
ATOM     13  C   UNL     1      -2.261  -0.088   0.719  0.00  0.00    +0.325 C 
ATOM     14  O   UNL     1      -1.173  -0.689   0.012  0.00  0.00    -0.481 OA
ATOM     15  H   UNL     1      -1.297   3.127  -0.237  0.00  0.00    +0.155 HD
ENDBRANCH   1   4
BRANCH   1  16
ATOM     16  O   UNL     1       4.265   2.556  -1.480  0.00  0.00    -0.342 OA
BRANCH  16  22
ATOM     17  C   UNL     1       2.350   3.178  -2.746  0.00  0.00    +0.051 A 
ATOM     18  C   UNL     1       1.594   4.158  -3.361  0.00  0.00    +0.043 A 
ATOM     19  C   UNL     1       2.012   5.476  -3.333  0.00  0.00    +0.142 A 
ATOM     20  C   UNL     1       3.188   5.818  -2.682  0.00  0.00    +0.080 A 
ATOM     21  C   UNL     1       3.943   4.840  -2.061  0.00  0.00    +0.071 A 
ATOM     22  C   UNL     1       3.524   3.518  -2.090  0.00  0.00    +0.158 A 
ATOM     23 CL   UNL     1       3.711   7.473  -2.647  0.00  0.00    -0.080 Cl
ATOM     24  F   UNL     1       1.274   6.432  -3.939  0.00  0.00    -0.204 F 
ENDBRANCH  16  22
ENDBRANCH   1  16
TORSDOF 3
