REMARK  Name = ZINC33570003
REMARK  8 active torsions:
REMARK  status: ('A' for Active; 'I' for Inactive)
REMARK    1  A    between atoms: C_1  and  C_2
REMARK    2  A    between atoms: C_5  and  C_8
REMARK    3  A    between atoms: C_8  and  O_10
REMARK    4  A    between atoms: O_10  and  C_11
REMARK    5  A    between atoms: C_15  and  C_17
REMARK    6  A    between atoms: C_18  and  N_27
REMARK    7  A    between atoms: C_22  and  C_26
REMARK    8  A    between atoms: N_27  and  C_28
REMARK                            x       y       z     vdW  Elec       q    Type
REMARK                         _______ _______ _______ _____ _____    ______ ____
ROOT
ATOM      1  C   UNL     1      -1.658  -0.627   0.056  0.00  0.00    +0.087 A 
ATOM      2  C   UNL     1      -2.741  -0.081   0.714  0.00  0.00    +0.129 A 
ATOM      3  N   UNL     1      -3.823  -0.858   0.406  0.00  0.00    -0.289 N 
ATOM      4  C   UNL     1      -5.141  -0.789   0.772  0.00  0.00    +0.094 A 
ATOM      5  C   UNL     1      -6.027  -1.699   0.320  0.00  0.00    +0.021 A 
ATOM      6  C   UNL     1      -5.609  -2.734  -0.536  0.00  0.00    -0.046 A 
ATOM      7  C   UNL     1      -4.304  -2.817  -0.908  0.00  0.00    +0.048 A 
ATOM      8  C   UNL     1      -3.385  -1.860  -0.429  0.00  0.00    +0.117 A 
ATOM      9  N   UNL     1      -2.087  -1.701  -0.632  0.00  0.00    -0.338 N 
ATOM     10  C   UNL     1      -6.604  -3.748  -1.037  0.00  0.00    +0.044 C 
ATOM     11  H   UNL     1      -1.379  -2.285  -1.238  0.00  0.00    +0.167 HD
ENDROOT
BRANCH   1  16
ATOM     12  C   UNL     1       2.102  -0.523   0.100  0.00  0.00    +0.133 A 
ATOM     13  C   UNL     1       2.332   0.845   0.170  0.00  0.00    +0.046 A 
ATOM     14  C   UNL     1       1.268   1.728   0.204  0.00  0.00    +0.004 A 
ATOM     15  C   UNL     1      -0.028   1.255   0.167  0.00  0.00    +0.010 A 
ATOM     16  C   UNL     1      -0.268  -0.117   0.096  0.00  0.00    +0.005 A 
ATOM     17  C   UNL     1       0.805  -1.007   0.062  0.00  0.00    +0.056 A 
BRANCH  12  18
ATOM     18  O   UNL     1       3.150  -1.387   0.068  0.00  0.00    -0.422 OA
BRANCH  18  19
ATOM     19  C   UNL     1       3.337  -2.080  -1.073  0.00  0.00    +0.344 C 
ATOM     20  O   UNL     1       2.647  -1.848  -2.045  0.00  0.00    -0.245 OA
BRANCH  19  25
ATOM     21  C   UNL     1       7.404  -6.141  -1.338  0.00  0.00    +0.044 C 
ATOM     22  C   UNL     1       6.339  -5.078  -1.268  0.00  0.00    -0.050 A 
ATOM     23  C   UNL     1       5.554  -4.816  -2.377  0.00  0.00    +0.004 A 
ATOM     24  C   UNL     1       4.577  -3.844  -2.321  0.00  0.00    +0.015 A 
ATOM     25  C   UNL     1       4.381  -3.123  -1.140  0.00  0.00    +0.059 A 
ATOM     26  C   UNL     1       5.180  -3.389  -0.027  0.00  0.00    +0.015 A 
ATOM     27  C   UNL     1       6.150  -4.368  -0.096  0.00  0.00    +0.004 A 
ENDBRANCH  19  25
ENDBRANCH  18  19
ENDBRANCH  12  18
ENDBRANCH   1  16
BRANCH   2  28
ATOM     28  N   UNL     1      -2.733   1.047   1.534  0.00  0.00    -0.326 N 
ATOM     29  H   UNL     1      -1.919   1.764   1.718  0.00  0.00    +0.148 HD
BRANCH  28  30
ATOM     30  C   UNL     1      -4.029   1.220   2.204  0.00  0.00    +0.072 C 
ATOM     31  C   UNL     1      -4.986   1.971   1.275  0.00  0.00    +0.022 C 
ATOM     32  C   UNL     1      -6.336   2.151   1.972  0.00  0.00    +0.002 C 
ATOM     33  C   UNL     1      -6.141   2.953   3.261  0.00  0.00    +0.000 C 
ATOM     34  C   UNL     1      -5.184   2.202   4.189  0.00  0.00    +0.002 C 
ATOM     35  C   UNL     1      -3.834   2.022   3.492  0.00  0.00    +0.022 C 
ENDBRANCH  28  30
ENDBRANCH   2  28
TORSDOF 6
