REMARK  Name = ZINC09971199
REMARK  10 active torsions:
REMARK  status: ('A' for Active; 'I' for Inactive)
REMARK    1  A    between atoms: C_1  and  C_2
REMARK    2  A    between atoms: C_2  and  O_3
REMARK    3  A    between atoms: O_3  and  C_4
REMARK    4  A    between atoms: C_4  and  C_6
REMARK    5  A    between atoms: C_6  and  C_33
REMARK    6  A    between atoms: C_12  and  C_14
REMARK    7  A    between atoms: C_15  and  C_32
REMARK    8  A    between atoms: C_18  and  O_24
REMARK    9  A    between atoms: O_24  and  C_25
REMARK   10  A    between atoms: C_25  and  C_26
REMARK                            x       y       z     vdW  Elec       q    Type
REMARK                         _______ _______ _______ _____ _____    ______ ____
ROOT
ATOM      1  C   UNL     1      -2.819   1.584  -1.450  0.00  0.00    +0.095 C 
ATOM      2  C   UNL     1      -1.817   0.441  -1.276  0.00  0.00    +0.042 C 
ATOM      3  C   UNL     1      -0.756   0.849  -0.249  0.00  0.00    +0.109 C 
ATOM      4  N   UNL     1      -1.428   1.257   0.992  0.00  0.00    -0.296 N 
ATOM      5  C   UNL     1      -2.477   2.284   0.923  0.00  0.00    +0.109 C 
ATOM      6  C   UNL     1      -3.518   1.860  -0.117  0.00  0.00    +0.042 C 
ATOM      7  C   UNL     1      -1.091   0.697   2.171  0.00  0.00    +0.263 C 
ATOM      8  O   UNL     1      -0.296  -0.224   2.202  0.00  0.00    -0.268 OA
ENDROOT
BRANCH   7   9
ATOM      9  C   UNL     1      -1.684   1.198   3.420  0.00  0.00    +0.106 A 
ATOM     10  C   UNL     1      -2.021   0.436   4.493  0.00  0.00    -0.013 A 
ATOM     11  C   UNL     1      -2.558   1.297   5.481  0.00  0.00    +0.007 A 
ATOM     12  C   UNL     1      -3.064   1.082   6.771  0.00  0.00    +0.056 A 
ATOM     13  C   UNL     1      -3.527   2.150   7.509  0.00  0.00    +0.122 A 
ATOM     14  C   UNL     1      -3.493   3.439   6.980  0.00  0.00    +0.048 A 
ATOM     15  C   UNL     1      -2.999   3.665   5.716  0.00  0.00    +0.030 A 
ATOM     16  C   UNL     1      -2.527   2.601   4.952  0.00  0.00    +0.048 A 
ATOM     17  N   UNL     1      -1.982   2.519   3.690  0.00  0.00    -0.350 N 
ATOM     18  H   UNL     1      -1.835   3.266   3.089  0.00  0.00    +0.166 HD
ATOM     19  C   UNL     1      -1.854  -1.057   4.611  0.00  0.00    +0.047 C 
BRANCH  13  20
ATOM     20  O   UNL     1      -4.018   1.945   8.760  0.00  0.00    -0.487 OA
BRANCH  20  21
ATOM     21  C   UNL     1      -4.481   3.094   9.472  0.00  0.00    +0.264 C 
BRANCH  21  22
ATOM     22  C   UNL     1      -4.986   2.675  10.829  0.00  0.00    -0.010 A 
ATOM     23  C   UNL     1      -6.314   2.330  10.996  0.00  0.00    +0.007 A 
ATOM     24  C   UNL     1      -6.775   1.941  12.239  0.00  0.00    +0.000 A 
ATOM     25  C   UNL     1      -5.911   1.908  13.318  0.00  0.00    +0.000 A 
ATOM     26  C   UNL     1      -4.585   2.259  13.152  0.00  0.00    +0.000 A 
ATOM     27  C   UNL     1      -4.122   2.642  11.907  0.00  0.00    +0.007 A 
ENDBRANCH  21  22
ENDBRANCH  20  21
ENDBRANCH  13  20
ENDBRANCH   7   9
BRANCH   1  28
ATOM     28  C   UNL     1      -3.845   1.200  -2.485  0.00  0.00    -0.031 A 
ATOM     29  C   UNL     1      -3.769  -0.031  -3.109  0.00  0.00    +0.005 A 
ATOM     30  C   UNL     1      -4.713  -0.386  -4.055  0.00  0.00    +0.000 A 
ATOM     31  C   UNL     1      -5.727   0.494  -4.383  0.00  0.00    +0.000 A 
ATOM     32  C   UNL     1      -5.800   1.727  -3.763  0.00  0.00    +0.000 A 
ATOM     33  C   UNL     1      -4.859   2.080  -2.813  0.00  0.00    +0.005 A 
ENDBRANCH   1  28
BRANCH   1  34
ATOM     34  C   UNL     1      -2.092   2.825  -1.901  0.00  0.00    +0.318 C 
ATOM     35  O   UNL     1      -0.895   2.797  -2.067  0.00  0.00    -0.250 OA
BRANCH  34  36
ATOM     36  O   UNL     1      -2.774   3.961  -2.119  0.00  0.00    -0.464 OA
BRANCH  36  38
ATOM     37  C   UNL     1      -2.949   6.307  -2.748  0.00  0.00    +0.048 C 
ATOM     38  C   UNL     1      -2.009   5.116  -2.552  0.00  0.00    +0.229 C 
ENDBRANCH  36  38
ENDBRANCH  34  36
ENDBRANCH   1  34
TORSDOF 8
