REMARK  Name = ZINC13164482
REMARK  10 active torsions:
REMARK  status: ('A' for Active; 'I' for Inactive)
REMARK    1  A    between atoms: C_1  and  C_2
REMARK    2  A    between atoms: C_2  and  C_3
REMARK    3  A    between atoms: C_3  and  N_59
REMARK    4  A    between atoms: C_4  and  C_5
REMARK    5  A    between atoms: C_4  and  N_59
REMARK    6  A    between atoms: C_8  and  C_10
REMARK    7  A    between atoms: C_15  and  C_16
REMARK    8  A    between atoms: C_15  and  N_59
REMARK    9  A    between atoms: C_19  and  C_31
REMARK   10  A    between atoms: C_22  and  C_24
REMARK                            x       y       z     vdW  Elec       q    Type
REMARK                         _______ _______ _______ _____ _____    ______ ____
ROOT
ATOM      1  C   UNL     1      -4.924   1.915   1.075  0.00  0.00    +0.219 C 
ATOM      2  O   UNL     1      -4.194   2.562   0.354  0.00  0.00    -0.276 OA
ATOM      3  N   UNL     1      -6.235   1.804   0.782  0.00  0.00    -0.184 N 
ATOM      4  C   UNL     1      -6.908   2.415  -0.375  0.00  0.00    +0.172 C 
ATOM      5  C   UNL     1      -8.375   1.969  -0.217  0.00  0.00    +0.090 C 
ATOM      6  C   UNL     1      -8.368   1.135   1.044  0.00  0.00    +0.069 C 
ATOM      7  N   UNL     1      -7.173   1.088   1.522  0.00  0.00    -0.181 NA
ENDROOT
BRANCH   6   8
ATOM      8  C   UNL     1      -9.547   0.471   1.631  0.00  0.00    -0.002 A 
ATOM      9  C   UNL     1     -10.797   0.592   1.020  0.00  0.00    +0.011 A 
ATOM     10  C   UNL     1     -11.894  -0.036   1.572  0.00  0.00    +0.020 A 
ATOM     11  C   UNL     1     -11.760  -0.776   2.735  0.00  0.00    +0.041 A 
ATOM     12  C   UNL     1     -10.524  -0.895   3.349  0.00  0.00    +0.020 A 
ATOM     13  C   UNL     1      -9.418  -0.277   2.804  0.00  0.00    +0.011 A 
ATOM     14 CL   UNL     1     -13.148  -1.557   3.427  0.00  0.00    -0.084 Cl
ENDBRANCH   6   8
BRANCH   4  15
ATOM     15  C   UNL     1      -6.798   3.917  -0.321  0.00  0.00    +0.128 A 
ATOM     16  C   UNL     1      -6.601   4.730  -1.374  0.00  0.00    +0.046 A 
ATOM     17  C   UNL     1      -6.562   6.051  -0.871  0.00  0.00    +0.041 A 
ATOM     18  C   UNL     1      -6.738   5.966   0.460  0.00  0.00    +0.195 A 
ATOM     19  O   UNL     1      -6.886   4.672   0.787  0.00  0.00    -0.466 OA
ENDBRANCH   4  15
BRANCH   1  20
ATOM     20  C   UNL     1      -4.365   1.234   2.298  0.00  0.00    +0.021 C 
BRANCH  20  21
ATOM     21  N   UNL     1      -2.921   1.534   2.392  0.00  0.00    +0.391 N 
ATOM     22  H   UNL     1      -2.786   2.549   2.326  0.00  0.00    -0.080 HD
BRANCH  21  23
ATOM     23  C   UNL     1      -2.196   0.880   1.282  0.00  0.00    -0.078 C 
BRANCH  23  25
ATOM     24  C   UNL     1      -1.658  -1.287   0.160  0.00  0.00    +0.002 C 
ATOM     25  C   UNL     1      -2.479  -0.623   1.268  0.00  0.00    -0.022 C 
ENDBRANCH  23  25
ENDBRANCH  21  23
BRANCH  21  26
ATOM     26  C   UNL     1      -2.390   1.062   3.688  0.00  0.00    +0.021 C 
BRANCH  26  27
ATOM     27  C   UNL     1      -1.085   1.765   3.961  0.00  0.00    +0.202 A 
ATOM     28  N   UNL     1      -0.943   2.929   4.528  0.00  0.00    -0.114 NA
ATOM     29  N   UNL     1       0.308   3.222   4.604  0.00  0.00    -0.104 NA
ATOM     30  C   UNL     1       1.014   2.247   4.074  0.00  0.00    +0.284 A 
ATOM     31  O   UNL     1       0.142   1.305   3.656  0.00  0.00    -0.420 OA
BRANCH  30  32
ATOM     32  C   UNL     1       2.478   2.193   3.957  0.00  0.00    +0.191 A 
ATOM     33  C   UNL     1       3.351   3.152   4.377  0.00  0.00    +0.055 A 
ATOM     34  C   UNL     1       4.643   2.686   4.072  0.00  0.00    +0.042 A 
ATOM     35  C   UNL     1       4.500   1.483   3.478  0.00  0.00    +0.196 A 
ATOM     36  O   UNL     1       3.192   1.188   3.411  0.00  0.00    -0.458 OA
ENDBRANCH  30  32
ENDBRANCH  26  27
ENDBRANCH  21  26
ENDBRANCH  20  21
ENDBRANCH   1  20
TORSDOF 9
