REMARK  Name = ZINC20366726
REMARK  5 active torsions:
REMARK  status: ('A' for Active; 'I' for Inactive)
REMARK    1  A    between atoms: C_1  and  C_2
REMARK    2  A    between atoms: C_5  and  C_8
REMARK    3  A    between atoms: N_10  and  C_11
REMARK    4  A    between atoms: C_20  and  O_21
REMARK    5  A    between atoms: N_22  and  C_23
REMARK                            x       y       z     vdW  Elec       q    Type
REMARK                         _______ _______ _______ _____ _____    ______ ____
ROOT
ATOM      1  C   UNL     1       3.330   2.991   0.052  0.00  0.00    +0.139 A 
ATOM      2  C   UNL     1       2.527   3.602  -0.896  0.00  0.00    +0.075 A 
ATOM      3  C   UNL     1       1.226   2.984  -1.197  0.00  0.00    +0.042 A 
ATOM      4  C   UNL     1       0.364   3.546  -2.142  0.00  0.00    +0.013 A 
ATOM      5  C   UNL     1      -0.848   2.945  -2.401  0.00  0.00    +0.001 A 
ATOM      6  C   UNL     1      -1.209   1.783  -1.734  0.00  0.00    +0.004 A 
ATOM      7  C   UNL     1      -0.370   1.222  -0.794  0.00  0.00    +0.047 A 
ATOM      8  C   UNL     1       0.856   1.813  -0.517  0.00  0.00    +0.141 A 
ATOM      9  O   UNL     1       1.690   1.270   0.396  0.00  0.00    -0.424 OA
ATOM     10  C   UNL     1       2.881   1.818   0.686  0.00  0.00    +0.309 A 
ATOM     11  N   UNL     1       2.935   4.755  -1.540  0.00  0.00    -0.380 N 
ATOM     12  H   UNL     1       2.825   5.730  -1.043  0.00  0.00    +0.160 HD
ENDROOT
BRANCH  11  13
ATOM     13  C   UNL     1       3.482   4.450  -2.869  0.00  0.00    +0.079 C 
ATOM     14  C   UNL     1       5.003   4.210  -2.771  0.00  0.00    +0.024 C 
ATOM     15  C   UNL     1       5.570   4.838  -4.069  0.00  0.00    +0.002 C 
ATOM     16  C   UNL     1       4.694   6.103  -4.249  0.00  0.00    +0.002 C 
ATOM     17  C   UNL     1       3.285   5.653  -3.808  0.00  0.00    +0.024 C 
ENDBRANCH  11  13
BRANCH   1  20
ATOM     18  C   UNL     1       5.692   2.779   0.292  0.00  0.00    +0.248 C 
ATOM     19  O   UNL     1       5.600   1.595   0.028  0.00  0.00    -0.270 OA
ATOM     20  N   UNL     1       4.582   3.538   0.379  0.00  0.00    -0.274 N 
ATOM     21  H   UNL     1       4.656   4.586   0.705  0.00  0.00    +0.155 HD
BRANCH  18  26
ATOM     22  C   UNL     1      10.866   5.137   1.176  0.00  0.00    +0.044 C 
ATOM     23  C   UNL     1       9.511   4.519   0.944  0.00  0.00    -0.050 A 
ATOM     24  C   UNL     1       9.414   3.190   0.572  0.00  0.00    +0.004 A 
ATOM     25  C   UNL     1       8.177   2.619   0.358  0.00  0.00    +0.013 A 
ATOM     26  C   UNL     1       7.021   3.385   0.519  0.00  0.00    +0.037 A 
ATOM     27  C   UNL     1       7.126   4.726   0.890  0.00  0.00    +0.013 A 
ATOM     28  C   UNL     1       8.369   5.284   1.105  0.00  0.00    +0.004 A 
ENDBRANCH  18  26
ENDBRANCH   1  20
BRANCH  10  29
ATOM     29  O   UNL     1       3.592   1.285   1.520  0.00  0.00    -0.479 OA
ATOM     30  H   UNL     1       3.255   0.367   2.024  0.00  0.00    +0.295 HD
ENDBRANCH  10  29
TORSDOF 4
