REMARK  Name = ZINC59170596
REMARK  11 active torsions:
REMARK  status: ('A' for Active; 'I' for Inactive)
REMARK    1  A    between atoms: C_1  and  C_2
REMARK    2  A    between atoms: C_2  and  O_3
REMARK    3  A    between atoms: O_3  and  C_4
REMARK    4  A    between atoms: C_8  and  N_10
REMARK    5  A    between atoms: C_11  and  C_13
REMARK    6  A    between atoms: C_19  and  O_35
REMARK    7  A    between atoms: N_23  and  N_24
REMARK    8  A    between atoms: N_24  and  S_25
REMARK    9  A    between atoms: S_25  and  C_28
REMARK   10  A    between atoms: C_31  and  C_34
REMARK   11  A    between atoms: O_35  and  C_36
REMARK                            x       y       z     vdW  Elec       q    Type
REMARK                         _______ _______ _______ _____ _____    ______ ____
ROOT
ATOM      1  C   UNL     1      -5.922  -6.141  -0.617  0.00  0.00    +0.099 A 
ATOM      2  C   UNL     1      -6.038  -7.510  -0.571  0.00  0.00    +0.030 A 
ATOM      3  C   UNL     1      -7.322  -8.069  -0.130  0.00  0.00    +0.022 A 
ATOM      4  C   UNL     1      -7.435  -9.425   0.198  0.00  0.00    +0.012 A 
ATOM      5  C   UNL     1      -8.649  -9.929   0.612  0.00  0.00    +0.004 A 
ATOM      6  C   UNL     1      -9.757  -9.102   0.705  0.00  0.00    +0.049 A 
ATOM      7  C   UNL     1      -9.662  -7.758   0.383  0.00  0.00    +0.163 A 
ATOM      8  C   UNL     1      -8.446  -7.232  -0.038  0.00  0.00    +0.179 A 
ATOM      9  O   UNL     1      -8.338  -5.918  -0.365  0.00  0.00    -0.434 OA
ATOM     10  C   UNL     1      -7.105  -5.347  -0.211  0.00  0.00    +0.225 A 
ATOM     11  N   UNL     1      -6.973  -4.144   0.272  0.00  0.00    -0.260 N 
ATOM     12  H   UNL     1      -6.091  -3.799   0.480  0.00  0.00    +0.189 HD
ENDROOT
BRANCH   1  14
ATOM     13  N   UNL     1      -3.558  -6.228  -1.226  0.00  0.00    -0.281 N 
ATOM     14  C   UNL     1      -4.672  -5.492  -1.045  0.00  0.00    +0.253 C 
ATOM     15  O   UNL     1      -4.646  -4.291  -1.237  0.00  0.00    -0.270 OA
ATOM     16  H   UNL     1      -3.602  -7.196  -1.175  0.00  0.00    +0.155 HD
BRANCH  13  21
ATOM     17  C   UNL     1       0.061  -5.578  -1.375  0.00  0.00    +0.122 A 
ATOM     18  C   UNL     1       0.077  -4.340  -2.004  0.00  0.00    +0.046 A 
ATOM     19  C   UNL     1      -1.109  -3.734  -2.371  0.00  0.00    +0.005 A 
ATOM     20  C   UNL     1      -2.315  -4.358  -2.114  0.00  0.00    +0.023 A 
ATOM     21  C   UNL     1      -2.337  -5.597  -1.486  0.00  0.00    +0.037 A 
ATOM     22  C   UNL     1      -1.146  -6.209  -1.121  0.00  0.00    +0.069 A 
BRANCH  17  23
ATOM     23  O   UNL     1       1.228  -6.172  -1.014  0.00  0.00    -0.492 OA
BRANCH  23  25
ATOM     24  C   UNL     1       3.635  -6.284  -0.831  0.00  0.00    +0.048 C 
ATOM     25  C   UNL     1       2.434  -5.464  -1.307  0.00  0.00    +0.225 C 
ENDBRANCH  23  25
ENDBRANCH  17  23
ENDBRANCH  13  21
ENDBRANCH   1  14
BRANCH  11  26
ATOM     26  N   UNL     1      -8.106  -3.348   0.489  0.00  0.00    -0.157 N 
ATOM     27  H   UNL     1      -8.992  -3.720   0.358  0.00  0.00    +0.194 HD
BRANCH  26  28
ATOM     28  S   UNL     1      -7.932  -1.773   0.968  0.00  0.00    +0.085 S 
ATOM     29  O   UNL     1      -9.201  -1.156   0.806  0.00  0.00    -0.149 OA
ATOM     30  O   UNL     1      -7.253  -1.801   2.216  0.00  0.00    -0.149 OA
BRANCH  28  31
ATOM     31  C   UNL     1      -6.844  -0.996  -0.180  0.00  0.00    +0.110 A 
ATOM     32  C   UNL     1      -5.479  -1.024   0.034  0.00  0.00    +0.029 A 
ATOM     33  C   UNL     1      -4.625  -0.415  -0.867  0.00  0.00    +0.005 A 
ATOM     34  C   UNL     1      -5.137   0.223  -1.981  0.00  0.00    -0.050 A 
ATOM     35  C   UNL     1      -6.503   0.250  -2.196  0.00  0.00    +0.005 A 
ATOM     36  C   UNL     1      -7.356  -0.363  -1.297  0.00  0.00    +0.029 A 
ATOM     37  C   UNL     1      -4.207   0.888  -2.963  0.00  0.00    +0.044 C 
ENDBRANCH  28  31
ENDBRANCH  26  28
ENDBRANCH  11  26
BRANCH   7  38
ATOM     38  O   UNL     1     -10.755  -6.955   0.477  0.00  0.00    -0.491 OA
ATOM     39  C   UNL     1     -11.971  -7.564   0.916  0.00  0.00    +0.277 C 
ENDBRANCH   7  38
TORSDOF 8
