REMARK  Name = ZINC08430842
REMARK  5 active torsions:
REMARK  status: ('A' for Active; 'I' for Inactive)
REMARK    1  A    between atoms: C_3  and  C_6
REMARK    2  A    between atoms: N_7  and  N_8
REMARK    3  A    between atoms: C_9  and  C_11
REMARK    4  A    between atoms: C_11  and  N_65
REMARK    5  A    between atoms: C_18  and  C_28
REMARK                            x       y       z     vdW  Elec       q    Type
REMARK                         _______ _______ _______ _____ _____    ______ ____
ROOT
ATOM      1  C   UNL     1      -3.201   8.976  -0.965  0.00  0.00    -0.055 C 
ATOM      2  C   UNL     1      -4.042  10.256  -1.021  0.00  0.00    +0.103 C 
ATOM      3  N   UNL     1      -3.798  11.021   0.211  0.00  0.00    -0.347 N 
ATOM      4  C   UNL     1      -4.082  12.319   0.512  0.00  0.00    +0.049 A 
ATOM      5  C   UNL     1      -4.658  13.343  -0.236  0.00  0.00    +0.027 A 
ATOM      6  C   UNL     1      -4.815  14.569   0.384  0.00  0.00    +0.006 A 
ATOM      7  C   UNL     1      -4.424  14.788   1.695  0.00  0.00    -0.044 A 
ATOM      8  C   UNL     1      -3.855  13.801   2.460  0.00  0.00    +0.014 A 
ATOM      9  C   UNL     1      -3.678  12.549   1.861  0.00  0.00    +0.003 A 
ATOM     10  C   UNL     1      -3.124  11.307   2.328  0.00  0.00    -0.020 A 
ATOM     11  C   UNL     1      -3.208  10.440   1.299  0.00  0.00    +0.009 A 
ATOM     12  C   UNL     1      -2.712   9.016   1.410  0.00  0.00    -0.020 C 
ATOM     13  C   UNL     1      -3.135   8.472   2.764  0.00  0.00    -0.009 C 
ATOM     14  C   UNL     1      -3.046   9.430   3.926  0.00  0.00    +0.003 C 
ATOM     15  C   UNL     1      -2.539  10.834   3.629  0.00  0.00    +0.037 C 
ATOM     16  N   UNL     1      -3.402   8.278   0.322  0.00  0.00    +0.392 N 
ATOM     17  H   UNL     1      -4.407   8.241   0.528  0.00  0.00    -0.080 HD
ENDROOT
BRANCH   7  18
ATOM     18  C   UNL     1      -4.631  16.152   2.301  0.00  0.00    +0.019 C 
ATOM     19  C   UNL     1      -6.122  16.497   2.282  0.00  0.00    +0.008 C 
ATOM     20  C   UNL     1      -6.332  17.882   2.897  0.00  0.00    +0.001 C 
ATOM     21  C   UNL     1      -5.557  18.923   2.086  0.00  0.00    +0.000 C 
ATOM     22  C   UNL     1      -4.066  18.578   2.106  0.00  0.00    +0.001 C 
ATOM     23  C   UNL     1      -3.856  17.193   1.491  0.00  0.00    +0.008 C 
ENDBRANCH   7  18
BRANCH  16  24
ATOM     24  C   UNL     1      -2.878   6.897   0.237  0.00  0.00    +0.021 C 
BRANCH  24  26
ATOM     25  N   UNL     1      -3.410   4.840  -1.029  0.00  0.00    -0.208 N 
ATOM     26  C   UNL     1      -3.747   6.103  -0.704  0.00  0.00    +0.216 C 
ATOM     27  O   UNL     1      -4.751   6.602  -1.169  0.00  0.00    -0.276 OA
ATOM     28  H   UNL     1      -2.608   4.441  -0.657  0.00  0.00    +0.177 HD
BRANCH  25  30
ATOM     29  C   UNL     1      -3.954   2.849  -2.132  0.00  0.00    +0.176 C 
ATOM     30  N   UNL     1      -4.219   4.102  -1.903  0.00  0.00    -0.185 NA
BRANCH  29  33
ATOM     31  C   UNL     1      -1.538   0.625  -0.533  0.00  0.00    +0.042 A 
ATOM     32  C   UNL     1      -2.589   0.843  -1.443  0.00  0.00    +0.051 A 
ATOM     33  C   UNL     1      -2.911   2.167  -1.361  0.00  0.00    +0.147 A 
ATOM     34  O   UNL     1      -2.101   2.738  -0.447  0.00  0.00    -0.462 OA
ATOM     35  C   UNL     1      -1.274   1.808   0.059  0.00  0.00    +0.196 A 
ENDBRANCH  29  33
ENDBRANCH  25  30
ENDBRANCH  24  26
ENDBRANCH  16  24
TORSDOF 5
