REMARK  Name = ZINC12564722
REMARK  10 active torsions:
REMARK  status: ('A' for Active; 'I' for Inactive)
REMARK    1  A    between atoms: C_1  and  C_2
REMARK    2  A    between atoms: C_2  and  C_4
REMARK    3  A    between atoms: C_2  and  O_12
REMARK    4  A    between atoms: C_4  and  C_6
REMARK    5  A    between atoms: O_12  and  C_13
REMARK    6  A    between atoms: C_13  and  C_15
REMARK    7  A    between atoms: C_20  and  N_21
REMARK    8  A    between atoms: N_21  and  S_22
REMARK    9  A    between atoms: S_22  and  C_25
REMARK   10  A    between atoms: C_27  and  N_32
REMARK                            x       y       z     vdW  Elec       q    Type
REMARK                         _______ _______ _______ _____ _____    ______ ____
ROOT
ATOM      1  C   UNL     1       1.194   1.955   0.443  0.00  0.00    +0.081 A 
ATOM      2  C   UNL     1       1.131   3.333   0.675  0.00  0.00    +0.017 A 
ATOM      3  C   UNL     1       2.291   4.072   0.738  0.00  0.00    +0.001 A 
ATOM      4  C   UNL     1       3.523   3.458   0.573  0.00  0.00    +0.002 A 
ATOM      5  C   UNL     1       3.602   2.100   0.343  0.00  0.00    +0.025 A 
ATOM      6  C   UNL     1       2.443   1.336   0.281  0.00  0.00    +0.062 A 
ENDROOT
BRANCH   1   7
ATOM      7  C   UNL     1      -0.043   1.158   0.374  0.00  0.00    +0.342 C 
ATOM      8  O   UNL     1       0.016  -0.039   0.172  0.00  0.00    -0.245 OA
BRANCH   7   9
ATOM      9  O   UNL     1      -1.240   1.757   0.530  0.00  0.00    -0.450 OA
BRANCH   9  11
ATOM     10  C   UNL     1      -2.764   0.377   1.835  0.00  0.00    +0.061 C 
ATOM     11  C   UNL     1      -2.417   0.911   0.444  0.00  0.00    +0.244 C 
BRANCH  11  12
ATOM     12  C   UNL     1      -3.576   1.714  -0.089  0.00  0.00    +0.203 C 
ATOM     13  O   UNL     1      -3.514   2.924  -0.113  0.00  0.00    -0.288 OA
BRANCH  12  14
ATOM     14  C   UNL     1      -4.782   1.028  -0.580  0.00  0.00    +0.021 A 
ATOM     15  C   UNL     1      -4.854  -0.368  -0.560  0.00  0.00    +0.011 A 
ATOM     16  C   UNL     1      -5.989  -1.003  -1.018  0.00  0.00    +0.001 A 
ATOM     17  C   UNL     1      -7.051  -0.262  -1.506  0.00  0.00    +0.000 A 
ATOM     18  C   UNL     1      -6.985   1.120  -1.535  0.00  0.00    +0.001 A 
ATOM     19  C   UNL     1      -5.859   1.770  -1.076  0.00  0.00    +0.011 A 
ENDBRANCH  12  14
ENDBRANCH  11  12
ENDBRANCH   9  11
ENDBRANCH   7   9
ENDBRANCH   1   7
BRANCH   6  20
ATOM     20  N   UNL     1       2.520  -0.032   0.055  0.00  0.00    -0.215 N 
ATOM     21  H   UNL     1       1.841  -0.474  -0.478  0.00  0.00    +0.174 HD
BRANCH  20  22
ATOM     22  S   UNL     1       3.771  -0.907   0.696  0.00  0.00    +0.074 S 
ATOM     23  O   UNL     1       3.910  -0.488   2.047  0.00  0.00    -0.150 OA
ATOM     24  O   UNL     1       3.542  -2.264   0.340  0.00  0.00    -0.150 OA
BRANCH  22  25
ATOM     25  C   UNL     1       5.239  -0.408  -0.140  0.00  0.00    +0.129 A 
ATOM     26  C   UNL     1       6.258   0.211   0.561  0.00  0.00    +0.063 A 
ATOM     27  C   UNL     1       7.410   0.603  -0.095  0.00  0.00    +0.128 A 
ATOM     28  C   UNL     1       7.544   0.376  -1.452  0.00  0.00    +0.034 A 
ATOM     29  C   UNL     1       6.527  -0.242  -2.154  0.00  0.00    +0.024 A 
ATOM     30  C   UNL     1       5.376  -0.640  -1.497  0.00  0.00    +0.068 A 
ATOM     31 CL   UNL     1       4.100  -1.423  -2.376  0.00  0.00    -0.082 Cl
BRANCH  27  32
ATOM     32  N   UNL     1       8.499   1.265   0.657  0.00  0.00    +0.056 N 
ATOM     33  O   UNL     1       8.381   1.464   1.852  0.00  0.00    -0.126 OA
ATOM     34  O   UNL     1       9.515   1.610   0.079  0.00  0.00    -0.126 OA
ENDBRANCH  27  32
ENDBRANCH  22  25
ENDBRANCH  20  22
ENDBRANCH   6  20
TORSDOF 9
