REMARK  Name = ZINC16880724
REMARK  8 active torsions:
REMARK  status: ('A' for Active; 'I' for Inactive)
REMARK    1  A    between atoms: C_1  and  C_2
REMARK    2  A    between atoms: C_4  and  C_24
REMARK    3  A    between atoms: C_5  and  C_9
REMARK    4  A    between atoms: C_6  and  C_8
REMARK    5  A    between atoms: C_9  and  N_10
REMARK    6  A    between atoms: C_13  and  C_19
REMARK    7  A    between atoms: C_14  and  C_18
REMARK    8  A    between atoms: C_16  and  O_17
REMARK                            x       y       z     vdW  Elec       q    Type
REMARK                         _______ _______ _______ _____ _____    ______ ____
ROOT
ATOM      1  N   UNL     1       1.695   0.187  -2.838  0.00  0.00    -0.258 N 
ATOM      2  C   UNL     1       2.265  -0.811  -3.546  0.00  0.00    +0.261 A 
ATOM      3  O   UNL     1       1.618  -1.793  -3.870  0.00  0.00    -0.267 OA
ATOM      4  C   UNL     1       3.622  -0.698  -3.901  0.00  0.00    +0.041 A 
ATOM      5  C   UNL     1       4.311   0.415  -3.519  0.00  0.00    +0.052 A 
ATOM      6  N   UNL     1       3.700   1.372  -2.822  0.00  0.00    -0.201 NA
ATOM      7  C   UNL     1       2.431   1.274  -2.491  0.00  0.00    +0.299 A 
ATOM      8  C   UNL     1       5.765   0.564  -3.886  0.00  0.00    +0.066 C 
ENDROOT
BRANCH   4   9
ATOM      9  C   UNL     1       4.302  -1.787  -4.690  0.00  0.00    +0.026 C 
ATOM     10  C   UNL     1       3.562  -2.013  -6.025  0.00  0.00    +0.008 C 
ATOM     11  C   UNL     1       3.635  -3.545  -6.244  0.00  0.00    +0.001 C 
ATOM     12  C   UNL     1       3.456  -4.105  -4.811  0.00  0.00    +0.001 C 
ATOM     13  C   UNL     1       4.235  -3.117  -3.919  0.00  0.00    +0.008 C 
ENDBRANCH   4   9
BRANCH   7  14
ATOM     14  O   UNL     1       1.851   2.269  -1.789  0.00  0.00    -0.479 OA
ATOM     15  H   UNL     1       2.407   3.027  -1.560  0.00  0.00    +0.295 HD
ENDBRANCH   7  14
BRANCH   1  16
ATOM     16  C   UNL     1       0.284   0.100  -2.451  0.00  0.00    +0.165 C 
BRANCH  16  21
ATOM     17  C   UNL     1      -0.228  -3.339   2.164  0.00  0.00    +0.044 C 
ATOM     18  C   UNL     1      -0.097  -2.441   0.961  0.00  0.00    -0.050 A 
ATOM     19  C   UNL     1       0.348  -1.141   1.113  0.00  0.00    +0.007 A 
ATOM     20  C   UNL     1       0.469  -0.318   0.009  0.00  0.00    -0.045 A 
ATOM     21  C   UNL     1       0.148  -0.795  -1.247  0.00  0.00    -0.022 A 
ATOM     22  C   UNL     1      -0.303  -2.093  -1.399  0.00  0.00    -0.045 A 
ATOM     23  C   UNL     1      -0.423  -2.917  -0.295  0.00  0.00    +0.007 A 
ATOM     24  C   UNL     1      -0.658  -2.612  -2.768  0.00  0.00    +0.044 C 
ATOM     25  C   UNL     1       0.955   1.099   0.176  0.00  0.00    +0.044 C 
ENDBRANCH  16  21
ENDBRANCH   1  16
TORSDOF 4
