REMARK  Name = ZINC21724347
REMARK  5 active torsions:
REMARK  status: ('A' for Active; 'I' for Inactive)
REMARK    1  A    between atoms: C_9  and  N_11
REMARK    2  A    between atoms: C_12  and  C_14
REMARK    3  A    between atoms: N_17  and  C_20
REMARK    4  A    between atoms: C_20  and  C_21
REMARK    5  A    between atoms: C_23  and  C_26
REMARK                            x       y       z     vdW  Elec       q    Type
REMARK                         _______ _______ _______ _____ _____    ______ ____
ROOT
ATOM      1  C   UNL     1       4.445   3.542   3.112  0.00  0.00    +0.071 C 
ATOM      2  C   UNL     1       5.089   4.922   3.272  0.00  0.00    -0.006 C 
ATOM      3  C   UNL     1       5.748   5.014   4.650  0.00  0.00    -0.078 C 
ATOM      4  N   UNL     1       6.762   3.961   4.783  0.00  0.00    +0.385 N 
ATOM      5  C   UNL     1       6.158   2.626   4.680  0.00  0.00    -0.078 C 
ATOM      6  C   UNL     1       5.513   2.462   3.302  0.00  0.00    -0.006 C 
ATOM      7  H   UNL     1       7.472   4.073   3.950  0.00  0.00    -0.081 HD
ENDROOT
BRANCH   1   9
ATOM      8  N   UNL     1       2.882   4.277   1.341  0.00  0.00    -0.308 N 
ATOM      9  C   UNL     1       3.848   3.422   1.733  0.00  0.00    +0.216 C 
ATOM     10  O   UNL     1       4.236   2.557   0.977  0.00  0.00    -0.276 OA
ATOM     11  H   UNL     1       2.530   5.062   2.026  0.00  0.00    +0.149 HD
BRANCH   8  20
ATOM     12  C   UNL     1      -1.219   1.751   0.017  0.00  0.00    +0.000 A 
ATOM     13  C   UNL     1      -0.013   1.076   0.008  0.00  0.00    +0.000 A 
ATOM     14  C   UNL     1       1.173   1.783   0.000  0.00  0.00    +0.006 A 
ATOM     15  C   UNL     1       1.159   3.168   0.008  0.00  0.00    -0.024 A 
ATOM     16  C   UNL     1      -0.047   3.844   0.023  0.00  0.00    -0.042 A 
ATOM     17  C   UNL     1      -1.235   3.132   0.031  0.00  0.00    +0.004 A 
ATOM     18  C   UNL     1       0.203   5.336   0.027  0.00  0.00    +0.037 C 
ATOM     19  C   UNL     1       1.669   5.502  -0.427  0.00  0.00    +0.032 C 
ATOM     20  C   UNL     1       2.302   4.161   0.001  0.00  0.00    +0.104 C 
ENDBRANCH   8  20
ENDBRANCH   1   9
BRANCH   4  21
ATOM     21  C   UNL     1       7.510   4.105   6.039  0.00  0.00    +0.002 C 
BRANCH  21  22
ATOM     22  C   UNL     1       8.312   5.380   6.003  0.00  0.00    +0.156 A 
ATOM     23  N   UNL     1       7.900   6.588   6.418  0.00  0.00    -0.194 NA
ATOM     24  C   UNL     1       8.918   7.403   6.202  0.00  0.00    +0.258 A 
ATOM     25  O   UNL     1       9.899   6.660   5.667  0.00  0.00    -0.333 OA
ATOM     26  N   UNL     1       9.531   5.508   5.568  0.00  0.00    -0.063 NA
BRANCH  24  27
ATOM     27  C   UNL     1       8.966   8.851   6.492  0.00  0.00    +0.040 A 
ATOM     28  C   UNL     1       7.856   9.491   7.047  0.00  0.00    +0.016 A 
ATOM     29  C   UNL     1       7.908  10.841   7.321  0.00  0.00    +0.039 A 
ATOM     30  C   UNL     1       9.055  11.565   7.035  0.00  0.00    +0.123 A 
ATOM     31  C   UNL     1      10.158  10.936   6.479  0.00  0.00    +0.039 A 
ATOM     32  C   UNL     1      10.119   9.585   6.206  0.00  0.00    +0.016 A 
ATOM     33  F   UNL     1       9.099  12.890   7.299  0.00  0.00    -0.205 F 
ENDBRANCH  24  27
ENDBRANCH  21  22
ENDBRANCH   4  21
TORSDOF 5
