REMARK  Name = ZINC02363036
REMARK  11 active torsions:
REMARK  status: ('A' for Active; 'I' for Inactive)
REMARK    1  A    between atoms: C_1  and  C_2
REMARK    2  A    between atoms: C_2  and  C_3
REMARK    3  A    between atoms: C_3  and  N_4
REMARK    4  A    between atoms: C_18  and  C_34
REMARK    5  A    between atoms: C_19  and  C_27
REMARK    6  A    between atoms: C_20  and  C_22
REMARK    7  A    between atoms: C_27  and  O_29
REMARK    8  A    between atoms: O_29  and  C_30
REMARK    9  A    between atoms: C_30  and  C_31
REMARK   10  A    between atoms: C_31  and  O_32
REMARK   11  A    between atoms: O_32  and  C_33
REMARK                            x       y       z     vdW  Elec       q    Type
REMARK                         _______ _______ _______ _____ _____    ______ ____
ROOT
ATOM      1  N   UNL     1       5.976   2.858   6.317  0.00  0.00    -0.267 N 
ATOM      2  C   UNL     1       4.916   2.001   6.590  0.00  0.00    +0.044 A 
ATOM      3  C   UNL     1       4.248   1.706   7.773  0.00  0.00    +0.024 A 
ATOM      4  C   UNL     1       3.206   0.800   7.773  0.00  0.00    +0.002 A 
ATOM      5  C   UNL     1       2.813   0.175   6.600  0.00  0.00    +0.001 A 
ATOM      6  C   UNL     1       3.464   0.454   5.416  0.00  0.00    +0.010 A 
ATOM      7  C   UNL     1       4.515   1.367   5.405  0.00  0.00    +0.010 A 
ATOM      8  C   UNL     1       5.399   1.879   4.337  0.00  0.00    +0.065 C 
ATOM      9  C   UNL     1       5.383   1.541   2.998  0.00  0.00    +0.093 A 
ATOM     10  C   UNL     1       4.402   0.727   2.244  0.00  0.00    +0.269 A 
ATOM     11  O   UNL     1       3.434   0.240   2.794  0.00  0.00    -0.266 OA
ATOM     12  N   UNL     1       4.618   0.547   0.934  0.00  0.00    -0.274 N 
ATOM     13  C   UNL     1       5.730   1.121   0.363  0.00  0.00    +0.178 A 
ATOM     14  N   UNL     1       6.040   1.012  -0.902  0.00  0.00    -0.228 NA
ATOM     15  C   UNL     1       5.331   0.339  -1.802  0.00  0.00    +0.053 C 
ATOM     16  C   UNL     1       4.185  -0.308  -1.440  0.00  0.00    +0.085 C 
ATOM     17  C   UNL     1       3.753  -0.234   0.006  0.00  0.00    +0.168 C 
ATOM     18  C   UNL     1       5.796   0.290  -3.235  0.00  0.00    +0.066 C 
ATOM     19  S   UNL     1       6.538   1.967   1.707  0.00  0.00    -0.045 S 
ATOM     20  C   UNL     1       6.309   2.826   5.015  0.00  0.00    +0.253 C 
ATOM     21  O   UNL     1       7.199   3.466   4.487  0.00  0.00    -0.270 OA
ENDROOT
BRANCH  17  22
ATOM     22  C   UNL     1       2.370   0.364   0.046  0.00  0.00    +0.017 A 
ATOM     23  C   UNL     1       1.170  -0.263   0.109  0.00  0.00    +0.013 A 
ATOM     24  C   UNL     1       0.017   0.499   0.137  0.00  0.00    +0.008 A 
ATOM     25  C   UNL     1       0.120   1.850   0.101  0.00  0.00    +0.045 A 
ATOM     26  S   UNL     1       1.889   2.083   0.026  0.00  0.00    -0.099 S 
ENDBRANCH  17  22
BRANCH  16  27
ATOM     27  C   UNL     1       3.429  -1.024  -2.386  0.00  0.00    +0.339 C 
ATOM     28  O   UNL     1       3.733  -0.986  -3.565  0.00  0.00    -0.245 OA
BRANCH  27  29
ATOM     29  O   UNL     1       2.364  -1.754  -1.988  0.00  0.00    -0.459 OA
BRANCH  29  30
ATOM     30  C   UNL     1       1.642  -2.455  -3.002  0.00  0.00    +0.260 C 
BRANCH  30  31
ATOM     31  C   UNL     1       0.479  -3.219  -2.364  0.00  0.00    +0.200 C 
BRANCH  31  32
ATOM     32  O   UNL     1      -0.454  -2.289  -1.809  0.00  0.00    -0.380 OA
ATOM     33  C   UNL     1      -1.584  -2.903  -1.185  0.00  0.00    +0.194 C 
ENDBRANCH  31  32
ENDBRANCH  30  31
ENDBRANCH  29  30
ENDBRANCH  27  29
ENDBRANCH  16  27
BRANCH   1  34
ATOM     34  C   UNL     1       6.649   3.686   7.321  0.00  0.00    +0.114 C 
BRANCH  34  36
ATOM     35  C   UNL     1       8.518   3.768   8.977  0.00  0.00    +0.005 C 
ATOM     36  C   UNL     1       7.815   2.904   7.928  0.00  0.00    +0.016 C 
ENDBRANCH  34  36
ENDBRANCH   1  34
TORSDOF 8
