REMARK  Name = ZINC25767776
REMARK  3 active torsions:
REMARK  status: ('A' for Active; 'I' for Inactive)
REMARK    1  A    between atoms: C_1  and  C_2
REMARK    2  A    between atoms: C_8  and  C_12
REMARK    3  A    between atoms: N_14  and  C_15
REMARK                            x       y       z     vdW  Elec       q    Type
REMARK                         _______ _______ _______ _____ _____    ______ ____
ROOT
ATOM      1  C   UNL     1      -0.787  -1.109   4.928  0.00  0.00    +0.239 C 
ATOM      2  O   UNL     1      -0.778  -1.440   6.095  0.00  0.00    -0.273 OA
ATOM      3  N   UNL     1      -0.468   0.154   4.583  0.00  0.00    -0.284 N 
ATOM      4  H   UNL     1      -0.400   0.399   3.647  0.00  0.00    +0.155 HD
ENDROOT
BRANCH   3   5
ATOM      5  C   UNL     1      -0.232   1.113   5.577  0.00  0.00    +0.037 A 
ATOM      6  C   UNL     1       0.698   2.121   5.362  0.00  0.00    +0.027 A 
ATOM      7  C   UNL     1       0.932   3.068   6.341  0.00  0.00    +0.051 A 
ATOM      8  C   UNL     1       0.238   3.015   7.537  0.00  0.00    +0.167 A 
ATOM      9  C   UNL     1      -0.698   2.004   7.755  0.00  0.00    +0.169 A 
ATOM     10  C   UNL     1      -0.934   1.059   6.774  0.00  0.00    +0.073 A 
ATOM     11  O   UNL     1      -1.239   2.180   9.002  0.00  0.00    -0.447 OA
ATOM     12  C   UNL     1      -0.269   2.985   9.688  0.00  0.00    +0.254 C 
ATOM     13  O   UNL     1       0.276   3.814   8.652  0.00  0.00    -0.448 OA
ATOM     14  C   UNL     1       0.815   2.118  10.337  0.00  0.00    +0.093 C 
ATOM     15  C   UNL     1       1.169   2.876  11.643  0.00  0.00    +0.008 C 
ATOM     16  C   UNL     1      -0.204   3.428  12.105  0.00  0.00    +0.008 C 
ATOM     17  C   UNL     1      -0.916   3.822  10.791  0.00  0.00    +0.093 C 
ENDBRANCH   3   5
BRANCH   1  25
ATOM     18  C   UNL     1       0.694  -4.442   5.310  0.00  0.00    +0.044 C 
ATOM     19  C   UNL     1      -0.433  -4.444   4.275  0.00  0.00    +0.082 C 
ATOM     20  C   UNL     1      -1.224  -5.761   4.253  0.00  0.00    +0.046 C 
ATOM     21  C   UNL     1      -2.325  -5.444   5.295  0.00  0.00    +0.099 C 
ATOM     22  C   UNL     1      -2.461  -3.939   5.248  0.00  0.00    +0.217 C 
ATOM     23  O   UNL     1      -3.345  -3.308   5.788  0.00  0.00    -0.276 OA
ATOM     24  N   UNL     1      -1.454  -3.392   4.516  0.00  0.00    -0.275 N 
ATOM     25  C   UNL     1      -1.156  -2.111   3.864  0.00  0.00    +0.173 C 
ATOM     26  C   UNL     1      -0.009  -2.161   2.827  0.00  0.00    +0.103 C 
ATOM     27  S   UNL     1       0.139  -3.989   2.585  0.00  0.00    -0.133 S 
ENDBRANCH   1  25
TORSDOF 2
