REMARK  Name = ZINC64985412
REMARK  8 active torsions:
REMARK  status: ('A' for Active; 'I' for Inactive)
REMARK    1  A    between atoms: C_1  and  C_2
REMARK    2  A    between atoms: C_2  and  C_3
REMARK    3  A    between atoms: C_2  and  O_4
REMARK    4  A    between atoms: O_4  and  C_5
REMARK    5  A    between atoms: C_8  and  N_11
REMARK    6  A    between atoms: C_12  and  C_14
REMARK    7  A    between atoms: N_17  and  S_25
REMARK    8  A    between atoms: S_25  and  C_28
REMARK                            x       y       z     vdW  Elec       q    Type
REMARK                         _______ _______ _______ _____ _____    ______ ____
ROOT
ATOM      1  C   UNL     1      -4.181  -6.972  -3.659  0.00  0.00    +0.278 C 
ATOM      2  C   UNL     1      -3.650  -6.612  -5.053  0.00  0.00    +0.186 C 
ATOM      3  N   UNL     1      -4.114  -7.651  -5.989  0.00  0.00    -0.195 N 
ATOM      4  C   UNL     1      -5.437  -8.104  -5.857  0.00  0.00    +0.093 A 
ATOM      5  C   UNL     1      -6.018  -8.855  -6.866  0.00  0.00    +0.028 A 
ATOM      6  C   UNL     1      -7.319  -9.302  -6.730  0.00  0.00    +0.002 A 
ATOM      7  C   UNL     1      -8.040  -8.999  -5.589  0.00  0.00    +0.004 A 
ATOM      8  C   UNL     1      -7.465  -8.249  -4.580  0.00  0.00    +0.047 A 
ATOM      9  C   UNL     1      -6.161  -7.795  -4.708  0.00  0.00    +0.144 A 
ATOM     10  O   UNL     1      -5.607  -7.054  -3.712  0.00  0.00    -0.476 OA
ENDROOT
BRANCH   1  12
ATOM     11  N   UNL     1      -2.469  -5.721  -2.385  0.00  0.00    -0.282 N 
ATOM     12  C   UNL     1      -3.772  -5.909  -2.672  0.00  0.00    +0.260 C 
ATOM     13  O   UNL     1      -4.616  -5.222  -2.137  0.00  0.00    -0.271 OA
ATOM     14  H   UNL     1      -1.800  -6.316  -2.757  0.00  0.00    +0.155 HD
BRANCH  11  18
ATOM     15  C   UNL     1      -1.313  -2.579   0.101  0.00  0.00    +0.121 A 
ATOM     16  C   UNL     1      -2.505  -3.249   0.339  0.00  0.00    +0.047 A 
ATOM     17  C   UNL     1      -2.888  -4.290  -0.484  0.00  0.00    +0.027 A 
ATOM     18  C   UNL     1      -2.081  -4.665  -1.550  0.00  0.00    +0.034 A 
ATOM     19  C   UNL     1      -0.888  -3.994  -1.787  0.00  0.00    +0.027 A 
ATOM     20  C   UNL     1      -0.509  -2.950  -0.967  0.00  0.00    +0.047 A 
BRANCH  15  21
ATOM     21  O   UNL     1      -0.936  -1.555   0.912  0.00  0.00    -0.489 OA
BRANCH  21  23
ATOM     22  C   UNL     1       0.104   0.624   1.006  0.00  0.00    +0.051 C 
ATOM     23  C   UNL     1       0.234  -0.826   0.536  0.00  0.00    +0.167 C 
ATOM     24  C   UNL     1       1.463  -1.465   1.185  0.00  0.00    +0.051 C 
ENDBRANCH  21  23
ENDBRANCH  15  21
ENDBRANCH  11  18
ENDBRANCH   1  12
BRANCH   3  25
ATOM     25  S   UNL     1      -3.112  -8.263  -7.156  0.00  0.00    +0.075 S 
ATOM     26  O   UNL     1      -1.784  -7.950  -6.756  0.00  0.00    -0.150 OA
ATOM     27  O   UNL     1      -3.540  -9.596  -7.401  0.00  0.00    -0.150 OA
BRANCH  25  28
ATOM     28  C   UNL     1      -3.419  -7.356  -8.635  0.00  0.00    +0.109 A 
ATOM     29  C   UNL     1      -4.387  -7.787  -9.522  0.00  0.00    +0.029 A 
ATOM     30  C   UNL     1      -4.628  -7.076 -10.682  0.00  0.00    +0.002 A 
ATOM     31  C   UNL     1      -3.901  -5.932 -10.955  0.00  0.00    +0.000 A 
ATOM     32  C   UNL     1      -2.934  -5.500 -10.067  0.00  0.00    +0.002 A 
ATOM     33  C   UNL     1      -2.696  -6.209  -8.905  0.00  0.00    +0.029 A 
ENDBRANCH  25  28
ENDBRANCH   3  25
TORSDOF 6
