REMARK  Name = ZINC63138647
REMARK  8 active torsions:
REMARK  status: ('A' for Active; 'I' for Inactive)
REMARK    1  A    between atoms: C_1  and  C_2
REMARK    2  A    between atoms: C_2  and  C_3
REMARK    3  A    between atoms: C_2  and  O_4
REMARK    4  A    between atoms: O_4  and  C_5
REMARK    5  A    between atoms: C_5  and  C_6
REMARK    6  A    between atoms: C_6  and  C_7
REMARK    7  A    between atoms: C_7  and  N_8
REMARK    8  A    between atoms: C_28  and  C_30
REMARK                            x       y       z     vdW  Elec       q    Type
REMARK                         _______ _______ _______ _____ _____    ______ ____
ROOT
ATOM      1  N   UNL     1      -5.295  -1.936  -2.454  0.00  0.00    -0.291 N 
ATOM      2  C   UNL     1      -5.492  -3.374  -2.398  0.00  0.00    +0.203 C 
ATOM      3  C   UNL     1      -6.934  -3.742  -2.273  0.00  0.00    +0.234 C 
ATOM      4  O   UNL     1      -7.212  -4.921  -2.220  0.00  0.00    -0.274 OA
ATOM      5  N   UNL     1      -7.941  -2.862  -2.215  0.00  0.00    -0.279 N 
ATOM      6  C   UNL     1      -7.730  -1.419  -2.251  0.00  0.00    +0.167 C 
ATOM      7  C   UNL     1      -6.288  -1.052  -2.383  0.00  0.00    +0.237 C 
ATOM      8  O   UNL     1      -6.005   0.126  -2.433  0.00  0.00    -0.274 OA
ATOM      9  C   UNL     1      -8.310  -0.771  -0.980  0.00  0.00    +0.065 C 
ATOM     10  C   UNL     1      -9.681  -1.370  -0.781  0.00  0.00    -0.034 C 
ATOM     11  C   UNL     1     -10.867  -0.808  -0.584  0.00  0.00    -0.001 A 
ATOM     12  C   UNL     1     -11.265   0.594  -0.378  0.00  0.00    +0.010 A 
ATOM     13  C   UNL     1     -12.597   0.822  -0.227  0.00  0.00    +0.001 A 
ATOM     14  C   UNL     1     -13.560  -0.191  -0.259  0.00  0.00    +0.002 A 
ATOM     15  C   UNL     1     -13.282  -1.508  -0.433  0.00  0.00    +0.026 A 
ATOM     16  C   UNL     1     -11.915  -1.874  -0.596  0.00  0.00    +0.043 A 
ATOM     17  N   UNL     1     -11.371  -3.045  -0.754  0.00  0.00    -0.375 N 
ATOM     18  C   UNL     1      -9.918  -2.876  -0.800  0.00  0.00    +0.131 C 
ATOM     19  C   UNL     1      -9.318  -3.395  -2.110  0.00  0.00    +0.133 C 
ATOM     20  H   UNL     1     -11.847  -3.887  -0.828  0.00  0.00    +0.160 HD
ENDROOT
BRANCH  19  21
ATOM     21  C   UNL     1      -9.284  -4.901  -2.095  0.00  0.00    -0.025 A 
ATOM     22  C   UNL     1      -9.093  -5.576  -0.904  0.00  0.00    +0.006 A 
ATOM     23  C   UNL     1      -9.062  -6.958  -0.889  0.00  0.00    +0.015 A 
ATOM     24  C   UNL     1      -9.222  -7.665  -2.067  0.00  0.00    +0.018 A 
ATOM     25  C   UNL     1      -9.412  -6.990  -3.259  0.00  0.00    +0.015 A 
ATOM     26  C   UNL     1      -9.448  -5.608  -3.272  0.00  0.00    +0.006 A 
ATOM     27 BR   UNL     1      -9.178  -9.556  -2.048  0.00  0.00    -0.050 Br
ENDBRANCH  19  21
BRANCH   1  28
ATOM     28  C   UNL     1      -3.926  -1.430  -2.590  0.00  0.00    +0.110 C 
BRANCH  28  29
ATOM     29  C   UNL     1      -3.319  -1.222  -1.201  0.00  0.00    +0.047 C 
BRANCH  29  30
ATOM     30  C   UNL     1      -1.890  -0.693  -1.343  0.00  0.00    +0.161 C 
BRANCH  30  31
ATOM     31  O   UNL     1      -1.323  -0.499  -0.045  0.00  0.00    -0.377 OA
BRANCH  31  33
ATOM     32  C   UNL     1      -0.003   1.525  -0.057  0.00  0.00    +0.037 C 
ATOM     33  C   UNL     1       0.017  -0.004  -0.065  0.00  0.00    +0.112 C 
ATOM     34  C   UNL     1       0.766  -0.511   1.169  0.00  0.00    +0.037 C 
ENDBRANCH  31  33
ENDBRANCH  30  31
ENDBRANCH  29  30
ENDBRANCH  28  29
ENDBRANCH   1  28
TORSDOF 6
