REMARK  Name = ZINC28680707
REMARK  11 active torsions:
REMARK  status: ('A' for Active; 'I' for Inactive)
REMARK    1  A    between atoms: C_1  and  C_2
REMARK    2  A    between atoms: C_2  and  O_3
REMARK    3  A    between atoms: O_3  and  C_4
REMARK    4  A    between atoms: C_11  and  C_18
REMARK    5  A    between atoms: C_13  and  O_14
REMARK    6  A    between atoms: C_18  and  O_19
REMARK    7  A    between atoms: O_19  and  C_20
REMARK    8  A    between atoms: C_20  and  C_22
REMARK    9  A    between atoms: C_22  and  N_23
REMARK   10  A    between atoms: C_24  and  C_26
REMARK   11  A    between atoms: C_29  and  C_32
REMARK                            x       y       z     vdW  Elec       q    Type
REMARK                         _______ _______ _______ _____ _____    ______ ____
ROOT
ATOM      1  C   UNL     1      10.766 -11.792  -0.654  0.00  0.00    +0.405 C 
ATOM      2  O   UNL     1       9.805 -12.324  -1.175  0.00  0.00    -0.226 OA
ATOM      3  N   UNL     1      10.657 -10.546  -0.154  0.00  0.00    -0.251 N 
ATOM      4  C   UNL     1       9.416  -9.908  -0.133  0.00  0.00    +0.040 A 
ATOM      5  C   UNL     1       9.345  -8.526  -0.308  0.00  0.00    +0.024 A 
ATOM      6  C   UNL     1       8.139  -7.888  -0.290  0.00  0.00    +0.014 A 
ATOM      7  C   UNL     1       6.965  -8.626  -0.100  0.00  0.00    +0.024 A 
ATOM      8  C   UNL     1       5.658  -7.967  -0.069  0.00  0.00    +0.007 A 
ATOM      9  C   UNL     1       4.555  -8.736   0.125  0.00  0.00    +0.095 A 
ATOM     10  C   UNL     1       4.693 -10.129   0.295  0.00  0.00    +0.285 A 
ATOM     11  O   UNL     1       5.895 -10.727   0.272  0.00  0.00    -0.425 OA
ATOM     12  C   UNL     1       7.030 -10.020   0.083  0.00  0.00    +0.141 A 
ATOM     13  C   UNL     1       8.263 -10.653   0.062  0.00  0.00    +0.070 A 
ATOM     14  H   UNL     1      11.547 -10.031   0.238  0.00  0.00    +0.158 HD
ENDROOT
BRANCH  10  15
ATOM     15  O   UNL     1       3.696 -10.807   0.469  0.00  0.00    -0.480 OA
ATOM     16  H   UNL     1       3.788 -11.895   0.603  0.00  0.00    +0.295 HD
ENDBRANCH  10  15
BRANCH   1  17
ATOM     17  O   UNL     1      11.939 -12.449  -0.577  0.00  0.00    -0.450 OA
BRANCH  17  19
ATOM     18  C   UNL     1      13.386 -14.370  -0.958  0.00  0.00    +0.048 C 
ATOM     19  C   UNL     1      11.983 -13.788  -1.137  0.00  0.00    +0.230 C 
ENDBRANCH  17  19
ENDBRANCH   1  17
BRANCH   8  20
ATOM     20  C   UNL     1       5.538  -6.476  -0.255  0.00  0.00    +0.268 C 
BRANCH  20  21
ATOM     21  O   UNL     1       4.140  -6.090  -0.187  0.00  0.00    -0.459 OA
BRANCH  21  22
ATOM     22  C   UNL     1       3.860  -4.786  -0.334  0.00  0.00    +0.325 C 
ATOM     23  O   UNL     1       4.753  -3.993  -0.514  0.00  0.00    -0.249 OA
BRANCH  22  24
ATOM     24  C   UNL     1       2.431  -4.311  -0.275  0.00  0.00    +0.225 C 
BRANCH  24  25
ATOM     25  N   UNL     1       2.391  -2.858  -0.463  0.00  0.00    -0.301 N 
ATOM     26  C   UNL     1       1.210  -2.209  -0.448  0.00  0.00    +0.245 C 
ATOM     27  O   UNL     1       0.178  -2.829  -0.279  0.00  0.00    -0.270 OA
ATOM     28  H   UNL     1       3.325  -2.298  -0.615  0.00  0.00    +0.150 HD
BRANCH  26  29
ATOM     29  C   UNL     1       1.169  -0.744  -0.636  0.00  0.00    +0.037 A 
ATOM     30  C   UNL     1      -0.052  -0.068  -0.621  0.00  0.00    +0.013 A 
ATOM     31  C   UNL     1      -0.083   1.300  -0.798  0.00  0.00    +0.013 A 
ATOM     32  C   UNL     1       1.094   2.002  -0.989  0.00  0.00    +0.055 A 
ATOM     33  C   UNL     1       2.308   1.339  -1.005  0.00  0.00    +0.013 A 
ATOM     34  C   UNL     1       2.353  -0.029  -0.830  0.00  0.00    +0.013 A 
BRANCH  32  35
ATOM     35  C   UNL     1       1.053   3.496  -1.181  0.00  0.00    +0.417 C 
ATOM     36  F   UNL     1       1.150   4.129   0.062  0.00  0.00    -0.166 F 
ATOM     37  F   UNL     1       2.123   3.892  -1.991  0.00  0.00    -0.166 F 
ATOM     38  F   UNL     1      -0.152   3.854  -1.794  0.00  0.00    -0.166 F 
ENDBRANCH  32  35
ENDBRANCH  26  29
ENDBRANCH  24  25
ENDBRANCH  22  24
ENDBRANCH  21  22
ENDBRANCH  20  21
ENDBRANCH   8  20
TORSDOF 10
