REMARK  Name = ZINC16834502
REMARK  6 active torsions:
REMARK  status: ('A' for Active; 'I' for Inactive)
REMARK    1  A    between atoms: C_5  and  N_7
REMARK    2  A    between atoms: N_10  and  C_13
REMARK    3  A    between atoms: C_13  and  N_14
REMARK    4  A    between atoms: N_17  and  C_27
REMARK    5  A    between atoms: C_18  and  C_20
REMARK    6  A    between atoms: C_20  and  N_21
REMARK                            x       y       z     vdW  Elec       q    Type
REMARK                         _______ _______ _______ _____ _____    ______ ____
ROOT
ATOM      1  N   UNL     1       2.868  -6.850  -0.979  0.00  0.00    -0.226 N 
ATOM      2  C   UNL     1       2.100  -7.817  -0.434  0.00  0.00    +0.184 A 
ATOM      3  S   UNL     1       1.718  -7.994   1.225  0.00  0.00    -0.011 S 
ATOM      4  N   UNL     1       1.689  -8.618  -1.438  0.00  0.00    -0.277 N 
ATOM      5  C   UNL     1       2.211  -8.138  -2.616  0.00  0.00    +0.120 A 
ATOM      6  N   UNL     1       2.912  -7.080  -2.361  0.00  0.00    -0.156 NA
ENDROOT
BRANCH   4   7
ATOM      7  C   UNL     1       0.870  -9.748  -1.303  0.00  0.00    +0.050 A 
ATOM      8  C   UNL     1       1.352 -10.883  -0.666  0.00  0.00    +0.029 A 
ATOM      9  C   UNL     1       0.544 -11.996  -0.534  0.00  0.00    +0.040 A 
ATOM     10  C   UNL     1      -0.746 -11.979  -1.038  0.00  0.00    +0.124 A 
ATOM     11  C   UNL     1      -1.228 -10.847  -1.674  0.00  0.00    +0.040 A 
ATOM     12  C   UNL     1      -0.425  -9.731  -1.802  0.00  0.00    +0.029 A 
ATOM     13  F   UNL     1      -1.536 -13.068  -0.908  0.00  0.00    -0.205 F 
ENDBRANCH   4   7
BRANCH   1  14
ATOM     14  C   UNL     1       3.528  -5.758  -0.259  0.00  0.00    +0.233 C 
BRANCH  14  18
ATOM     15  N   UNL     1       2.315  -1.796  -0.925  0.00  0.00    -0.325 N 
ATOM     16  C   UNL     1       2.099  -2.343   0.423  0.00  0.00    +0.120 C 
ATOM     17  C   UNL     1       3.017  -3.556   0.609  0.00  0.00    +0.105 C 
ATOM     18  N   UNL     1       2.795  -4.506  -0.490  0.00  0.00    -0.281 NA
ATOM     19  C   UNL     1       3.157  -3.915  -1.786  0.00  0.00    +0.105 C 
ATOM     20  C   UNL     1       2.239  -2.716  -2.070  0.00  0.00    +0.120 C 
BRANCH  15  25
ATOM     21  C   UNL     1       1.798   1.800  -1.491  0.00  0.00    +0.002 A 
ATOM     22  C   UNL     1       3.103   2.257  -1.489  0.00  0.00    +0.003 A 
ATOM     23  C   UNL     1       4.149   1.372  -1.300  0.00  0.00    +0.040 A 
ATOM     24  C   UNL     1       3.892   0.026  -1.112  0.00  0.00    +0.144 A 
ATOM     25  C   UNL     1       2.580  -0.435  -1.114  0.00  0.00    +0.065 A 
ATOM     26  C   UNL     1       1.533   0.457  -1.304  0.00  0.00    +0.026 A 
ATOM     27  F   UNL     1       4.913  -0.839  -0.928  0.00  0.00    -0.204 F 
ENDBRANCH  15  25
ENDBRANCH  14  18
ENDBRANCH   1  14
BRANCH   5  28
ATOM     28  C   UNL     1       1.997  -8.740  -3.980  0.00  0.00    -0.001 C 
BRANCH  28  29
ATOM     29  N   UNL     1       2.586  -7.863  -5.001  0.00  0.00    +0.384 N 
ATOM     30  C   UNL     1       1.869  -6.582  -5.016  0.00  0.00    -0.078 C 
ATOM     31  C   UNL     1       2.529  -5.635  -6.020  0.00  0.00    -0.019 C 
ATOM     32  C   UNL     1       2.481  -6.265  -7.415  0.00  0.00    -0.004 C 
ATOM     33  C   UNL     1       3.167  -7.634  -7.370  0.00  0.00    -0.019 C 
ATOM     34  C   UNL     1       2.483  -8.507  -6.316  0.00  0.00    -0.078 C 
ATOM     35  H   UNL     1       3.557  -7.700  -4.782  0.00  0.00    -0.081 HD
ENDBRANCH  28  29
ENDBRANCH   5  28
TORSDOF 6
