REMARK  Name = ZINC35747169
REMARK  13 active torsions:
REMARK  status: ('A' for Active; 'I' for Inactive)
REMARK    1  A    between atoms: C_1  and  C_2
REMARK    2  A    between atoms: C_2  and  C_3
REMARK    3  A    between atoms: C_2  and  C_4
REMARK    4  A    between atoms: C_4  and  N_5
REMARK    5  A    between atoms: N_5  and  C_6
REMARK    6  A    between atoms: N_5  and  C_24
REMARK    7  A    between atoms: C_6  and  C_7
REMARK    8  A    between atoms: C_13  and  C_18
REMARK    9  A    between atoms: C_24  and  C_25
REMARK   10  A    between atoms: C_25  and  C_27
REMARK   11  A    between atoms: C_25  and  O_31
REMARK   12  A    between atoms: C_27  and  C_28
REMARK   13  A    between atoms: C_28  and  C_29
REMARK                            x       y       z     vdW  Elec       q    Type
REMARK                         _______ _______ _______ _____ _____    ______ ____
ROOT
ATOM      1  C   UNL     1      -0.450  -2.470  -1.145  0.00  0.00    +0.094 A 
ATOM      2  N   UNL     1       0.624  -3.261  -0.890  0.00  0.00    -0.312 N 
ATOM      3  H   UNL     1       0.578  -3.905  -0.166  0.00  0.00    +0.170 HD
ATOM      4  C   UNL     1       1.749  -3.170  -1.622  0.00  0.00    +0.260 A 
ATOM      5  O   UNL     1       2.704  -3.888  -1.381  0.00  0.00    -0.267 OA
ATOM      6  C   UNL     1       1.808  -2.217  -2.688  0.00  0.00    +0.080 A 
ATOM      7  C   UNL     1       2.899  -1.932  -3.612  0.00  0.00    +0.004 A 
ATOM      8  C   UNL     1       2.723  -0.973  -4.553  0.00  0.00    +0.056 A 
ATOM      9  S   UNL     1       1.065  -0.395  -4.247  0.00  0.00    -0.076 S 
ATOM     10  C   UNL     1       0.651  -1.443  -2.877  0.00  0.00    +0.116 A 
ATOM     11  N   UNL     1      -0.428  -1.595  -2.114  0.00  0.00    -0.229 NA
ENDROOT
BRANCH   7  12
ATOM     12  C   UNL     1       4.178  -2.676  -3.523  0.00  0.00    -0.017 A 
ATOM     13  C   UNL     1       4.829  -2.804  -2.297  0.00  0.00    +0.008 A 
ATOM     14  C   UNL     1       6.019  -3.499  -2.220  0.00  0.00    +0.001 A 
ATOM     15  C   UNL     1       6.566  -4.068  -3.357  0.00  0.00    +0.000 A 
ATOM     16  C   UNL     1       5.924  -3.944  -4.576  0.00  0.00    +0.001 A 
ATOM     17  C   UNL     1       4.731  -3.256  -4.664  0.00  0.00    +0.008 A 
ENDBRANCH   7  12
BRANCH   1  18
ATOM     18  C   UNL     1      -1.689  -2.608  -0.299  0.00  0.00    -0.003 C 
BRANCH  18  19
ATOM     19  N   UNL     1      -2.732  -1.706  -0.806  0.00  0.00    +0.386 N 
ATOM     20  H   UNL     1      -2.886  -1.889  -1.787  0.00  0.00    -0.081 HD
BRANCH  19  21
ATOM     21  C   UNL     1      -2.302  -0.312  -0.630  0.00  0.00    -0.075 C 
BRANCH  21  23
ATOM     22  C   UNL     1      -0.979   1.241   0.812  0.00  0.00    +0.005 C 
ATOM     23  C   UNL     1      -1.541  -0.177   0.691  0.00  0.00    -0.034 C 
ATOM     24  C   UNL     1      -2.491  -0.451   1.858  0.00  0.00    +0.005 C 
ENDBRANCH  21  23
ENDBRANCH  19  21
BRANCH  19  25
ATOM     25  C   UNL     1      -3.979  -1.932  -0.064  0.00  0.00    -0.047 C 
BRANCH  25  26
ATOM     26  C   UNL     1      -5.146  -1.294  -0.820  0.00  0.00    +0.098 C 
BRANCH  26  27
ATOM     27  O   UNL     1      -5.010   0.129  -0.792  0.00  0.00    -0.394 OA
ATOM     28  H   UNL     1      -4.980   0.503   0.099  0.00  0.00    +0.210 HD
ENDBRANCH  26  27
BRANCH  26  29
ATOM     29  C   UNL     1      -6.464  -1.694  -0.156  0.00  0.00    +0.033 C 
BRANCH  29  30
ATOM     30  C   UNL     1      -7.635  -1.159  -0.983  0.00  0.00    +0.029 C 
BRANCH  30  31
ATOM     31  C   UNL     1      -8.934  -1.554  -0.328  0.00  0.00    -0.034 C 
ATOM     32  C   UNL     1      -9.818  -0.637  -0.023  0.00  0.00    +0.004 C 
ENDBRANCH  30  31
ENDBRANCH  29  30
ENDBRANCH  26  29
ENDBRANCH  25  26
ENDBRANCH  19  25
ENDBRANCH  18  19
ENDBRANCH   1  18
TORSDOF 11
