REMARK  Name = ZINC02793371
REMARK  6 active torsions:
REMARK  status: ('A' for Active; 'I' for Inactive)
REMARK    1  A    between atoms: C_1  and  N_2
REMARK    2  A    between atoms: C_4  and  C_7
REMARK    3  A    between atoms: C_7  and  N_8
REMARK    4  A    between atoms: C_9  and  C_11
REMARK    5  A    between atoms: C_15  and  C_24
REMARK    6  A    between atoms: C_17  and  C_20
REMARK                            x       y       z     vdW  Elec       q    Type
REMARK                         _______ _______ _______ _____ _____    ______ ____
ROOT
ATOM      1  C   UNL     1      -3.307  -4.892   0.002  0.00  0.00    +0.150 A 
ATOM      2  C   UNL     1      -1.961  -4.508  -0.008  0.00  0.00    +0.083 A 
ATOM      3  C   UNL     1      -1.921  -3.122   0.001  0.00  0.00    +0.157 A 
ATOM      4  N   UNL     1      -0.903  -2.251  -0.008  0.00  0.00    -0.227 NA
ATOM      5  C   UNL     1      -1.129  -0.947   0.007  0.00  0.00    +0.082 A 
ATOM      6  C   UNL     1      -2.459  -0.459   0.022  0.00  0.00    +0.061 A 
ATOM      7  C   UNL     1      -3.485  -1.335   0.026  0.00  0.00    +0.149 A 
ATOM      8  N   UNL     1      -3.220  -2.679   0.015  0.00  0.00    -0.209 N 
ATOM      9  N   UNL     1      -4.057  -3.802   0.015  0.00  0.00    -0.160 NA
ENDROOT
BRANCH   5  10
ATOM     10  C   UNL     1       0.002  -0.004   0.002  0.00  0.00    +0.039 A 
ATOM     11  C   UNL     1       1.349  -0.269  -0.012  0.00  0.00    +0.019 A 
ATOM     12  C   UNL     1       2.229   0.787  -0.015  0.00  0.00    +0.028 A 
ATOM     13  C   UNL     1       1.742   2.058  -0.004  0.00  0.00    +0.079 A 
ATOM     14  S   UNL     1      -0.022   1.781   0.012  0.00  0.00    -0.075 S 
ATOM     15 CL   UNL     1       2.611   3.560  -0.005  0.00  0.00    -0.076 Cl
ENDBRANCH   5  10
BRANCH   1  17
ATOM     16  N   UNL     1      -5.134  -6.522   0.007  0.00  0.00    -0.306 N 
ATOM     17  C   UNL     1      -3.808  -6.283  -0.003  0.00  0.00    +0.265 C 
ATOM     18  O   UNL     1      -3.023  -7.211  -0.016  0.00  0.00    -0.268 OA
ATOM     19  H   UNL     1      -5.844  -5.682   0.019  0.00  0.00    +0.149 HD
BRANCH  16  20
ATOM     20  C   UNL     1      -5.630  -7.901   0.002  0.00  0.00    +0.143 C 
BRANCH  20  24
ATOM     21  C   UNL     1     -10.391  -7.885   1.570  0.00  0.00    +0.172 C 
ATOM     22  N   UNL     1      -9.208  -7.886   0.705  0.00  0.00    -0.274 N 
ATOM     23  C   UNL     1      -7.923  -7.901   1.117  0.00  0.00    +0.113 A 
ATOM     24  C   UNL     1      -7.137  -7.892   0.016  0.00  0.00    +0.007 A 
ATOM     25  C   UNL     1      -7.970  -7.881  -1.108  0.00  0.00    +0.139 A 
ATOM     26  N   UNL     1      -9.212  -7.877  -0.696  0.00  0.00    -0.180 NA
ENDBRANCH  20  24
ENDBRANCH  16  20
ENDBRANCH   1  17
BRANCH   7  27
ATOM     27  C   UNL     1      -4.909  -0.840   0.042  0.00  0.00    +0.434 C 
ATOM     28  F   UNL     1      -4.918   0.555  -0.065  0.00  0.00    -0.164 F 
ATOM     29  F   UNL     1      -5.607  -1.395  -1.036  0.00  0.00    -0.164 F 
ATOM     30  F   UNL     1      -5.522  -1.220   1.240  0.00  0.00    -0.164 F 
ENDBRANCH   7  27
TORSDOF 5
