REMARK  Name = ZINC63375607
REMARK  9 active torsions:
REMARK  status: ('A' for Active; 'I' for Inactive)
REMARK    1  A    between atoms: C_1  and  C_2
REMARK    2  A    between atoms: C_5  and  C_8
REMARK    3  A    between atoms: N_26  and  C_29
REMARK    4  A    between atoms: C_32  and  C_35
REMARK    5  A    between atoms: N_37  and  C_38
REMARK    6  A    between atoms: C_38  and  C_39
REMARK    7  A    between atoms: C_39  and  C_40
REMARK    8  A    between atoms: C_40  and  C_41
REMARK    9  A    between atoms: C_40  and  C_42
REMARK                            x       y       z     vdW  Elec       q    Type
REMARK                         _______ _______ _______ _____ _____    ______ ____
ROOT
ATOM      1  C   UNL     1       0.082  -4.275  -0.008  0.00  0.00    +0.135 C 
ATOM      2  C   UNL     1       1.517  -4.800   0.142  0.00  0.00    +0.131 C 
ATOM      3  C   UNL     1       1.417  -6.279   0.492  0.00  0.00    -0.034 C 
ATOM      4  C   UNL     1       2.108  -6.930  -0.438  0.00  0.00    -0.001 A 
ATOM      5  C   UNL     1       2.425  -8.358  -0.600  0.00  0.00    +0.010 A 
ATOM      6  C   UNL     1       3.161  -8.689  -1.694  0.00  0.00    +0.001 A 
ATOM      7  C   UNL     1       3.610  -7.752  -2.631  0.00  0.00    +0.002 A 
ATOM      8  C   UNL     1       3.368  -6.419  -2.559  0.00  0.00    +0.026 A 
ATOM      9  C   UNL     1       2.606  -5.949  -1.450  0.00  0.00    +0.043 A 
ATOM     10  N   UNL     1       2.250  -4.720  -1.124  0.00  0.00    -0.375 N 
ATOM     11  C   UNL     1       0.603  -6.802   1.652  0.00  0.00    +0.065 C 
ATOM     12  C   UNL     1      -0.812  -6.220   1.491  0.00  0.00    +0.169 C 
ATOM     13  N   UNL     1      -0.684  -4.793   1.134  0.00  0.00    -0.264 N 
ATOM     14  C   UNL     1      -1.369  -4.101   2.053  0.00  0.00    +0.317 C 
ATOM     15  O   UNL     1      -1.566  -2.903   1.992  0.00  0.00    -0.252 OA
ATOM     16  N   UNL     1      -1.811  -4.882   3.048  0.00  0.00    -0.193 N 
ATOM     17  C   UNL     1      -1.517  -6.203   2.830  0.00  0.00    +0.248 C 
ATOM     18  O   UNL     1      -1.760  -7.153   3.543  0.00  0.00    -0.273 OA
ATOM     19  H   UNL     1       2.429  -3.909  -1.625  0.00  0.00    +0.160 HD
ENDROOT
BRANCH   1  24
ATOM     20  C   UNL     1       0.072   1.503   0.067  0.00  0.00    +0.044 C 
ATOM     21  C   UNL     1       0.074  -0.004   0.047  0.00  0.00    -0.050 A 
ATOM     22  C   UNL     1      -0.452  -0.682  -1.036  0.00  0.00    +0.004 A 
ATOM     23  C   UNL     1      -0.450  -2.064  -1.054  0.00  0.00    +0.006 A 
ATOM     24  C   UNL     1       0.080  -2.769   0.011  0.00  0.00    -0.025 A 
ATOM     25  C   UNL     1       0.607  -2.090   1.094  0.00  0.00    +0.006 A 
ATOM     26  C   UNL     1       0.609  -0.708   1.110  0.00  0.00    +0.004 A 
ENDBRANCH   1  24
BRANCH  16  27
ATOM     27  C   UNL     1      -2.497  -4.411   4.171  0.00  0.00    +0.045 A 
ATOM     28  C   UNL     1      -2.870  -3.073   4.245  0.00  0.00    +0.025 A 
ATOM     29  C   UNL     1      -3.546  -2.605   5.350  0.00  0.00    +0.015 A 
ATOM     30  C   UNL     1      -3.857  -3.476   6.397  0.00  0.00    +0.037 A 
ATOM     31  C   UNL     1      -3.481  -4.819   6.319  0.00  0.00    +0.015 A 
ATOM     32  C   UNL     1      -2.810  -5.282   5.209  0.00  0.00    +0.025 A 
BRANCH  30  33
ATOM     33  C   UNL     1      -4.582  -2.978   7.583  0.00  0.00    +0.244 C 
ATOM     34  O   UNL     1      -4.908  -1.809   7.650  0.00  0.00    -0.270 OA
ATOM     35  N   UNL     1      -4.881  -3.820   8.593  0.00  0.00    -0.311 N 
ATOM     36  H   UNL     1      -4.621  -4.753   8.540  0.00  0.00    +0.149 HD
BRANCH  35  37
ATOM     37  C   UNL     1      -5.600  -3.326   9.770  0.00  0.00    +0.105 C 
BRANCH  37  38
ATOM     38  C   UNL     1      -5.811  -4.475  10.758  0.00  0.00    +0.022 C 
BRANCH  38  39
ATOM     39  C   UNL     1      -6.562  -3.958  11.987  0.00  0.00    -0.016 C 
ATOM     40  C   UNL     1      -7.967  -3.513  11.577  0.00  0.00    +0.007 C 
ATOM     41  C   UNL     1      -6.664  -5.075  13.028  0.00  0.00    +0.007 C 
ENDBRANCH  38  39
ENDBRANCH  37  38
ENDBRANCH  35  37
ENDBRANCH  30  33
ENDBRANCH  16  27
TORSDOF 6
