REMARK  Name = ZINC06280670
REMARK  11 active torsions:
REMARK  status: ('A' for Active; 'I' for Inactive)
REMARK    1  A    between atoms: C_1  and  C_2
REMARK    2  A    between atoms: C_7  and  N_8
REMARK    3  A    between atoms: C_13  and  C_15
REMARK    4  A    between atoms: C_13  and  C_29
REMARK    5  A    between atoms: C_13  and  N_69
REMARK    6  A    between atoms: C_19  and  O_27
REMARK    7  A    between atoms: O_27  and  C_28
REMARK    8  A    between atoms: N_33  and  C_34
REMARK    9  A    between atoms: C_34  and  C_35
REMARK   10  A    between atoms: C_34  and  C_36
REMARK   11  A    between atoms: C_34  and  C_37
REMARK                            x       y       z     vdW  Elec       q    Type
REMARK                         _______ _______ _______ _____ _____    ______ ____
ROOT
ATOM      1  C   UNL     1       3.481   0.750  -0.285  0.00  0.00    +0.039 C 
ENDROOT
BRANCH   1   2
ATOM      2  C   UNL     1       3.673   1.297  -1.676  0.00  0.00    +0.011 A 
ATOM      3  C   UNL     1       4.273   0.535  -2.624  0.00  0.00    +0.017 A 
ATOM      4  C   UNL     1       4.441   1.093  -3.967  0.00  0.00    +0.002 A 
ATOM      5  C   UNL     1       5.048   0.352  -4.986  0.00  0.00    +0.055 A 
ATOM      6  C   UNL     1       5.195   0.910  -6.240  0.00  0.00    +0.121 A 
ATOM      7  C   UNL     1       4.743   2.203  -6.491  0.00  0.00    +0.047 A 
ATOM      8  C   UNL     1       4.144   2.943  -5.496  0.00  0.00    +0.030 A 
ATOM      9  C   UNL     1       3.986   2.399  -4.225  0.00  0.00    +0.049 A 
ATOM     10  N   UNL     1       3.388   3.124  -3.215  0.00  0.00    -0.322 N 
ATOM     11  H   UNL     1       3.074   4.025  -3.394  0.00  0.00    +0.169 HD
ATOM     12  C   UNL     1       3.234   2.601  -1.986  0.00  0.00    +0.251 A 
ATOM     13  O   UNL     1       2.701   3.271  -1.118  0.00  0.00    -0.268 OA
BRANCH   6  14
ATOM     14  O   UNL     1       5.785   0.195  -7.234  0.00  0.00    -0.495 OA
ATOM     15  C   UNL     1       5.906   0.831  -8.508  0.00  0.00    +0.277 C 
ENDBRANCH   6  14
ENDBRANCH   1   2
BRANCH   1  21
ATOM     16  N   UNL     1       5.911   2.412   2.745  0.00  0.00    -0.333 N 
ATOM     17  C   UNL     1       4.491   2.184   3.048  0.00  0.00    +0.086 C 
ATOM     18  C   UNL     1       3.918   1.165   2.061  0.00  0.00    -0.058 C 
ATOM     19  C   UNL     1       5.507   1.894   0.386  0.00  0.00    -0.058 C 
ATOM     20  C   UNL     1       6.080   2.913   1.374  0.00  0.00    +0.086 C 
ATOM     21  N   UNL     1       4.074   1.692   0.688  0.00  0.00    +0.391 N 
ATOM     22  H   UNL     1       3.588   2.593   0.619  0.00  0.00    -0.080 HD
BRANCH  16  29
ATOM     23  C   UNL     1       7.974   1.409   4.426  0.00  0.00    +0.045 C 
ATOM     24  C   UNL     1       7.499   2.836   4.512  0.00  0.00    -0.029 A 
ATOM     25  C   UNL     1       8.068   3.700   5.427  0.00  0.00    +0.006 A 
ATOM     26  C   UNL     1       7.632   5.010   5.507  0.00  0.00    +0.020 A 
ATOM     27  C   UNL     1       6.625   5.460   4.670  0.00  0.00    +0.043 A 
ATOM     28  C   UNL     1       6.055   4.601   3.750  0.00  0.00    +0.043 A 
ATOM     29  C   UNL     1       6.488   3.283   3.671  0.00  0.00    +0.034 A 
ATOM     30 CL   UNL     1       6.082   7.105   4.774  0.00  0.00    -0.083 Cl
ENDBRANCH  16  29
ENDBRANCH   1  21
BRANCH   1  31
ATOM     31  C   UNL     1       2.007   0.615   0.002  0.00  0.00    +0.143 A 
ATOM     32  N   UNL     1       1.148   1.591   0.160  0.00  0.00    -0.115 NA
ATOM     33  N   UNL     1      -0.008   1.071   0.389  0.00  0.00    -0.023 NA
ATOM     34  N   UNL     1       0.092  -0.213   0.382  0.00  0.00    -0.043 NA
ATOM     35  N   UNL     1       1.319  -0.533   0.147  0.00  0.00    -0.225 N 
BRANCH  35  36
ATOM     36  C   UNL     1       1.862  -1.891   0.055  0.00  0.00    +0.059 C 
ATOM     37  C   UNL     1       0.728  -2.905   0.216  0.00  0.00    +0.036 C 
ATOM     38  C   UNL     1       2.527  -2.083  -1.310  0.00  0.00    +0.036 C 
ATOM     39  C   UNL     1       2.897  -2.103   1.161  0.00  0.00    +0.036 C 
ENDBRANCH  35  36
ENDBRANCH   1  31
TORSDOF 6
