REMARK  Name = ZINC39694378
REMARK  5 active torsions:
REMARK  status: ('A' for Active; 'I' for Inactive)
REMARK    1  A    between atoms: C_4  and  N_33
REMARK    2  A    between atoms: C_5  and  C_7
REMARK    3  A    between atoms: C_7  and  N_8
REMARK    4  A    between atoms: C_9  and  C_11
REMARK    5  A    between atoms: C_22  and  C_24
REMARK                            x       y       z     vdW  Elec       q    Type
REMARK                         _______ _______ _______ _____ _____    ______ ____
ROOT
ATOM      1  C   UNL     1       1.461  -4.626   3.388  0.00  0.00    +0.100 C 
ATOM      2  C   UNL     1       2.922  -4.189   3.632  0.00  0.00    +0.121 C 
ATOM      3  N   UNL     1       3.557  -5.354   4.291  0.00  0.00    -0.296 N 
ATOM      4  C   UNL     1       2.987  -6.530   3.590  0.00  0.00    +0.115 C 
ATOM      5  C   UNL     1       1.508  -6.163   3.361  0.00  0.00    -0.004 C 
ATOM      6  C   UNL     1       0.642  -6.738   4.479  0.00  0.00    -0.010 C 
ATOM      7  C   UNL     1       0.660  -8.267   4.396  0.00  0.00    -0.082 C 
ATOM      8  N   UNL     1       0.151  -8.694   3.087  0.00  0.00    +0.379 N 
ATOM      9  C   UNL     1       1.041  -8.214   2.023  0.00  0.00    -0.082 C 
ATOM     10  C   UNL     1       1.040  -6.683   2.005  0.00  0.00    -0.010 C 
ATOM     11  C   UNL     1       4.451  -5.347   5.300  0.00  0.00    +0.248 C 
ATOM     12  O   UNL     1       4.954  -6.390   5.674  0.00  0.00    -0.270 OA
ATOM     13  H   UNL     1       0.106  -9.701   3.057  0.00  0.00    -0.086 HD
ATOM     14  H   UNL     1      -0.773  -8.314   2.947  0.00  0.00    -0.086 HD
ENDROOT
BRANCH  11  15
ATOM     15  C   UNL     1       4.816  -4.081   5.948  0.00  0.00    +0.052 A 
ATOM     16  C   UNL     1       4.881  -2.925   5.239  0.00  0.00    +0.059 A 
ATOM     17  S   UNL     1       5.326  -1.746   6.346  0.00  0.00    -0.096 S 
ATOM     18  C   UNL     1       5.451  -2.728   7.816  0.00  0.00    +0.020 A 
ATOM     19  C   UNL     1       5.117  -4.025   7.381  0.00  0.00    +0.001 A 
ATOM     20  C   UNL     1       5.122  -5.051   8.345  0.00  0.00    +0.010 A 
ATOM     21  C   UNL     1       5.438  -4.774   9.652  0.00  0.00    +0.001 A 
ATOM     22  C   UNL     1       5.759  -3.486  10.056  0.00  0.00    +0.001 A 
ATOM     23  C   UNL     1       5.772  -2.462   9.129  0.00  0.00    +0.015 A 
ENDBRANCH  11  15
BRANCH   1  25
ATOM     24  N   UNL     1      -0.345  -3.832   1.895  0.00  0.00    -0.311 N 
ATOM     25  C   UNL     1       0.966  -4.093   2.068  0.00  0.00    +0.218 C 
ATOM     26  O   UNL     1       1.748  -3.898   1.162  0.00  0.00    -0.275 OA
ATOM     27  H   UNL     1      -0.970  -3.987   2.620  0.00  0.00    +0.149 HD
BRANCH  24  28
ATOM     28  C   UNL     1      -0.825  -3.313   0.612  0.00  0.00    +0.141 C 
BRANCH  28  33
ATOM     29  C   UNL     1      -4.538  -3.859   0.195  0.00  0.00    +0.000 A 
ATOM     30  C   UNL     1      -5.058  -2.732   0.804  0.00  0.00    +0.002 A 
ATOM     31  C   UNL     1      -4.211  -1.789   1.353  0.00  0.00    +0.023 A 
ATOM     32  C   UNL     1      -2.835  -1.975   1.293  0.00  0.00    +0.035 A 
ATOM     33  C   UNL     1      -2.317  -3.108   0.680  0.00  0.00    -0.009 A 
ATOM     34  C   UNL     1      -3.169  -4.047   0.133  0.00  0.00    +0.007 A 
BRANCH  32  35
ATOM     35  N   UNL     1      -1.976  -1.023   1.846  0.00  0.00    -0.325 N 
ATOM     36  C   UNL     1      -1.480   0.108   1.045  0.00  0.00    +0.133 C 
ATOM     37  C   UNL     1      -1.726   1.401   1.831  0.00  0.00    +0.178 C 
ATOM     38  O   UNL     1      -1.179   1.266   3.144  0.00  0.00    -0.377 OA
ATOM     39  C   UNL     1      -1.783   0.232   3.926  0.00  0.00    +0.178 C 
ATOM     40  C   UNL     1      -1.544  -1.118   3.250  0.00  0.00    +0.133 C 
ENDBRANCH  32  35
ENDBRANCH  28  33
ENDBRANCH  24  28
ENDBRANCH   1  25
TORSDOF 5
