REMARK  Name = ZINC13264997
REMARK  8 active torsions:
REMARK  status: ('A' for Active; 'I' for Inactive)
REMARK    1  A    between atoms: C_1  and  C_2
REMARK    2  A    between atoms: C_2  and  C_3
REMARK    3  A    between atoms: C_3  and  C_5
REMARK    4  A    between atoms: C_3  and  C_6
REMARK    5  A    between atoms: C_9  and  N_12
REMARK    6  A    between atoms: N_12  and  S_13
REMARK    7  A    between atoms: S_13  and  C_16
REMARK    8  A    between atoms: C_18  and  C_23
REMARK                            x       y       z     vdW  Elec       q    Type
REMARK                         _______ _______ _______ _____ _____    ______ ____
ROOT
ATOM      1  S   UNL     1      -3.637   3.431  -1.044  0.00  0.00    +0.073 S 
ATOM      2  O   UNL     1      -3.945   2.046  -0.954  0.00  0.00    -0.150 OA
ATOM      3  O   UNL     1      -4.613   4.443  -0.836  0.00  0.00    -0.150 OA
ENDROOT
BRANCH   1   4
ATOM      4  C   UNL     1      -2.972   3.695  -2.654  0.00  0.00    +0.123 A 
ATOM      5  C   UNL     1      -2.888   2.646  -3.544  0.00  0.00    +0.045 A 
ATOM      6  C   UNL     1      -2.360   2.857  -4.820  0.00  0.00    +0.065 A 
ATOM      7  C   UNL     1      -1.920   4.132  -5.185  0.00  0.00    +0.016 A 
ATOM      8  C   UNL     1      -2.010   5.173  -4.285  0.00  0.00    +0.018 A 
ATOM      9  C   UNL     1      -2.539   4.958  -3.023  0.00  0.00    +0.044 A 
ATOM     10 BR   UNL     1      -2.666   6.393  -1.799  0.00  0.00    -0.048 Br
BRANCH   6  11
ATOM     11  C   UNL     1      -2.267   1.738  -5.779  0.00  0.00    +0.387 C 
ATOM     12  O   UNL     1      -2.650   0.631  -5.459  0.00  0.00    -0.241 OA
ATOM     13  O   UNL     1      -1.757   1.945  -7.008  0.00  0.00    -0.241 OA
ENDBRANCH   6  11
ENDBRANCH   1   4
BRANCH   1  14
ATOM     14  N   UNL     1      -2.420   3.716   0.042  0.00  0.00    -0.216 N 
ATOM     15  H   UNL     1      -2.513   4.424   0.699  0.00  0.00    +0.174 HD
BRANCH  14  19
ATOM     16  C   UNL     1       1.036   1.396  -0.046  0.00  0.00    -0.044 A 
ATOM     17  C   UNL     1      -0.204   0.789  -0.117  0.00  0.00    +0.006 A 
ATOM     18  C   UNL     1      -1.353   1.556  -0.094  0.00  0.00    +0.025 A 
ATOM     19  C   UNL     1      -1.261   2.938   0.013  0.00  0.00    +0.048 A 
ATOM     20  C   UNL     1      -0.013   3.545   0.084  0.00  0.00    +0.025 A 
ATOM     21  C   UNL     1       1.131   2.772   0.055  0.00  0.00    +0.006 A 
BRANCH  16  22
ATOM     22  C   UNL     1       2.287   0.557  -0.078  0.00  0.00    +0.016 C 
ATOM     23  C   UNL     1       3.140   0.958  -1.283  0.00  0.00    +0.012 C 
BRANCH  22  25
ATOM     24  C   UNL     1       4.289  -0.163   1.232  0.00  0.00    +0.004 C 
ATOM     25  C   UNL     1       3.084   0.780   1.208  0.00  0.00    +0.004 C 
ENDBRANCH  22  25
ENDBRANCH  16  22
ENDBRANCH  14  19
ENDBRANCH   1  14
TORSDOF 6
