REMARK  Name = ZINC63531501
REMARK  7 active torsions:
REMARK  status: ('A' for Active; 'I' for Inactive)
REMARK    1  A    between atoms: C_1  and  C_2
REMARK    2  A    between atoms: N_15  and  C_17
REMARK    3  A    between atoms: C_17  and  C_19
REMARK    4  A    between atoms: C_17  and  C_20
REMARK    5  A    between atoms: N_22  and  C_23
REMARK    6  A    between atoms: C_23  and  C_24
REMARK    7  A    between atoms: C_24  and  C_25
REMARK                            x       y       z     vdW  Elec       q    Type
REMARK                         _______ _______ _______ _____ _____    ______ ____
ROOT
ATOM      1  C   UNL     1       2.391  -2.317   1.559  0.00  0.00    +0.179 C 
ATOM      2  C   UNL     1       2.732  -1.201   2.549  0.00  0.00    +0.040 C 
ENDROOT
BRANCH   1  16
ATOM      3  C   UNL     1      -0.018   1.503   0.010  0.00  0.00    +0.063 C 
ATOM      4  C   UNL     1       0.002  -0.004   0.002  0.00  0.00    +0.030 C 
ATOM      5  C   UNL     1      -1.084  -0.743   0.003  0.00  0.00    +0.025 C 
ATOM      6  C   UNL     1      -1.082  -2.263  -0.029  0.00  0.00    +0.146 C 
ATOM      7  C   UNL     1      -2.380  -2.847   0.401  0.00  0.00    -0.017 A 
ATOM      8  C   UNL     1      -2.615  -4.189   0.717  0.00  0.00    +0.006 A 
ATOM      9  C   UNL     1      -3.900  -4.555   1.080  0.00  0.00    +0.000 A 
ATOM     10  C   UNL     1      -4.942  -3.653   1.139  0.00  0.00    +0.001 A 
ATOM     11  C   UNL     1      -4.737  -2.311   0.839  0.00  0.00    +0.015 A 
ATOM     12  C   UNL     1      -3.452  -1.945   0.485  0.00  0.00    +0.017 A 
ATOM     13  S   UNL     1      -2.804  -0.347   0.066  0.00  0.00    -0.091 S 
ATOM     14  C   UNL     1       0.077  -2.709   0.831  0.00  0.00    +0.245 C 
ATOM     15  O   UNL     1       0.010  -3.702   1.524  0.00  0.00    -0.273 OA
ATOM     16  N   UNL     1       1.203  -1.940   0.790  0.00  0.00    -0.210 N 
ATOM     17  N   UNL     1       1.202  -0.774  -0.014  0.00  0.00    -0.265 N 
ATOM     18  H   UNL     1       1.972  -0.511  -0.542  0.00  0.00    +0.170 HD
ENDBRANCH   1  16
BRANCH   1  19
ATOM     19  C   UNL     1       3.551  -2.527   0.620  0.00  0.00    +0.235 C 
ATOM     20  O   UNL     1       3.400  -2.378  -0.574  0.00  0.00    -0.274 OA
ATOM     21  N   UNL     1       4.756  -2.882   1.108  0.00  0.00    -0.313 N 
ATOM     22  H   UNL     1       4.878  -3.002   2.063  0.00  0.00    +0.149 HD
BRANCH  21  23
ATOM     23  C   UNL     1       5.884  -3.087   0.195  0.00  0.00    +0.108 C 
BRANCH  23  24
ATOM     24  C   UNL     1       7.125  -3.481   0.998  0.00  0.00    +0.052 C 
BRANCH  24  25
ATOM     25  C   UNL     1       8.285  -3.691   0.060  0.00  0.00    -0.040 C 
ATOM     26  C   UNL     1       9.236  -2.789  -0.273  0.00  0.00    -0.001 A 
ATOM     27  C   UNL     1       9.466  -1.395   0.123  0.00  0.00    +0.010 A 
ATOM     28  C   UNL     1      10.529  -0.733  -0.390  0.00  0.00    +0.001 A 
ATOM     29  C   UNL     1      11.413  -1.345  -1.289  0.00  0.00    +0.002 A 
ATOM     30  C   UNL     1      11.268  -2.622  -1.700  0.00  0.00    +0.026 A 
ATOM     31  C   UNL     1      10.185  -3.412  -1.224  0.00  0.00    +0.043 A 
ATOM     32  N   UNL     1       9.834  -4.651  -1.469  0.00  0.00    -0.380 N 
ATOM     33  C   UNL     1       8.625  -4.956  -0.696  0.00  0.00    +0.144 C 
ATOM     34  H   UNL     1      10.299  -5.264  -2.059  0.00  0.00    +0.160 HD
ENDBRANCH  24  25
ENDBRANCH  23  24
ENDBRANCH  21  23
ENDBRANCH   1  19
TORSDOF 5
