REMARK  Name = ZINC01334069
REMARK  5 active torsions:
REMARK  status: ('A' for Active; 'I' for Inactive)
REMARK    1  A    between atoms: C_1  and  C_2
REMARK    2  A    between atoms: C_5  and  C_8
REMARK    3  A    between atoms: C_8  and  N_9
REMARK    4  A    between atoms: C_14  and  C_16
REMARK    5  A    between atoms: C_23  and  C_25
REMARK                            x       y       z     vdW  Elec       q    Type
REMARK                         _______ _______ _______ _____ _____    ______ ____
ROOT
ATOM      1  N   UNL     1       1.293  -3.885   0.040  0.00  0.00    -0.222 N 
ATOM      2  C   UNL     1       1.997  -4.330  -1.038  0.00  0.00    +0.186 A 
ATOM      3  C   UNL     1       3.155  -4.928  -0.526  0.00  0.00    +0.195 A 
ATOM      4  C   UNL     1       4.108  -5.500  -1.481  0.00  0.00    +0.281 A 
ATOM      5  N   UNL     1       3.806  -5.412  -2.797  0.00  0.00    -0.309 N 
ATOM      6  C   UNL     1       2.658  -4.812  -3.198  0.00  0.00    +0.117 A 
ATOM      7  N   UNL     1       1.800  -4.300  -2.364  0.00  0.00    -0.213 NA
ATOM      8  O   UNL     1       5.135  -6.035  -1.103  0.00  0.00    -0.265 OA
ATOM      9  N   UNL     1       3.117  -4.831   0.810  0.00  0.00    -0.122 NA
ATOM     10  N   UNL     1       2.044  -4.220   1.177  0.00  0.00    -0.063 NA
ATOM     11  H   UNL     1       4.415  -5.780  -3.457  0.00  0.00    +0.170 HD
ENDROOT
BRANCH   6  12
ATOM     12  C   UNL     1       2.362  -4.737  -4.674  0.00  0.00    +0.072 C 
ATOM     13  C   UNL     1       0.851  -4.622  -4.887  0.00  0.00    +0.014 C 
ATOM     14  C   UNL     1       0.547  -4.578  -6.386  0.00  0.00    +0.020 C 
ATOM     15  C   UNL     1       1.217  -3.346  -7.003  0.00  0.00    +0.108 C 
ATOM     16  N   UNL     1       2.650  -3.374  -6.678  0.00  0.00    -0.297 N 
ATOM     17  C   UNL     1       3.053  -3.507  -5.271  0.00  0.00    +0.119 C 
ATOM     18  C   UNL     1       3.576  -3.281  -7.652  0.00  0.00    +0.249 C 
ATOM     19  O   UNL     1       4.757  -3.229  -7.364  0.00  0.00    -0.270 OA
BRANCH  18  20
ATOM     20  C   UNL     1       3.159  -3.241  -9.066  0.00  0.00    +0.072 A 
ATOM     21  C   UNL     1       2.231  -2.289  -9.498  0.00  0.00    +0.019 A 
ATOM     22  C   UNL     1       1.844  -2.256 -10.819  0.00  0.00    +0.039 A 
ATOM     23  C   UNL     1       2.374  -3.166 -11.724  0.00  0.00    +0.126 A 
ATOM     24  C   UNL     1       3.294  -4.112 -11.305  0.00  0.00    +0.077 A 
ATOM     25  C   UNL     1       3.695  -4.152  -9.983  0.00  0.00    +0.138 A 
ATOM     26  F   UNL     1       4.596  -5.072  -9.576  0.00  0.00    -0.205 F 
ATOM     27  F   UNL     1       1.990  -3.128 -13.018  0.00  0.00    -0.205 F 
ENDBRANCH  18  20
ENDBRANCH   6  12
BRANCH   1  28
ATOM     28  C   UNL     1       0.005  -3.188   0.017  0.00  0.00    +0.182 C 
BRANCH  28  33
ATOM     29  C   UNL     1       0.901   2.511  -0.316  0.00  0.00    +0.044 C 
ATOM     30  C   UNL     1       0.668   1.024  -0.229  0.00  0.00    -0.050 A 
ATOM     31  C   UNL     1       0.546   0.275  -1.384  0.00  0.00    +0.004 A 
ATOM     32  C   UNL     1       0.332  -1.088  -1.305  0.00  0.00    +0.006 A 
ATOM     33  C   UNL     1       0.239  -1.702  -0.070  0.00  0.00    -0.026 A 
ATOM     34  C   UNL     1       0.362  -0.953   1.086  0.00  0.00    +0.006 A 
ATOM     35  C   UNL     1       0.580   0.410   1.006  0.00  0.00    +0.004 A 
ENDBRANCH  28  33
ENDBRANCH   1  28
TORSDOF 4
