REMARK  Name = ZINC36242104
REMARK  5 active torsions:
REMARK  status: ('A' for Active; 'I' for Inactive)
REMARK    1  A    between atoms: C_1  and  C_2
REMARK    2  A    between atoms: C_2  and  N_3
REMARK    3  A    between atoms: C_6  and  C_10
REMARK    4  A    between atoms: C_7  and  C_9
REMARK    5  A    between atoms: C_18  and  C_21
REMARK                            x       y       z     vdW  Elec       q    Type
REMARK                         _______ _______ _______ _____ _____    ______ ____
ROOT
ATOM      1  C   UNL     1      -4.096  -4.569   0.007  0.00  0.00    +0.003 A 
ATOM      2  C   UNL     1      -4.237  -5.771  -0.685  0.00  0.00    +0.014 A 
ATOM      3  C   UNL     1      -5.446  -6.436  -0.681  0.00  0.00    +0.048 A 
ATOM      4  C   UNL     1      -6.529  -5.911   0.009  0.00  0.00    +0.142 A 
ATOM      5  C   UNL     1      -6.393  -4.709   0.700  0.00  0.00    +0.070 A 
ATOM      6  C   UNL     1      -5.181  -4.041   0.705  0.00  0.00    +0.036 A 
ATOM      7  N   UNL     1      -7.491  -4.174   1.392  0.00  0.00    -0.337 N 
ATOM      8  C   UNL     1      -8.650  -5.054   1.621  0.00  0.00    +0.145 C 
ATOM      9  C   UNL     1      -8.896  -5.844   0.328  0.00  0.00    +0.187 C 
ATOM     10  O   UNL     1      -7.713  -6.580   0.007  0.00  0.00    -0.486 OA
ATOM     11  C   UNL     1     -10.065  -6.809   0.530  0.00  0.00    +0.053 C 
ATOM     12  H   UNL     1      -7.487  -3.257   1.709  0.00  0.00    +0.146 HD
ENDROOT
BRANCH   1  16
ATOM     13  N   UNL     1      -1.372  -0.511   0.012  0.00  0.00    -0.324 N 
ATOM     14  C   UNL     1      -1.607  -1.877   0.007  0.00  0.00    +0.159 A 
ATOM     15  N   UNL     1      -2.756  -2.526   0.009  0.00  0.00    -0.225 NA
ATOM     16  C   UNL     1      -2.795  -3.857   0.004  0.00  0.00    +0.083 A 
ATOM     17  C   UNL     1      -1.624  -4.559  -0.005  0.00  0.00    +0.016 A 
ATOM     18  S   UNL     1      -0.434  -3.225  -0.012  0.00  0.00    -0.057 S 
ATOM     19  C   UNL     1      -1.397  -6.049  -0.012  0.00  0.00    +0.054 C 
ATOM     20  H   UNL     1      -2.118   0.109   0.023  0.00  0.00    +0.148 HD
BRANCH  13  22
ATOM     21  C   UNL     1      -0.019   1.526   0.010  0.00  0.00    +0.024 C 
ATOM     22  C   UNL     1       0.002  -0.004   0.002  0.00  0.00    +0.100 C 
ENDBRANCH  13  22
ENDBRANCH   1  16
TORSDOF 2
