REMARK  Name = ZINC01917375
REMARK  12 active torsions:
REMARK  status: ('A' for Active; 'I' for Inactive)
REMARK    1  A    between atoms: C_1  and  C_2
REMARK    2  A    between atoms: C_2  and  O_3
REMARK    3  A    between atoms: O_3  and  C_4
REMARK    4  A    between atoms: C_9  and  O_10
REMARK    5  A    between atoms: O_10  and  C_11
REMARK    6  A    between atoms: C_17  and  O_35
REMARK    7  A    between atoms: C_18  and  C_26
REMARK    8  A    between atoms: C_21  and  C_22
REMARK    9  A    between atoms: C_26  and  N_60
REMARK   10  A    between atoms: C_27  and  N_60
REMARK   11  A    between atoms: C_28  and  C_29
REMARK   12  A    between atoms: C_28  and  N_60
REMARK                            x       y       z     vdW  Elec       q    Type
REMARK                         _______ _______ _______ _____ _____    ______ ____
ROOT
ATOM      1  C   UNL     1       2.617   8.925  -5.180  0.00  0.00    +0.222 A 
ATOM      2  C   UNL     1       1.324   8.946  -5.776  0.00  0.00    +0.235 A 
ATOM      3  O   UNL     1       1.163   9.301  -6.932  0.00  0.00    -0.283 OA
ATOM      4  C   UNL     1       0.189   8.521  -4.939  0.00  0.00    +0.068 A 
ATOM      5  C   UNL     1      -1.116   8.508  -5.434  0.00  0.00    +0.019 A 
ATOM      6  C   UNL     1      -2.142   8.107  -4.628  0.00  0.00    +0.046 A 
ATOM      7  C   UNL     1      -1.894   7.712  -3.315  0.00  0.00    +0.122 A 
ATOM      8  C   UNL     1      -0.605   7.719  -2.808  0.00  0.00    +0.020 A 
ATOM      9  C   UNL     1       0.448   8.129  -3.614  0.00  0.00    +0.144 A 
ATOM     10  O   UNL     1       1.713   8.140  -3.147  0.00  0.00    -0.447 OA
ATOM     11  C   UNL     1       2.752   8.525  -3.900  0.00  0.00    +0.254 A 
ENDROOT
BRANCH  11  12
ATOM     12  C   UNL     1       4.130   8.511  -3.290  0.00  0.00    +0.454 C 
ATOM     13  F   UNL     1       4.390   9.751  -2.695  0.00  0.00    -0.163 F 
ATOM     14  F   UNL     1       4.201   7.505  -2.320  0.00  0.00    -0.163 F 
ATOM     15  F   UNL     1       5.080   8.264  -4.288  0.00  0.00    -0.163 F 
ENDBRANCH  11  12
BRANCH   7  16
ATOM     16  O   UNL     1      -2.925   7.316  -2.525  0.00  0.00    -0.506 OA
ATOM     17  H   UNL     1      -3.335   8.034  -2.024  0.00  0.00    +0.292 HD
ENDBRANCH   7  16
BRANCH   1  18
ATOM     18  O   UNL     1       3.709   9.305  -5.898  0.00  0.00    -0.445 OA
BRANCH  18  24
ATOM     19  C   UNL     1       5.179  11.051  -6.585  0.00  0.00    +0.163 A 
ATOM     20  C   UNL     1       5.543  12.388  -6.549  0.00  0.00    +0.049 A 
ATOM     21  C   UNL     1       4.803  13.285  -5.801  0.00  0.00    +0.004 A 
ATOM     22  C   UNL     1       3.701  12.852  -5.088  0.00  0.00    +0.004 A 
ATOM     23  C   UNL     1       3.330  11.521  -5.123  0.00  0.00    +0.050 A 
ATOM     24  C   UNL     1       4.070  10.615  -5.866  0.00  0.00    +0.170 A 
BRANCH  19  25
ATOM     25  O   UNL     1       5.905  10.167  -7.321  0.00  0.00    -0.489 OA
BRANCH  25  27
ATOM     26  C   UNL     1       7.717   9.552  -8.796  0.00  0.00    +0.048 C 
ATOM     27  C   UNL     1       7.031  10.685  -8.032  0.00  0.00    +0.226 C 
ENDBRANCH  25  27
ENDBRANCH  19  25
ENDBRANCH  18  24
ENDBRANCH   1  18
BRANCH   8  28
ATOM     28  C   UNL     1      -0.349   7.290  -1.387  0.00  0.00    -0.035 C 
BRANCH  28  30
ATOM     29  C   UNL     1       1.161   5.516  -2.047  0.00  0.00    -0.095 C 
ATOM     30  N   UNL     1      -0.112   5.831  -1.365  0.00  0.00    +0.383 N 
ATOM     31  H   UNL     1      -0.880   5.361  -1.858  0.00  0.00    -0.081 HD
BRANCH  30  32
ATOM     32  C   UNL     1      -0.070   5.347   0.031  0.00  0.00    -0.043 C 
BRANCH  32  33
ATOM     33  C   UNL     1      -0.050   3.840   0.023  0.00  0.00    -0.064 A 
ATOM     34  C   UNL     1       1.156   3.165   0.008  0.00  0.00    +0.002 A 
ATOM     35  C   UNL     1       1.175   1.783   0.000  0.00  0.00    +0.000 A 
ATOM     36  C   UNL     1      -0.013   1.076   0.008  0.00  0.00    +0.000 A 
ATOM     37  C   UNL     1      -1.219   1.751   0.017  0.00  0.00    +0.000 A 
ATOM     38  C   UNL     1      -1.238   3.133   0.030  0.00  0.00    +0.002 A 
ENDBRANCH  32  33
ENDBRANCH  30  32
ENDBRANCH  28  30
ENDBRANCH   8  28
TORSDOF 10
