REMARK  Name = ZINC08444543
REMARK  7 active torsions:
REMARK  status: ('A' for Active; 'I' for Inactive)
REMARK    1  A    between atoms: C_1  and  C_2
REMARK    2  A    between atoms: C_2  and  C_3
REMARK    3  A    between atoms: C_2  and  C_4
REMARK    4  A    between atoms: C_2  and  C_5
REMARK    5  A    between atoms: C_8  and  C_11
REMARK    6  A    between atoms: C_16  and  C_31
REMARK    7  A    between atoms: C_26  and  C_28
REMARK                            x       y       z     vdW  Elec       q    Type
REMARK                         _______ _______ _______ _____ _____    ______ ____
ROOT
ATOM      1  C   UNL     1       2.149   3.890   3.791  0.00  0.00    +0.032 C 
ATOM      2  C   UNL     1       0.686   4.017   3.368  0.00  0.00    +0.059 C 
ATOM      3  C   UNL     1       0.415   3.123   2.167  0.00  0.00    +0.017 C 
ATOM      4  C   UNL     1       1.374   2.907   1.254  0.00  0.00    +0.037 C 
ATOM      5  C   UNL     1       1.234   2.073   0.001  0.00  0.00    +0.147 C 
ATOM      6  N   UNL     1       0.030   1.271  -0.046  0.00  0.00    -0.258 N 
ATOM      7  C   UNL     1      -1.229   1.867  -0.094  0.00  0.00    +0.058 A 
ATOM      8  C   UNL     1      -2.043   1.755  -1.206  0.00  0.00    +0.025 A 
ATOM      9  C   UNL     1      -3.260   2.413  -1.231  0.00  0.00    +0.002 A 
ATOM     10  C   UNL     1      -3.666   3.179  -0.154  0.00  0.00    +0.002 A 
ATOM     11  C   UNL     1      -2.868   3.274   0.974  0.00  0.00    +0.025 A 
ATOM     12  C   UNL     1      -1.661   2.598   1.009  0.00  0.00    +0.053 A 
ATOM     13  N   UNL     1      -0.838   2.600   2.129  0.00  0.00    -0.316 N 
ATOM     14  C   UNL     1       0.128  -0.073  -0.050  0.00  0.00    +0.224 C 
ATOM     15  O   UNL     1       1.219  -0.602  -0.014  0.00  0.00    -0.275 OA
ATOM     16  C   UNL     1       2.659   3.478   1.417  0.00  0.00    +0.163 C 
ATOM     17  O   UNL     1       3.502   3.276   0.566  0.00  0.00    -0.292 OA
ATOM     18  C   UNL     1       3.017   4.323   2.603  0.00  0.00    +0.088 C 
ATOM     19  H   UNL     1      -1.183   2.200   2.942  0.00  0.00    +0.152 HD
ENDROOT
BRANCH   5  20
ATOM     20  C   UNL     1       1.243   2.995  -1.191  0.00  0.00    -0.022 A 
ATOM     21  C   UNL     1       2.284   2.938  -2.099  0.00  0.00    +0.008 A 
ATOM     22  C   UNL     1       2.291   3.779  -3.196  0.00  0.00    +0.038 A 
ATOM     23  C   UNL     1       1.261   4.686  -3.378  0.00  0.00    +0.123 A 
ATOM     24  C   UNL     1       0.222   4.746  -2.465  0.00  0.00    +0.038 A 
ATOM     25  C   UNL     1       0.214   3.900  -1.372  0.00  0.00    +0.008 A 
ATOM     26  F   UNL     1       1.269   5.513  -4.447  0.00  0.00    -0.205 F 
ENDBRANCH   5  20
BRANCH   1  30
ATOM     27  C   UNL     1       2.916   6.426   7.142  0.00  0.00    -0.042 A 
ATOM     28  C   UNL     1       3.143   5.066   7.238  0.00  0.00    +0.004 A 
ATOM     29  C   UNL     1       2.895   4.245   6.154  0.00  0.00    +0.004 A 
ATOM     30  C   UNL     1       2.419   4.785   4.973  0.00  0.00    -0.043 A 
ATOM     31  C   UNL     1       2.197   6.146   4.875  0.00  0.00    +0.004 A 
ATOM     32  C   UNL     1       2.441   6.965   5.961  0.00  0.00    +0.004 A 
BRANCH  27  34
ATOM     33  C   UNL     1       4.662   7.218   8.714  0.00  0.00    +0.015 C 
ATOM     34  C   UNL     1       3.186   7.320   8.324  0.00  0.00    -0.013 C 
ATOM     35  C   UNL     1       2.855   8.768   7.955  0.00  0.00    +0.015 C 
ATOM     36  C   UNL     1       2.316   6.883   9.504  0.00  0.00    +0.015 C 
ENDBRANCH  27  34
ENDBRANCH   1  30
BRANCH  14  37
ATOM     37  C   UNL     1      -1.118  -0.919  -0.100  0.00  0.00    +0.076 C 
ATOM     38  C   UNL     1      -1.470  -1.732   1.148  0.00  0.00    +0.013 C 
ATOM     39  C   UNL     1      -0.941  -2.439  -0.102  0.00  0.00    +0.013 C 
ENDBRANCH  14  37
TORSDOF 4
