REMARK  Name = ZINC37376339
REMARK  6 active torsions:
REMARK  status: ('A' for Active; 'I' for Inactive)
REMARK    1  A    between atoms: C_1  and  C_2
REMARK    2  A    between atoms: C_2  and  C_3
REMARK    3  A    between atoms: C_2  and  N_4
REMARK    4  A    between atoms: C_7  and  C_23
REMARK    5  A    between atoms: C_9  and  N_22
REMARK    6  A    between atoms: N_10  and  C_14
REMARK                            x       y       z     vdW  Elec       q    Type
REMARK                         _______ _______ _______ _____ _____    ______ ____
ROOT
ATOM      1  N   UNL     1       0.614   0.649   1.477  0.00  0.00    -0.311 N 
ATOM      2  C   UNL     1      -0.054   0.313   2.640  0.00  0.00    +0.218 A 
ATOM      3  N   UNL     1       0.668   0.002   3.713  0.00  0.00    -0.214 NA
ATOM      4  C   UNL     1       0.108  -0.333   4.868  0.00  0.00    +0.089 A 
ATOM      5  C   UNL     1      -1.302  -0.354   4.947  0.00  0.00    +0.086 A 
ATOM      6  C   UNL     1      -2.240  -0.638   5.932  0.00  0.00    +0.131 A 
ATOM      7  N   UNL     1      -3.462  -0.479   5.387  0.00  0.00    -0.213 N 
ATOM      8  N   UNL     1      -3.339  -0.092   4.048  0.00  0.00    -0.144 NA
ATOM      9  C   UNL     1      -2.065  -0.002   3.735  0.00  0.00    +0.189 A 
ATOM     10  N   UNL     1      -1.371   0.324   2.627  0.00  0.00    -0.193 NA
ATOM     11  H   UNL     1       1.584   0.650   1.458  0.00  0.00    +0.149 HD
ENDROOT
BRANCH   7  12
ATOM     12  C   UNL     1      -4.675  -0.673   6.060  0.00  0.00    +0.105 A 
ATOM     13  C   UNL     1      -4.682  -0.891   7.431  0.00  0.00    +0.069 A 
ATOM     14  C   UNL     1      -5.881  -1.082   8.093  0.00  0.00    +0.126 A 
ATOM     15  C   UNL     1      -7.074  -1.056   7.390  0.00  0.00    +0.041 A 
ATOM     16  C   UNL     1      -7.070  -0.839   6.024  0.00  0.00    +0.043 A 
ATOM     17  C   UNL     1      -5.875  -0.642   5.358  0.00  0.00    +0.149 A 
ATOM     18  F   UNL     1      -5.872  -0.425   4.024  0.00  0.00    -0.203 F 
ATOM     19  F   UNL     1      -5.889  -1.294   9.428  0.00  0.00    -0.205 F 
ENDBRANCH   7  12
BRANCH   4  20
ATOM     20  C   UNL     1       0.940  -0.674   6.044  0.00  0.00    +0.004 A 
ATOM     21  C   UNL     1       0.616  -1.778   6.834  0.00  0.00    +0.010 A 
ATOM     22  C   UNL     1       1.394  -2.093   7.929  0.00  0.00    +0.003 A 
ATOM     23  C   UNL     1       2.494  -1.317   8.245  0.00  0.00    +0.038 A 
ATOM     24  C   UNL     1       2.822  -0.220   7.466  0.00  0.00    +0.124 A 
ATOM     25  C   UNL     1       2.053   0.102   6.364  0.00  0.00    +0.048 A 
ATOM     26  F   UNL     1       3.899   0.533   7.781  0.00  0.00    -0.205 F 
ENDBRANCH   4  20
BRANCH   1  28
ATOM     27  C   UNL     1      -0.507   2.490   0.321  0.00  0.00    +0.027 C 
ATOM     28  C   UNL     1      -0.143   1.005   0.274  0.00  0.00    +0.067 C 
ATOM     29  C   UNL     1       0.710   0.727  -0.966  0.00  0.00    +0.027 C 
ENDBRANCH   1  28
BRANCH   6  30
ATOM     30  N   UNL     1      -1.969  -1.017   7.234  0.00  0.00    -0.342 N 
ATOM     31  H   UNL     1      -1.264  -0.573   7.731  0.00  0.00    +0.144 HD
ATOM     32  H   UNL     1      -2.484  -1.725   7.650  0.00  0.00    +0.144 HD
ENDBRANCH   6  30
TORSDOF 4
