REMARK  Name = ZINC09440912
REMARK  13 active torsions:
REMARK  status: ('A' for Active; 'I' for Inactive)
REMARK    1  A    between atoms: C_1  and  C_2
REMARK    2  A    between atoms: C_2  and  N_3
REMARK    3  A    between atoms: N_3  and  C_4
REMARK    4  A    between atoms: N_3  and  S_6
REMARK    5  A    between atoms: C_4  and  C_5
REMARK    6  A    between atoms: S_6  and  C_9
REMARK    7  A    between atoms: C_13  and  C_15
REMARK    8  A    between atoms: C_15  and  O_17
REMARK    9  A    between atoms: O_17  and  C_18
REMARK   10  A    between atoms: C_18  and  C_20
REMARK   11  A    between atoms: C_18  and  C_21
REMARK   12  A    between atoms: N_23  and  C_24
REMARK   13  A    between atoms: C_28  and  N_30
REMARK                            x       y       z     vdW  Elec       q    Type
REMARK                         _______ _______ _______ _____ _____    ______ ____
ROOT
ATOM      1  C   UNL     1       5.473   6.349  -1.155  0.00  0.00    +0.343 C 
ATOM      2  O   UNL     1       6.464   5.804  -1.597  0.00  0.00    -0.245 OA
ENDROOT
BRANCH   1   7
ATOM      3  C   UNL     1       3.906   9.760  -1.131  0.00  0.00    +0.106 A 
ATOM      4  C   UNL     1       4.828  10.486  -1.867  0.00  0.00    +0.031 A 
ATOM      5  C   UNL     1       5.957   9.872  -2.373  0.00  0.00    +0.041 A 
ATOM      6  C   UNL     1       6.178   8.526  -2.142  0.00  0.00    +0.137 A 
ATOM      7  C   UNL     1       5.249   7.787  -1.403  0.00  0.00    +0.096 A 
ATOM      8  C   UNL     1       4.109   8.417  -0.896  0.00  0.00    +0.046 A 
ATOM      9  F   UNL     1       7.285   7.927  -2.632  0.00  0.00    -0.205 F 
BRANCH   3  10
ATOM     10  S   UNL     1       2.470  10.556  -0.492  0.00  0.00    +0.061 S 
ATOM     11  O   UNL     1       2.238  11.693  -1.312  0.00  0.00    -0.153 OA
ATOM     12  O   UNL     1       1.494   9.541  -0.303  0.00  0.00    -0.153 OA
BRANCH  10  13
ATOM     13  N   UNL     1       2.856  11.128   1.013  0.00  0.00    -0.177 NA
BRANCH  13  15
ATOM     14  C   UNL     1       2.274  13.456   1.484  0.00  0.00    +0.022 C 
ATOM     15  C   UNL     1       3.406  12.477   1.165  0.00  0.00    +0.106 C 
ENDBRANCH  13  15
BRANCH  13  16
ATOM     16  C   UNL     1       2.648  10.284   2.193  0.00  0.00    +0.106 C 
ATOM     17  C   UNL     1       3.949   9.557   2.536  0.00  0.00    +0.022 C 
ENDBRANCH  13  16
ENDBRANCH  10  13
ENDBRANCH   3  10
ENDBRANCH   1   7
BRANCH   1  18
ATOM     18  O   UNL     1       4.578   5.642  -0.439  0.00  0.00    -0.449 OA
BRANCH  18  19
ATOM     19  C   UNL     1       4.863   4.233  -0.234  0.00  0.00    +0.259 C 
ATOM     20  C   UNL     1       5.679   4.058   1.048  0.00  0.00    +0.062 C 
BRANCH  19  21
ATOM     21  C   UNL     1       3.569   3.470  -0.113  0.00  0.00    +0.258 C 
ATOM     22  O   UNL     1       2.513   4.067  -0.101  0.00  0.00    -0.271 OA
ATOM     23  N   UNL     1       3.585   2.126  -0.019  0.00  0.00    -0.282 N 
ATOM     24  H   UNL     1       4.430   1.655   0.047  0.00  0.00    +0.155 HD
BRANCH  23  25
ATOM     25  C   UNL     1       2.381   1.410  -0.018  0.00  0.00    +0.036 A 
ATOM     26  C   UNL     1       2.269   0.239   0.720  0.00  0.00    +0.026 A 
ATOM     27  C   UNL     1       1.082  -0.466   0.719  0.00  0.00    +0.042 A 
ATOM     28  C   UNL     1       0.003  -0.006  -0.017  0.00  0.00    +0.154 A 
ATOM     29  C   UNL     1       0.112   1.161  -0.754  0.00  0.00    +0.163 A 
ATOM     30  C   UNL     1       1.298   1.869  -0.756  0.00  0.00    +0.059 A 
ATOM     31  F   UNL     1      -1.158  -0.697  -0.017  0.00  0.00    -0.203 F 
BRANCH  29  32
ATOM     32  N   UNL     1      -1.042   1.651  -1.540  0.00  0.00    +0.059 N 
ATOM     33  O   UNL     1      -0.947   2.678  -2.188  0.00  0.00    -0.126 OA
ATOM     34  O   UNL     1      -2.088   1.026  -1.539  0.00  0.00    -0.126 OA
ENDBRANCH  29  32
ENDBRANCH  23  25
ENDBRANCH  19  21
ENDBRANCH  18  19
ENDBRANCH   1  18
TORSDOF 10
