REMARK  Name = ZINC37682515
REMARK  7 active torsions:
REMARK  status: ('A' for Active; 'I' for Inactive)
REMARK    1  A    between atoms: C_1  and  C_2
REMARK    2  A    between atoms: C_2  and  C_3
REMARK    3  A    between atoms: C_3  and  C_5
REMARK    4  A    between atoms: C_3  and  N_22
REMARK    5  A    between atoms: C_9  and  S_11
REMARK    6  A    between atoms: S_11  and  N_14
REMARK    7  A    between atoms: C_16  and  C_21
REMARK                            x       y       z     vdW  Elec       q    Type
REMARK                         _______ _______ _______ _____ _____    ______ ____
ROOT
ATOM      1  C   UNL     1      -1.416  -2.035  -0.119  0.00  0.00    -0.060 A 
ATOM      2  C   UNL     1      -1.159  -2.823   0.987  0.00  0.00    +0.002 A 
ATOM      3  C   UNL     1      -1.143  -4.200   0.866  0.00  0.00    +0.002 A 
ATOM      4  C   UNL     1      -1.385  -4.789  -0.361  0.00  0.00    +0.029 A 
ATOM      5  C   UNL     1      -1.642  -4.001  -1.467  0.00  0.00    +0.113 A 
ATOM      6  C   UNL     1      -1.662  -2.623  -1.345  0.00  0.00    +0.031 A 
ENDROOT
BRANCH   5   7
ATOM      7  S   UNL     1      -1.949  -4.751  -3.031  0.00  0.00    +0.101 S 
ATOM      8  O   UNL     1      -1.624  -3.781  -4.018  0.00  0.00    -0.146 OA
ATOM      9  O   UNL     1      -1.339  -6.034  -2.994  0.00  0.00    -0.146 OA
BRANCH   7  10
ATOM     10  N   UNL     1      -3.582  -5.007  -3.140  0.00  0.00    -0.111 NA
ATOM     11  C   UNL     1      -4.091  -5.563  -4.220  0.00  0.00    +0.155 A 
ATOM     12  C   UNL     1      -5.486  -5.779  -4.319  0.00  0.00    -0.007 A 
ATOM     13  C   UNL     1      -5.991  -6.353  -5.441  0.00  0.00    +0.008 A 
ATOM     14  C   UNL     1      -5.124  -6.724  -6.484  0.00  0.00    +0.018 A 
ATOM     15  C   UNL     1      -3.796  -6.512  -6.375  0.00  0.00    +0.084 A 
ATOM     16  N   UNL     1      -3.272  -5.932  -5.259  0.00  0.00    -0.345 N 
ATOM     17  C   UNL     1      -6.401  -5.375  -3.192  0.00  0.00    +0.047 C 
ATOM     18  H   UNL     1      -2.315  -5.782  -5.197  0.00  0.00    +0.167 HD
ENDBRANCH   7  10
ENDBRANCH   5   7
BRANCH   1  19
ATOM     19  C   UNL     1      -1.433  -0.534   0.013  0.00  0.00    -0.044 C 
BRANCH  19  20
ATOM     20  N   UNL     1      -2.083  -0.161   1.276  0.00  0.00    +0.383 N 
ATOM     21  H   UNL     1      -1.571  -0.560   2.049  0.00  0.00    -0.089 HD
ATOM     22  H   UNL     1      -2.095   0.844   1.365  0.00  0.00    -0.089 HD
ATOM     23  H   UNL     1      -3.030  -0.510   1.284  0.00  0.00    -0.089 HD
ENDBRANCH  19  20
BRANCH  19  25
ATOM     24  C   UNL     1      -0.019   1.526   0.010  0.00  0.00    +0.002 C 
ATOM     25  C   UNL     1       0.002  -0.004   0.002  0.00  0.00    -0.015 C 
ENDBRANCH  19  25
ENDBRANCH   1  19
TORSDOF 5
