REMARK  Name = ZINC46539417
REMARK  9 active torsions:
REMARK  status: ('A' for Active; 'I' for Inactive)
REMARK    1  A    between atoms: C_1  and  N_2
REMARK    2  A    between atoms: N_2  and  C_3
REMARK    3  A    between atoms: N_2  and  C_27
REMARK    4  A    between atoms: C_3  and  C_4
REMARK    5  A    between atoms: C_9  and  N_10
REMARK    6  A    between atoms: C_11  and  C_13
REMARK    7  A    between atoms: C_13  and  C_14
REMARK    8  A    between atoms: C_14  and  C_15
REMARK    9  A    between atoms: C_18  and  C_20
REMARK                            x       y       z     vdW  Elec       q    Type
REMARK                         _______ _______ _______ _____ _____    ______ ____
ROOT
ATOM      1  N   UNL     1      -0.981  -1.941  -2.417  0.00  0.00    -0.285 N 
ATOM      2  C   UNL     1      -0.373  -2.334  -3.554  0.00  0.00    +0.218 C 
ATOM      3  O   UNL     1      -0.504  -1.682  -4.568  0.00  0.00    -0.275 OA
ATOM      4  H   UNL     1      -0.812  -2.415  -1.588  0.00  0.00    +0.155 HD
ENDROOT
BRANCH   1  10
ATOM      5  C   UNL     1      -2.081  -0.122  -1.270  0.00  0.00    -0.043 A 
ATOM      6  C   UNL     1      -2.940   0.960  -1.290  0.00  0.00    +0.003 A 
ATOM      7  C   UNL     1      -3.578   1.317  -2.464  0.00  0.00    +0.000 A 
ATOM      8  C   UNL     1      -3.358   0.592  -3.622  0.00  0.00    +0.002 A 
ATOM      9  C   UNL     1      -2.501  -0.490  -3.608  0.00  0.00    +0.023 A 
ATOM     10  C   UNL     1      -1.854  -0.848  -2.432  0.00  0.00    +0.035 A 
BRANCH   5  11
ATOM     11  C   UNL     1      -1.386  -0.510   0.009  0.00  0.00    -0.041 C 
BRANCH  11  13
ATOM     12  C   UNL     1      -0.043   1.478   0.002  0.00  0.00    -0.095 C 
ATOM     13  N   UNL     1      -0.012   0.009  -0.003  0.00  0.00    +0.382 N 
ATOM     14  H   UNL     1       0.463  -0.315  -0.833  0.00  0.00    -0.081 HD
BRANCH  13  15
ATOM     15  C   UNL     1       0.703  -0.469   1.188  0.00  0.00    -0.069 C 
ATOM     16  C   UNL     1       2.134   0.071   1.175  0.00  0.00    -0.015 C 
ATOM     17  C   UNL     1       2.878  -0.427   2.416  0.00  0.00    -0.002 C 
ATOM     18  C   UNL     1       2.911  -1.956   2.411  0.00  0.00    -0.000 C 
ATOM     19  C   UNL     1       1.480  -2.497   2.424  0.00  0.00    -0.002 C 
ATOM     20  C   UNL     1       0.735  -1.999   1.183  0.00  0.00    -0.015 C 
ENDBRANCH  13  15
ENDBRANCH  11  13
ENDBRANCH   5  11
ENDBRANCH   1  10
BRANCH   2  21
ATOM     21  C   UNL     1       0.469  -3.584  -3.565  0.00  0.00    +0.105 C 
BRANCH  21  22
ATOM     22  C   UNL     1       1.039  -3.802  -4.968  0.00  0.00    +0.105 C 
BRANCH  22  23
ATOM     23  C   UNL     1       1.881  -5.051  -4.979  0.00  0.00    +0.197 A 
ATOM     24  N   UNL     1       1.451  -6.252  -5.248  0.00  0.00    -0.221 NA
ATOM     25  C   UNL     1       2.477  -7.112  -5.162  0.00  0.00    +0.161 A 
ATOM     26  C   UNL     1       3.581  -6.397  -4.825  0.00  0.00    +0.158 A 
ATOM     27  O   UNL     1       3.195  -5.107  -4.719  0.00  0.00    -0.440 OA
BRANCH  26  28
ATOM     28  C   UNL     1       4.945  -6.928  -4.619  0.00  0.00    +0.054 A 
ATOM     29  C   UNL     1       6.035  -6.328  -5.252  0.00  0.00    +0.014 A 
ATOM     30  C   UNL     1       7.305  -6.828  -5.056  0.00  0.00    +0.001 A 
ATOM     31  C   UNL     1       7.502  -7.924  -4.234  0.00  0.00    +0.003 A 
ATOM     32  C   UNL     1       6.429  -8.525  -3.603  0.00  0.00    +0.039 A 
ATOM     33  C   UNL     1       5.151  -8.030  -3.785  0.00  0.00    +0.134 A 
ATOM     34  F   UNL     1       4.103  -8.615  -3.164  0.00  0.00    -0.205 F 
ENDBRANCH  26  28
ENDBRANCH  22  23
ENDBRANCH  21  22
ENDBRANCH   2  21
TORSDOF 8
