REMARK  Name = ZINC36348544
REMARK  12 active torsions:
REMARK  status: ('A' for Active; 'I' for Inactive)
REMARK    1  A    between atoms: C_1  and  C_2
REMARK    2  A    between atoms: C_2  and  C_3
REMARK    3  A    between atoms: C_2  and  C_4
REMARK    4  A    between atoms: C_7  and  C_10
REMARK    5  A    between atoms: C_10  and  N_11
REMARK    6  A    between atoms: C_20  and  C_22
REMARK    7  A    between atoms: C_25  and  O_32
REMARK    8  A    between atoms: C_26  and  O_30
REMARK    9  A    between atoms: C_27  and  O_28
REMARK   10  A    between atoms: O_28  and  C_29
REMARK   11  A    between atoms: O_30  and  C_31
REMARK   12  A    between atoms: O_32  and  C_33
REMARK                            x       y       z     vdW  Elec       q    Type
REMARK                         _______ _______ _______ _____ _____    ______ ____
ROOT
ATOM      1  N   UNL     1       3.666  -0.691  -5.290  0.00  0.00    +0.391 N 
ATOM      2  C   UNL     1       4.538  -0.480  -4.131  0.00  0.00    -0.075 C 
ATOM      3  C   UNL     1       5.704   0.435  -4.482  0.00  0.00    +0.003 C 
ATOM      4  C   UNL     1       5.253   1.476  -5.511  0.00  0.00    +0.119 C 
ATOM      5  N   UNL     1       5.438   0.925  -6.858  0.00  0.00    -0.352 N 
ATOM      6  C   UNL     1       6.004   1.561  -7.921  0.00  0.00    +0.086 A 
ATOM      7  C   UNL     1       5.970   0.725  -8.979  0.00  0.00    +0.019 A 
ATOM      8  C   UNL     1       5.364  -0.473  -8.552  0.00  0.00    +0.021 A 
ATOM      9  C   UNL     1       5.055  -0.326  -7.249  0.00  0.00    +0.010 A 
ATOM     10  C   UNL     1       4.410  -1.364  -6.363  0.00  0.00    +0.014 C 
ATOM     11  H   UNL     1       3.333   0.201  -5.622  0.00  0.00    -0.080 HD
ENDROOT
BRANCH  10  12
ATOM     12  C   UNL     1       3.463  -2.204  -7.181  0.00  0.00    -0.010 A 
ATOM     13  C   UNL     1       2.340  -1.628  -7.745  0.00  0.00    +0.010 A 
ATOM     14  C   UNL     1       1.468  -2.394  -8.496  0.00  0.00    +0.050 A 
ATOM     15  C   UNL     1       1.717  -3.745  -8.686  0.00  0.00    +0.165 A 
ATOM     16  C   UNL     1       2.844  -4.328  -8.120  0.00  0.00    +0.204 A 
ATOM     17  C   UNL     1       3.721  -3.553  -7.371  0.00  0.00    +0.167 A 
BRANCH  17  18
ATOM     18  O   UNL     1       4.829  -4.118  -6.820  0.00  0.00    -0.491 OA
ATOM     19  C   UNL     1       4.694  -4.663  -5.506  0.00  0.00    +0.277 C 
ENDBRANCH  17  18
BRANCH  16  20
ATOM     20  O   UNL     1       3.092  -5.654  -8.305  0.00  0.00    -0.488 OA
ATOM     21  C   UNL     1       3.876  -6.015  -9.443  0.00  0.00    +0.277 C 
ENDBRANCH  16  20
BRANCH  15  22
ATOM     22  O   UNL     1       0.858  -4.498  -9.424  0.00  0.00    -0.491 OA
ATOM     23  C   UNL     1      -0.280  -3.832  -9.974  0.00  0.00    +0.277 C 
ENDBRANCH  15  22
ENDBRANCH  10  12
BRANCH   1  24
ATOM     24  C   UNL     1       2.522  -1.522  -4.894  0.00  0.00    -0.042 C 
BRANCH  24  28
ATOM     25  C   UNL     1       0.206   0.543  -1.958  0.00  0.00    -0.045 A 
ATOM     26  C   UNL     1      -0.078   0.704  -3.301  0.00  0.00    +0.004 A 
ATOM     27  C   UNL     1       0.671   0.036  -4.251  0.00  0.00    +0.002 A 
ATOM     28  C   UNL     1       1.705  -0.793  -3.858  0.00  0.00    -0.064 A 
ATOM     29  C   UNL     1       1.990  -0.953  -2.515  0.00  0.00    +0.002 A 
ATOM     30  C   UNL     1       1.244  -0.282  -1.565  0.00  0.00    +0.004 A 
BRANCH  25  32
ATOM     31  C   UNL     1      -0.497   2.780  -1.151  0.00  0.00    +0.012 C 
ATOM     32  C   UNL     1      -0.611   1.272  -0.922  0.00  0.00    +0.013 C 
ATOM     33  C   UNL     1      -2.076   0.848  -1.038  0.00  0.00    +0.012 C 
ENDBRANCH  25  32
ENDBRANCH  24  28
ENDBRANCH   1  24
TORSDOF 7
