REMARK  Name = ZINC39977396
REMARK  7 active torsions:
REMARK  status: ('A' for Active; 'I' for Inactive)
REMARK    1  A    between atoms: C_1  and  C_2
REMARK    2  A    between atoms: C_5  and  S_8
REMARK    3  A    between atoms: S_8  and  N_11
REMARK    4  A    between atoms: C_13  and  N_23
REMARK    5  A    between atoms: N_23  and  C_24
REMARK    6  A    between atoms: C_27  and  C_30
REMARK    7  A    between atoms: C_30  and  C_32
REMARK                            x       y       z     vdW  Elec       q    Type
REMARK                         _______ _______ _______ _____ _____    ______ ____
ROOT
ATOM      1  N   UNL     1       1.677  -4.668   0.338  0.00  0.00    -0.110 NA
ATOM      2  C   UNL     1       1.890  -5.927   0.093  0.00  0.00    +0.192 C 
ATOM      3  C   UNL     1       3.299  -6.447  -0.082  0.00  0.00    +0.237 C 
ATOM      4  N   UNL     1       3.473  -7.882  -0.358  0.00  0.00    -0.359 N 
ATOM      5  C   UNL     1       2.410  -8.633  -0.437  0.00  0.00    +0.063 A 
ATOM      6  C   UNL     1       2.530 -10.073  -0.711  0.00  0.00    +0.027 A 
ATOM      7  C   UNL     1       1.406 -10.819  -0.785  0.00  0.00    +0.002 A 
ATOM      8  C   UNL     1       0.131 -10.255  -0.609  0.00  0.00    +0.002 A 
ATOM      9  C   UNL     1      -0.057  -8.942  -0.356  0.00  0.00    +0.030 A 
ATOM     10  C   UNL     1       1.052  -8.064  -0.256  0.00  0.00    +0.089 A 
ATOM     11  N   UNL     1       0.863  -6.786  -0.004  0.00  0.00    -0.226 NA
ATOM     12  H   UNL     1       4.358  -8.261  -0.477  0.00  0.00    +0.162 HD
ENDROOT
BRANCH   1  13
ATOM     13  S   UNL     1       0.130  -4.113   0.535  0.00  0.00    +0.100 S 
ATOM     14  O   UNL     1      -0.369  -4.712   1.723  0.00  0.00    -0.146 OA
ATOM     15  O   UNL     1      -0.517  -4.261  -0.722  0.00  0.00    -0.146 OA
BRANCH  13  20
ATOM     16  C   UNL     1       0.479   1.814   1.609  0.00  0.00    +0.044 C 
ATOM     17  C   UNL     1       0.392   0.334   1.340  0.00  0.00    -0.050 A 
ATOM     18  C   UNL     1       0.282  -0.129   0.042  0.00  0.00    +0.005 A 
ATOM     19  C   UNL     1       0.202  -1.486  -0.204  0.00  0.00    +0.029 A 
ATOM     20  C   UNL     1       0.233  -2.382   0.848  0.00  0.00    +0.113 A 
ATOM     21  C   UNL     1       0.344  -1.921   2.146  0.00  0.00    +0.029 A 
ATOM     22  C   UNL     1       0.428  -0.563   2.392  0.00  0.00    +0.005 A 
ENDBRANCH  13  20
ENDBRANCH   1  13
BRANCH   3  23
ATOM     23  N   UNL     1       4.046  -6.133   1.138  0.00  0.00    -0.318 N 
ATOM     24  H   UNL     1       3.639  -6.277   2.007  0.00  0.00    +0.148 HD
BRANCH  23  25
ATOM     25  C   UNL     1       5.338  -5.631   1.052  0.00  0.00    +0.029 A 
ATOM     26  C   UNL     1       5.978  -5.569  -0.184  0.00  0.00    +0.023 A 
ATOM     27  C   UNL     1       7.248  -5.076  -0.274  0.00  0.00    +0.013 A 
ATOM     28  C   UNL     1       7.908  -4.631   0.879  0.00  0.00    +0.017 A 
ATOM     29  C   UNL     1       7.260  -4.694   2.120  0.00  0.00    +0.013 A 
ATOM     30  C   UNL     1       5.988  -5.184   2.200  0.00  0.00    +0.023 A 
BRANCH  28  31
ATOM     31  C   UNL     1       9.273  -4.101   0.788  0.00  0.00    +0.160 C 
ATOM     32  O   UNL     1       9.832  -4.047  -0.287  0.00  0.00    -0.292 OA
ATOM     33  C   UNL     1       9.980  -3.623   2.030  0.00  0.00    +0.091 C 
ENDBRANCH  28  31
ENDBRANCH  23  25
ENDBRANCH   3  23
TORSDOF 5
