REMARK  Name = ZINC16696696
REMARK  15 active torsions:
REMARK  status: ('A' for Active; 'I' for Inactive)
REMARK    1  A    between atoms: C_1  and  C_2
REMARK    2  A    between atoms: C_2  and  C_3
REMARK    3  A    between atoms: C_3  and  C_4
REMARK    4  A    between atoms: C_7  and  C_11
REMARK    5  A    between atoms: C_10  and  N_61
REMARK    6  A    between atoms: N_13  and  C_14
REMARK    7  A    between atoms: C_14  and  C_16
REMARK    8  A    between atoms: C_14  and  C_34
REMARK    9  A    between atoms: C_18  and  O_33
REMARK   10  A    between atoms: C_20  and  O_32
REMARK   11  A    between atoms: C_22  and  O_29
REMARK   12  A    between atoms: C_24  and  S_27
REMARK   13  A    between atoms: S_27  and  C_28
REMARK   14  A    between atoms: O_29  and  P_30
REMARK   15  A    between atoms: C_34  and  C_36
REMARK                            x       y       z     vdW  Elec       q    Type
REMARK                         _______ _______ _______ _____ _____    ______ ____
ROOT
ATOM      1  C   UNL     1      -0.729   1.579   1.266  0.00  0.00    +0.122 C 
ENDROOT
BRANCH   1   2
ATOM      2  C   UNL     1      -0.013   1.086   0.008  0.00  0.00    +0.172 C 
ATOM      3  C   UNL     1      -0.752   1.593  -1.233  0.00  0.00    +0.176 C 
ATOM      4  C   UNL     1       0.005   1.145  -2.487  0.00  0.00    +0.178 C 
ATOM      5  C   UNL     1       1.444   1.665  -2.414  0.00  0.00    +0.200 C 
ATOM      6  C   UNL     1       2.098   1.155  -1.128  0.00  0.00    +0.208 C 
ATOM      7  O   UNL     1       1.328   1.581  -0.002  0.00  0.00    -0.356 OA
BRANCH   6   8
ATOM      8  S   UNL     1       2.169  -0.657  -1.163  0.00  0.00    -0.130 S 
ATOM      9  C   UNL     1       3.093  -1.089   0.337  0.00  0.00    +0.087 C 
ENDBRANCH   6   8
BRANCH   4  10
ATOM     10  O   UNL     1      -0.637   1.677  -3.648  0.00  0.00    -0.386 OA
ATOM     11  H   UNL     1      -0.206   1.438  -4.480  0.00  0.00    +0.210 HD
ENDBRANCH   4  10
BRANCH   3  12
ATOM     12  O   UNL     1      -0.818   3.020  -1.199  0.00  0.00    -0.387 OA
ATOM     13  H   UNL     1      -1.274   3.411  -1.957  0.00  0.00    +0.210 HD
ENDBRANCH   3  12
BRANCH   5  14
ATOM     14  O   UNL     1       2.180   1.193  -3.545  0.00  0.00    -0.274 OA
BRANCH  14  15
ATOM     15  P   UNL     1       2.874   2.177  -4.613  0.00  0.00    +0.532 P 
ATOM     16  O   UNL     1       1.861   3.111  -5.154  0.00  0.00    -0.222 OA
ATOM     17  O   UNL     1       4.044   3.014  -3.890  0.00  0.00    -0.115 OA
ATOM     18  O   UNL     1       3.500   1.308  -5.815  0.00  0.00    -0.115 OA
ENDBRANCH  14  15
ENDBRANCH   5  14
ENDBRANCH   1   2
BRANCH   1  21
ATOM     19  C   UNL     1      -3.061   1.733   1.958  0.00  0.00    +0.200 C 
ATOM     20  O   UNL     1      -2.784   2.747   2.563  0.00  0.00    -0.278 OA
ATOM     21  N   UNL     1      -2.104   1.073   1.276  0.00  0.00    -0.310 N 
ATOM     22  H   UNL     1      -2.325   0.262   0.792  0.00  0.00    +0.149 HD
BRANCH  19  25
ATOM     23  C   UNL     1      -5.682   0.549   3.995  0.00  0.00    -0.029 C 
ATOM     24  C   UNL     1      -4.606   0.071   2.994  0.00  0.00    -0.005 C 
ATOM     25  C   UNL     1      -4.474   1.211   1.968  0.00  0.00    +0.019 C 
ATOM     26  C   UNL     1      -6.465   1.610   3.181  0.00  0.00    -0.075 C 
ATOM     27  C   UNL     1      -5.972   2.971   1.217  0.00  0.00    -0.095 C 
ATOM     28  N   UNL     1      -5.398   2.260   2.401  0.00  0.00    +0.386 N 
ATOM     29  H   UNL     1      -4.901   2.937   2.992  0.00  0.00    -0.081 HD
BRANCH  23  30
ATOM     30  C   UNL     1      -6.596  -0.608   4.403  0.00  0.00    +0.001 C 
BRANCH  30  32
ATOM     31  C   UNL     1      -8.482  -1.292   5.892  0.00  0.00    +0.004 C 
ATOM     32  C   UNL     1      -7.569  -0.134   5.484  0.00  0.00    -0.003 C 
ENDBRANCH  30  32
ENDBRANCH  23  30
ENDBRANCH  19  25
ENDBRANCH   1  21
BRANCH   1  33
ATOM     33  C   UNL     1       0.010   1.073   2.506  0.00  0.00    +0.100 C 
ATOM     34  C   UNL     1      -0.774   1.460   3.762  0.00  0.00    +0.026 C 
ATOM     35 CL   UNL     1       1.653   1.813   2.571  0.00  0.00    -0.120 Cl
ENDBRANCH   1  33
TORSDOF 11
