REMARK  Name = ZINC39654600
REMARK  12 active torsions:
REMARK  status: ('A' for Active; 'I' for Inactive)
REMARK    1  A    between atoms: C_1  and  C_2
REMARK    2  A    between atoms: C_2  and  C_3
REMARK    3  A    between atoms: C_6  and  C_9
REMARK    4  A    between atoms: C_9  and  C_10
REMARK    5  A    between atoms: C_10  and  N_11
REMARK    6  A    between atoms: C_12  and  C_14
REMARK    7  A    between atoms: C_25  and  C_27
REMARK    8  A    between atoms: C_27  and  C_29
REMARK    9  A    between atoms: C_27  and  O_32
REMARK   10  A    between atoms: C_29  and  C_30
REMARK   11  A    between atoms: C_29  and  C_31
REMARK   12  A    between atoms: O_32  and  C_33
REMARK                            x       y       z     vdW  Elec       q    Type
REMARK                         _______ _______ _______ _____ _____    ______ ____
ROOT
ATOM      1  C   UNL     1       5.100  -1.998  -8.929  0.00  0.00    +0.100 C 
ATOM      2  C   UNL     1       3.933  -2.505  -9.806  0.00  0.00    +0.121 C 
ATOM      3  N   UNL     1       3.624  -1.373 -10.710  0.00  0.00    -0.297 N 
ATOM      4  C   UNL     1       4.950  -0.813 -11.067  0.00  0.00    +0.115 C 
ATOM      5  C   UNL     1       5.766  -0.889  -9.762  0.00  0.00    -0.004 C 
ATOM      6  C   UNL     1       5.699   0.442  -9.020  0.00  0.00    -0.010 C 
ATOM      7  C   UNL     1       6.418   1.516  -9.842  0.00  0.00    -0.082 C 
ATOM      8  N   UNL     1       7.815   1.120 -10.052  0.00  0.00    +0.379 N 
ATOM      9  C   UNL     1       7.873  -0.113 -10.846  0.00  0.00    -0.082 C 
ATOM     10  C   UNL     1       7.216  -1.256 -10.067  0.00  0.00    -0.010 C 
ATOM     11  C   UNL     1       2.411  -0.947 -11.116  0.00  0.00    +0.257 C 
ATOM     12  O   UNL     1       2.324  -0.053 -11.931  0.00  0.00    -0.272 OA
ATOM     13  H   UNL     1       8.302   1.856 -10.540  0.00  0.00    -0.086 HD
ATOM     14  H   UNL     1       8.257   0.964  -9.158  0.00  0.00    -0.086 HD
ENDROOT
BRANCH   1  16
ATOM     15  N   UNL     1       5.212  -1.708  -6.475  0.00  0.00    -0.315 N 
ATOM     16  C   UNL     1       4.576  -1.437  -7.633  0.00  0.00    +0.218 C 
ATOM     17  O   UNL     1       3.583  -0.741  -7.630  0.00  0.00    -0.275 OA
ATOM     18  H   UNL     1       6.006  -2.264  -6.477  0.00  0.00    +0.149 HD
BRANCH  15  19
ATOM     19  C   UNL     1       4.703  -1.163  -5.215  0.00  0.00    +0.109 C 
BRANCH  19  20
ATOM     20  C   UNL     1       5.600  -1.618  -4.062  0.00  0.00    +0.054 C 
BRANCH  20  24
ATOM     21  C   UNL     1       4.117  -0.029  -0.385  0.00  0.00    -0.048 A 
ATOM     22  C   UNL     1       3.675  -1.259  -0.835  0.00  0.00    +0.004 A 
ATOM     23  C   UNL     1       4.155  -1.773  -2.025  0.00  0.00    +0.004 A 
ATOM     24  C   UNL     1       5.076  -1.057  -2.765  0.00  0.00    -0.046 A 
ATOM     25  C   UNL     1       5.518   0.173  -2.316  0.00  0.00    +0.004 A 
ATOM     26  C   UNL     1       5.035   0.690  -1.128  0.00  0.00    +0.004 A 
BRANCH  21  28
ATOM     27  C   UNL     1       2.338   1.363   0.639  0.00  0.00    +0.009 C 
ATOM     28  C   UNL     1       3.594   0.532   0.912  0.00  0.00    +0.032 C 
ENDBRANCH  21  28
ENDBRANCH  20  24
ENDBRANCH  19  20
ENDBRANCH  15  19
ENDBRANCH   1  16
BRANCH  11  29
ATOM     29  C   UNL     1       1.164  -1.583 -10.558  0.00  0.00    +0.261 C 
BRANCH  29  30
ATOM     30  C   UNL     1       0.370  -0.540  -9.769  0.00  0.00    +0.033 C 
ATOM     31  C   UNL     1      -0.933  -1.164  -9.265  0.00  0.00    +0.011 C 
ATOM     32  C   UNL     1       1.200  -0.060  -8.577  0.00  0.00    +0.011 C 
ENDBRANCH  29  30
BRANCH  29  33
ATOM     33  O   UNL     1       0.362  -2.081 -11.630  0.00  0.00    -0.479 OA
BRANCH  33  34
ATOM     34  C   UNL     1      -0.292  -3.253 -11.418  0.00  0.00    +0.122 A 
ATOM     35  C   UNL     1      -1.104  -3.785 -12.409  0.00  0.00    +0.045 A 
ATOM     36  C   UNL     1      -1.768  -4.977 -12.191  0.00  0.00    +0.004 A 
ATOM     37  C   UNL     1      -1.624  -5.640 -10.986  0.00  0.00    +0.000 A 
ATOM     38  C   UNL     1      -0.815  -5.112  -9.997  0.00  0.00    +0.004 A 
ATOM     39  C   UNL     1      -0.145  -3.923 -10.212  0.00  0.00    +0.045 A 
ENDBRANCH  33  34
ENDBRANCH  29  33
ENDBRANCH  11  29
TORSDOF 9
