REMARK  Name = ZINC28296565
REMARK  9 active torsions:
REMARK  status: ('A' for Active; 'I' for Inactive)
REMARK    1  A    between atoms: C_4  and  C_7
REMARK    2  A    between atoms: N_18  and  C_26
REMARK    3  A    between atoms: C_19  and  C_20
REMARK    4  A    between atoms: C_26  and  C_27
REMARK    5  A    between atoms: C_27  and  C_29
REMARK    6  A    between atoms: C_27  and  O_38
REMARK    7  A    between atoms: C_29  and  N_30
REMARK    8  A    between atoms: N_30  and  C_31
REMARK    9  A    between atoms: C_31  and  C_32
REMARK                            x       y       z     vdW  Elec       q    Type
REMARK                         _______ _______ _______ _____ _____    ______ ____
ROOT
ATOM      1  C   UNL     1      -2.826   4.852   3.893  0.00  0.00    +0.015 A 
ATOM      2  C   UNL     1      -1.549   4.809   4.619  0.00  0.00    +0.009 A 
ATOM      3  C   UNL     1      -1.134   5.311   5.866  0.00  0.00    +0.011 A 
ATOM      4  C   UNL     1       0.134   5.123   6.303  0.00  0.00    +0.009 A 
ATOM      5  C   UNL     1       1.063   4.418   5.510  0.00  0.00    -0.016 A 
ATOM      6  C   UNL     1       2.380   4.216   5.951  0.00  0.00    +0.008 A 
ATOM      7  C   UNL     1       3.259   3.531   5.166  0.00  0.00    +0.001 A 
ATOM      8  C   UNL     1       2.869   3.026   3.929  0.00  0.00    +0.001 A 
ATOM      9  C   UNL     1       1.598   3.204   3.469  0.00  0.00    +0.010 A 
ATOM     10  C   UNL     1       0.668   3.904   4.251  0.00  0.00    +0.006 A 
ATOM     11  C   UNL     1      -0.658   4.105   3.804  0.00  0.00    +0.058 A 
ATOM     12  N   UNL     1      -1.324   3.737   2.661  0.00  0.00    -0.336 N 
ATOM     13  C   UNL     1      -2.620   4.185   2.703  0.00  0.00    +0.058 A 
ENDROOT
BRANCH   1  17
ATOM     14  C   UNL     1      -6.432   6.684   5.195  0.00  0.00    +0.000 A 
ATOM     15  C   UNL     1      -5.917   5.606   5.892  0.00  0.00    +0.001 A 
ATOM     16  C   UNL     1      -4.747   5.006   5.474  0.00  0.00    +0.008 A 
ATOM     17  C   UNL     1      -4.082   5.490   4.347  0.00  0.00    -0.015 A 
ATOM     18  C   UNL     1      -4.604   6.582   3.652  0.00  0.00    +0.008 A 
ATOM     19  C   UNL     1      -5.778   7.169   4.076  0.00  0.00    +0.001 A 
ENDBRANCH   1  17
BRANCH  13  20
ATOM     20  C   UNL     1      -3.632   3.982   1.647  0.00  0.00    -0.001 A 
ATOM     21  C   UNL     1      -3.331   4.291   0.318  0.00  0.00    +0.010 A 
ATOM     22  C   UNL     1      -4.279   4.094  -0.664  0.00  0.00    +0.001 A 
ATOM     23  C   UNL     1      -5.530   3.603  -0.334  0.00  0.00    +0.000 A 
ATOM     24  C   UNL     1      -5.837   3.300   0.981  0.00  0.00    +0.001 A 
ATOM     25  C   UNL     1      -4.897   3.487   1.972  0.00  0.00    +0.010 A 
ENDBRANCH  13  20
BRANCH  12  26
ATOM     26  C   UNL     1      -0.734   2.982   1.553  0.00  0.00    +0.151 C 
BRANCH  26  27
ATOM     27  C   UNL     1      -0.798   1.486   1.864  0.00  0.00    +0.117 C 
BRANCH  27  28
ATOM     28  O   UNL     1      -2.163   1.069   1.920  0.00  0.00    -0.392 OA
ATOM     29  H   UNL     1      -2.409   0.018   2.134  0.00  0.00    +0.210 HD
ENDBRANCH  27  28
BRANCH  27  30
ATOM     30  C   UNL     1      -0.071   0.705   0.768  0.00  0.00    -0.049 C 
BRANCH  30  31
ATOM     31  N   UNL     1      -0.132  -0.732   1.067  0.00  0.00    +0.382 N 
ATOM     32  H   UNL     1       0.350  -0.926   2.036  0.00  0.00    -0.086 HD
ATOM     33  H   UNL     1      -1.184  -1.053   1.110  0.00  0.00    -0.086 HD
BRANCH  31  34
ATOM     34  C   UNL     1       0.557  -1.515   0.033  0.00  0.00    -0.051 C 
BRANCH  34  35
ATOM     35  C   UNL     1       0.472  -3.003   0.378  0.00  0.00    +0.101 C 
ATOM     36  C   UNL     1       1.199  -3.833  -0.698  0.00  0.00    +0.032 C 
ATOM     37  C   UNL     1       2.288  -4.603   0.089  0.00  0.00    +0.030 C 
ATOM     38  C   UNL     1       1.732  -4.563   1.536  0.00  0.00    +0.160 C 
ATOM     39  O   UNL     1       1.129  -3.252   1.632  0.00  0.00    -0.378 OA
ENDBRANCH  34  35
ENDBRANCH  31  34
ENDBRANCH  30  31
ENDBRANCH  27  30
ENDBRANCH  26  27
ENDBRANCH  12  26
TORSDOF 9
