REMARK  Name = ZINC63063525
REMARK  3 active torsions:
REMARK  status: ('A' for Active; 'I' for Inactive)
REMARK    1  A    between atoms: C_3  and  N_8
REMARK    2  A    between atoms: C_6  and  N_7
REMARK    3  A    between atoms: C_9  and  C_11
REMARK                            x       y       z     vdW  Elec       q    Type
REMARK                         _______ _______ _______ _____ _____    ______ ____
ROOT
ATOM      1  N   UNL     1       3.585   2.131  -0.021  0.00  0.00    -0.284 N 
ATOM      2  C   UNL     1       4.760   1.476   0.066  0.00  0.00    +0.238 C 
ATOM      3  O   UNL     1       4.781   0.263   0.060  0.00  0.00    -0.273 OA
ATOM      4  H   UNL     1       3.573   3.098  -0.093  0.00  0.00    +0.155 HD
ENDROOT
BRANCH   2   5
ATOM      5  C   UNL     1       6.048   2.251   0.172  0.00  0.00    +0.170 C 
ATOM      6  C   UNL     1       6.443   2.774  -1.234  0.00  0.00    +0.110 C 
ATOM      7  S   UNL     1       8.275   2.645  -1.082  0.00  0.00    -0.065 S 
ATOM      8  C   UNL     1       8.336   1.452   0.245  0.00  0.00    +0.273 C 
ATOM      9  O   UNL     1       9.306   0.829   0.634  0.00  0.00    -0.263 OA
ATOM     10  N   UNL     1       7.079   1.388   0.721  0.00  0.00    -0.294 N 
ATOM     11  H   UNL     1       6.862   0.765   1.432  0.00  0.00    +0.150 HD
ENDBRANCH   2   5
BRANCH   1  14
ATOM     12  C   UNL     1       1.090  -0.460   0.751  0.00  0.00    +0.024 A 
ATOM     13  C   UNL     1       2.276   0.247   0.738  0.00  0.00    +0.025 A 
ATOM     14  C   UNL     1       2.381   1.414  -0.007  0.00  0.00    +0.034 A 
ATOM     15  C   UNL     1       1.293   1.871  -0.739  0.00  0.00    +0.025 A 
ATOM     16  C   UNL     1       0.106   1.165  -0.725  0.00  0.00    +0.024 A 
ATOM     17  C   UNL     1       0.002  -0.003   0.019  0.00  0.00    +0.025 A 
BRANCH  17  18
ATOM     18  N   UNL     1      -1.200  -0.719   0.032  0.00  0.00    -0.358 N 
ATOM     19  H   UNL     1      -1.274  -1.534   0.553  0.00  0.00    +0.142 HD
ATOM     20  H   UNL     1      -1.960  -0.400  -0.479  0.00  0.00    +0.142 HD
ENDBRANCH  17  18
ENDBRANCH   1  14
TORSDOF 3
