REMARK  Name = ZINC20806835
REMARK  9 active torsions:
REMARK  status: ('A' for Active; 'I' for Inactive)
REMARK    1  A    between atoms: C_1  and  C_2
REMARK    2  A    between atoms: C_2  and  C_3
REMARK    3  A    between atoms: C_2  and  O_4
REMARK    4  A    between atoms: O_4  and  C_5
REMARK    5  A    between atoms: C_5  and  C_7
REMARK    6  A    between atoms: C_10  and  N_13
REMARK    7  A    between atoms: C_14  and  C_16
REMARK    8  A    between atoms: C_16  and  N_17
REMARK    9  A    between atoms: C_21  and  C_23
REMARK                            x       y       z     vdW  Elec       q    Type
REMARK                         _______ _______ _______ _____ _____    ______ ____
ROOT
ATOM      1  C   UNL     1      -0.412   6.086  -4.562  0.00  0.00    +0.020 C 
ENDROOT
BRANCH   1   2
ATOM      2  N   UNL     1       0.788   5.574  -5.239  0.00  0.00    +0.390 N 
ATOM      3  C   UNL     1       1.793   6.644  -5.415  0.00  0.00    -0.077 C 
ATOM      4  C   UNL     1       3.160   5.927  -5.285  0.00  0.00    -0.020 C 
ATOM      5  C   UNL     1       2.861   4.880  -4.180  0.00  0.00    -0.013 C 
ATOM      6  C   UNL     1       1.401   4.476  -4.470  0.00  0.00    -0.037 C 
ATOM      7  H   UNL     1       0.463   5.201  -6.221  0.00  0.00    -0.080 HD
BRANCH   6   8
ATOM      8  C   UNL     1       0.656   4.280  -3.174  0.00  0.00    -0.057 A 
ATOM      9  C   UNL     1      -0.030   3.101  -2.945  0.00  0.00    +0.006 A 
ATOM     10  C   UNL     1      -0.715   2.914  -1.758  0.00  0.00    +0.049 A 
ATOM     11  C   UNL     1      -0.712   3.913  -0.799  0.00  0.00    +0.162 A 
ATOM     12  C   UNL     1      -0.023   5.095  -1.028  0.00  0.00    +0.162 A 
ATOM     13  C   UNL     1       0.661   5.279  -2.218  0.00  0.00    +0.051 A 
ATOM     14  O   UNL     1      -0.025   6.072  -0.076  0.00  0.00    -0.488 OA
ATOM     15  C   UNL     1      -1.278   6.723   0.148  0.00  0.00    +0.232 C 
ATOM     16  C   UNL     1      -2.131   5.926   1.123  0.00  0.00    +0.082 C 
ATOM     17  C   UNL     1      -2.533   4.569   0.566  0.00  0.00    +0.232 C 
ATOM     18  O   UNL     1      -1.384   3.741   0.376  0.00  0.00    -0.488 OA
ENDBRANCH   6   8
ENDBRANCH   1   2
BRANCH   1  20
ATOM     19  N   UNL     1      -2.366   7.495  -5.123  0.00  0.00    -0.287 N 
ATOM     20  C   UNL     1      -1.216   6.919  -5.526  0.00  0.00    +0.201 C 
ATOM     21  O   UNL     1      -0.828   7.072  -6.665  0.00  0.00    -0.278 OA
ATOM     22  H   UNL     1      -2.681   7.417  -4.072  0.00  0.00    +0.155 HD
BRANCH  19  26
ATOM     23  C   UNL     1      -4.727   9.568  -7.857  0.00  0.00    +0.059 A 
ATOM     24  C   UNL     1      -5.326   8.835  -6.828  0.00  0.00    +0.017 A 
ATOM     25  C   UNL     1      -4.543   8.151  -5.926  0.00  0.00    +0.024 A 
ATOM     26  C   UNL     1      -3.156   8.189  -6.038  0.00  0.00    +0.033 A 
ATOM     27  C   UNL     1      -2.557   8.921  -7.058  0.00  0.00    +0.024 A 
ATOM     28  C   UNL     1      -3.334   9.603  -7.966  0.00  0.00    +0.017 A 
BRANCH  23  29
ATOM     29  C   UNL     1      -5.563  10.302  -8.825  0.00  0.00    +0.339 C 
ATOM     30  O   UNL     1      -6.774  10.270  -8.729  0.00  0.00    -0.245 OA
BRANCH  29  31
ATOM     31  O   UNL     1      -4.985  11.008  -9.816  0.00  0.00    -0.458 OA
BRANCH  31  33
ATOM     32  C   UNL     1      -5.171  12.960 -11.259  0.00  0.00    +0.052 C 
ATOM     33  C   UNL     1      -5.869  11.705 -10.732  0.00  0.00    +0.171 C 
ATOM     34  C   UNL     1      -6.217  10.785 -11.905  0.00  0.00    +0.052 C 
ENDBRANCH  31  33
ENDBRANCH  29  31
ENDBRANCH  23  29
ENDBRANCH  19  26
ENDBRANCH   1  20
TORSDOF 7
