REMARK  Name = ZINC03312704
REMARK  6 active torsions:
REMARK  status: ('A' for Active; 'I' for Inactive)
REMARK    1  A    between atoms: C_6  and  C_7
REMARK    2  A    between atoms: C_9  and  C_24
REMARK    3  A    between atoms: C_15  and  C_18
REMARK    4  A    between atoms: C_24  and  C_26
REMARK    5  A    between atoms: C_29  and  O_32
REMARK    6  A    between atoms: O_32  and  C_33
REMARK                            x       y       z     vdW  Elec       q    Type
REMARK                         _______ _______ _______ _____ _____    ______ ____
ROOT
ATOM      1  C   UNL     1      -0.019   1.530   0.011  0.00  0.00    +0.139 C 
ATOM      2  C   UNL     1       0.002  -0.004   0.002  0.00  0.00    +0.151 C 
ATOM      3  S   UNL     1       0.549  -0.563   1.644  0.00  0.00    -0.071 S 
ATOM      4  C   UNL     1       1.887   0.569   1.852  0.00  0.00    +0.209 A 
ATOM      5  N   UNL     1       2.836   0.539   2.746  0.00  0.00    -0.121 NA
ATOM      6  N   UNL     1       3.620   1.547   2.573  0.00  0.00    -0.132 NA
ATOM      7  C   UNL     1       3.212   2.266   1.564  0.00  0.00    +0.154 A 
ATOM      8  N   UNL     1       2.093   1.665   1.062  0.00  0.00    -0.225 N 
ATOM      9  N   UNL     1       1.345   2.060   0.000  0.00  0.00    -0.272 N 
ATOM     10  H   UNL     1       1.810   1.846  -0.869  0.00  0.00    +0.167 HD
ENDROOT
BRANCH   1  16
ATOM     11  C   UNL     1      -0.111   2.078  -2.430  0.00  0.00    +0.007 A 
ATOM     12  C   UNL     1      -0.787   2.527  -3.549  0.00  0.00    +0.020 A 
ATOM     13  C   UNL     1      -2.105   2.933  -3.443  0.00  0.00    +0.041 A 
ATOM     14  C   UNL     1      -2.747   2.885  -2.219  0.00  0.00    +0.020 A 
ATOM     15  C   UNL     1      -2.072   2.431  -1.102  0.00  0.00    +0.007 A 
ATOM     16  C   UNL     1      -0.755   2.025  -1.208  0.00  0.00    -0.024 A 
ATOM     17 CL   UNL     1      -2.953   3.503  -4.847  0.00  0.00    -0.084 Cl
ENDBRANCH   1  16
BRANCH   7  18
ATOM     18  C   UNL     1       3.856   3.527   1.048  0.00  0.00    +0.059 C 
ATOM     19  C   UNL     1       5.292   3.225   0.613  0.00  0.00    +0.011 C 
ATOM     20  C   UNL     1       5.945   4.505   0.089  0.00  0.00    +0.001 C 
ATOM     21  C   UNL     1       5.959   5.561   1.196  0.00  0.00    +0.000 C 
ATOM     22  C   UNL     1       4.524   5.863   1.631  0.00  0.00    +0.001 C 
ATOM     23  C   UNL     1       3.870   4.583   2.155  0.00  0.00    +0.011 C 
ENDBRANCH   7  18
BRANCH   2  24
ATOM     24  C   UNL     1       0.963  -0.495  -1.050  0.00  0.00    +0.179 C 
ATOM     25  O   UNL     1       2.104  -0.773  -0.747  0.00  0.00    -0.291 OA
BRANCH  24  26
ATOM     26  C   UNL     1       0.517  -0.638  -2.442  0.00  0.00    +0.019 A 
ATOM     27  C   UNL     1      -0.802  -0.324  -2.793  0.00  0.00    +0.015 A 
ATOM     28  C   UNL     1      -1.211  -0.453  -4.096  0.00  0.00    +0.046 A 
ATOM     29  C   UNL     1      -0.322  -0.906  -5.065  0.00  0.00    +0.127 A 
ATOM     30  C   UNL     1       0.987  -1.226  -4.720  0.00  0.00    +0.046 A 
ATOM     31  C   UNL     1       1.408  -1.095  -3.422  0.00  0.00    +0.015 A 
BRANCH  29  32
ATOM     32  O   UNL     1      -0.734  -1.038  -6.351  0.00  0.00    -0.434 OA
BRANCH  32  33
ATOM     33  C   UNL     1      -2.091  -0.693  -6.636  0.00  0.00    +0.541 C 
ATOM     34  F   UNL     1      -2.947  -1.503  -5.883  0.00  0.00    -0.166 F 
ATOM     35  F   UNL     1      -2.309   0.649  -6.307  0.00  0.00    -0.166 F 
ENDBRANCH  32  33
ENDBRANCH  29  32
ENDBRANCH  24  26
ENDBRANCH   2  24
TORSDOF 6
