REMARK  Name = ZINC51151145
REMARK  6 active torsions:
REMARK  status: ('A' for Active; 'I' for Inactive)
REMARK    1  A    between atoms: C_4  and  S_8
REMARK    2  A    between atoms: C_6  and  N_7
REMARK    3  A    between atoms: S_8  and  C_9
REMARK    4  A    between atoms: C_9  and  C_10
REMARK    5  A    between atoms: C_11  and  N_15
REMARK    6  A    between atoms: N_15  and  N_16
REMARK                            x       y       z     vdW  Elec       q    Type
REMARK                         _______ _______ _______ _____ _____    ______ ____
ROOT
ATOM      1  C   UNL     1      -0.017   1.388   0.010  0.00  0.00    +0.086 A 
ATOM      2  C   UNL     1       1.198   2.067   0.002  0.00  0.00    +0.122 A 
ATOM      3  N   UNL     1       2.331   1.368  -0.013  0.00  0.00    -0.207 NA
ATOM      4  C   UNL     1       2.311   0.043  -0.020  0.00  0.00    +0.192 A 
ATOM      5  N   UNL     1       1.173  -0.636  -0.013  0.00  0.00    -0.207 NA
ATOM      6  C   UNL     1       0.002  -0.004   0.002  0.00  0.00    +0.122 A 
ATOM      7  N   UNL     1       1.228   3.453   0.008  0.00  0.00    -0.343 N 
ATOM      8  H   UNL     1       0.398   3.956   0.019  0.00  0.00    +0.144 HD
ATOM      9  H   UNL     1       2.078   3.920   0.003  0.00  0.00    +0.144 HD
ENDROOT
BRANCH   6  10
ATOM     10  N   UNL     1      -1.183  -0.723   0.010  0.00  0.00    -0.343 N 
ATOM     11  H   UNL     1      -2.034  -0.255   0.021  0.00  0.00    +0.144 HD
ATOM     12  H   UNL     1      -1.163  -1.692   0.004  0.00  0.00    +0.144 HD
ENDBRANCH   6  10
BRANCH   4  13
ATOM     13  S   UNL     1       3.837  -0.838  -0.040  0.00  0.00    -0.080 S 
BRANCH  13  14
ATOM     14  C   UNL     1       3.337  -2.581  -0.044  0.00  0.00    +0.137 C 
BRANCH  14  15
ATOM     15  C   UNL     1       4.564  -3.456  -0.061  0.00  0.00    +0.104 A 
ATOM     16  C   UNL     1       5.142  -3.864  -1.229  0.00  0.00    +0.123 A 
ATOM     17  S   UNL     1       6.434  -4.786  -0.675  0.00  0.00    +0.053 S 
ATOM     18  N   UNL     1       6.186  -4.616   0.973  0.00  0.00    -0.108 NA
ATOM     19  N   UNL     1       5.140  -3.864   1.048  0.00  0.00    -0.143 NA
BRANCH  16  20
ATOM     20  N   UNL     1       4.761  -3.587  -2.540  0.00  0.00    -0.274 N 
ATOM     21  H   UNL     1       3.983  -3.033  -2.712  0.00  0.00    +0.167 HD
BRANCH  20  22
ATOM     22  N   UNL     1       5.481  -4.096  -3.583  0.00  0.00    -0.256 NA
ATOM     23  H   UNL     1       5.545  -5.101  -3.521  0.00  0.00    +0.140 HD
ATOM     24  H   UNL     1       5.087  -3.812  -4.467  0.00  0.00    +0.140 HD
ENDBRANCH  20  22
ENDBRANCH  16  20
ENDBRANCH  14  15
ENDBRANCH  13  14
ENDBRANCH   4  13
TORSDOF 6
