REMARK  Name = ZINC31379603
REMARK  15 active torsions:
REMARK  status: ('A' for Active; 'I' for Inactive)
REMARK    1  A    between atoms: C_1  and  C_2
REMARK    2  A    between atoms: C_2  and  N_3
REMARK    3  A    between atoms: N_3  and  C_4
REMARK    4  A    between atoms: N_3  and  C_6
REMARK    5  A    between atoms: C_4  and  C_5
REMARK    6  A    between atoms: C_6  and  C_8
REMARK    7  A    between atoms: C_6  and  C_32
REMARK    8  A    between atoms: C_8  and  N_9
REMARK    9  A    between atoms: C_10  and  C_12
REMARK   10  A    between atoms: C_14  and  C_20
REMARK   11  A    between atoms: C_17  and  O_18
REMARK   12  A    between atoms: O_18  and  C_19
REMARK   13  A    between atoms: C_20  and  N_21
REMARK   14  A    between atoms: C_32  and  C_33
REMARK   15  A    between atoms: C_32  and  C_34
REMARK                            x       y       z     vdW  Elec       q    Type
REMARK                         _______ _______ _______ _____ _____    ______ ____
ROOT
ATOM      1  C   UNL     1       0.988   8.767   1.192  0.00  0.00    +0.079 A 
ATOM      2  C   UNL     1       0.827  10.146   1.030  0.00  0.00    +0.022 A 
ATOM      3  C   UNL     1       1.932  10.968   1.003  0.00  0.00    -0.029 A 
ATOM      4  C   UNL     1       3.204  10.435   1.134  0.00  0.00    +0.009 A 
ATOM      5  C   UNL     1       3.378   9.075   1.294  0.00  0.00    +0.047 A 
ATOM      6  C   UNL     1       2.277   8.231   1.319  0.00  0.00    +0.132 A 
ENDROOT
BRANCH   1   8
ATOM      7  N   UNL     1      -1.428   8.400   1.094  0.00  0.00    -0.313 N 
ATOM      8  C   UNL     1      -0.191   7.880   1.222  0.00  0.00    +0.248 C 
ATOM      9  O   UNL     1      -0.046   6.681   1.363  0.00  0.00    -0.270 OA
ATOM     10  H   UNL     1      -1.558   9.484   0.967  0.00  0.00    +0.149 HD
BRANCH   7  11
ATOM     11  C   UNL     1      -2.598   7.519   1.124  0.00  0.00    +0.089 C 
BRANCH  11  12
ATOM     12  C   UNL     1      -3.851   8.347   1.417  0.00  0.00    -0.049 C 
BRANCH  12  13
ATOM     13  C   UNL     1      -5.049   7.733   0.690  0.00  0.00    -0.029 C 
ATOM     14  C   UNL     1      -5.545   6.511   1.466  0.00  0.00    +0.005 C 
ATOM     15  C   UNL     1      -6.173   8.767   0.595  0.00  0.00    +0.005 C 
ENDBRANCH  12  13
BRANCH  12  16
ATOM     16  N   UNL     1      -4.107   8.353   2.864  0.00  0.00    +0.382 N 
ATOM     17  H   UNL     1      -3.960   7.329   3.237  0.00  0.00    -0.081 HD
BRANCH  16  19
ATOM     18  C   UNL     1      -3.383  10.678   3.122  0.00  0.00    -0.017 C 
ATOM     19  C   UNL     1      -3.158   9.230   3.562  0.00  0.00    -0.082 C 
ENDBRANCH  16  19
BRANCH  16  20
ATOM     20  C   UNL     1      -5.494   8.743   3.151  0.00  0.00    -0.082 C 
ATOM     21  C   UNL     1      -5.751   8.640   4.656  0.00  0.00    -0.017 C 
ENDBRANCH  16  20
ENDBRANCH  12  16
ENDBRANCH  11  12
ENDBRANCH   7  11
ENDBRANCH   1   8
BRANCH   6  22
ATOM     22  O   UNL     1       2.447   6.894   1.470  0.00  0.00    -0.494 OA
ATOM     23  C   UNL     1       3.789   6.421   1.598  0.00  0.00    +0.277 C 
ENDBRANCH   6  22
BRANCH   3  24
ATOM     24  C   UNL     1       1.756  12.455   0.829  0.00  0.00    +0.152 C 
BRANCH  24  25
ATOM     25  N   UNL     1       1.777  12.785  -0.598  0.00  0.00    -0.230 N 
ATOM     26  C   UNL     1       2.887  13.098  -1.291  0.00  0.00    +0.254 C 
ATOM     27  O   UNL     1       4.013  13.150  -0.840  0.00  0.00    -0.270 OA
ATOM     28  C   UNL     1       2.506  13.365  -2.694  0.00  0.00    +0.049 A 
ATOM     29  C   UNL     1       3.207  13.722  -3.836  0.00  0.00    +0.014 A 
ATOM     30  C   UNL     1       2.527  13.905  -5.030  0.00  0.00    +0.001 A 
ATOM     31  C   UNL     1       1.156  13.736  -5.089  0.00  0.00    +0.001 A 
ATOM     32  C   UNL     1       0.443  13.379  -3.955  0.00  0.00    +0.014 A 
ATOM     33  C   UNL     1       1.109  13.192  -2.755  0.00  0.00    +0.049 A 
ATOM     34  C   UNL     1       0.688  12.821  -1.387  0.00  0.00    +0.254 C 
ATOM     35  O   UNL     1      -0.451  12.588  -1.035  0.00  0.00    -0.270 OA
ENDBRANCH  24  25
ENDBRANCH   3  24
TORSDOF 10
