REMARK  Name = ZINC09308847
REMARK  11 active torsions:
REMARK  status: ('A' for Active; 'I' for Inactive)
REMARK    1  A    between atoms: C_1  and  C_2
REMARK    2  A    between atoms: C_2  and  C_3
REMARK    3  A    between atoms: C_3  and  O_4
REMARK    4  A    between atoms: O_4  and  C_5
REMARK    5  A    between atoms: C_8  and  C_11
REMARK    6  A    between atoms: C_18  and  N_39
REMARK    7  A    between atoms: C_19  and  C_37
REMARK    8  A    between atoms: C_20  and  C_22
REMARK    9  A    between atoms: C_25  and  O_28
REMARK   10  A    between atoms: O_28  and  C_29
REMARK   11  A    between atoms: C_29  and  C_30
REMARK                            x       y       z     vdW  Elec       q    Type
REMARK                         _______ _______ _______ _____ _____    ______ ____
ROOT
ATOM      1  C   UNL     1       3.173  -4.376  -5.596  0.00  0.00    +0.074 A 
ATOM      2  C   UNL     1       2.776  -5.490  -6.258  0.00  0.00    +0.054 A 
ATOM      3  C   UNL     1       3.714  -5.752  -7.276  0.00  0.00    +0.245 A 
ATOM      4  N   UNL     1       4.638  -4.834  -7.228  0.00  0.00    -0.135 NA
ATOM      5  N   UNL     1       4.328  -3.945  -6.186  0.00  0.00    -0.273 N 
ATOM      6  H   UNL     1       4.843  -3.165  -5.930  0.00  0.00    +0.189 HD
ATOM      7  O   UNL     1       3.586  -6.812  -8.118  0.00  0.00    -0.421 OA
ATOM      8  C   UNL     1       2.401  -7.453  -8.134  0.00  0.00    +0.201 C 
ATOM      9  C   UNL     1       1.432  -7.292  -7.209  0.00  0.00    +0.098 C 
ATOM     10  C   UNL     1       1.570  -6.364  -6.028  0.00  0.00    +0.102 C 
ENDROOT
BRANCH   1  14
ATOM     11  C   UNL     1       1.187  -2.550  -2.313  0.00  0.00    +0.121 A 
ATOM     12  C   UNL     1       2.558  -2.764  -2.261  0.00  0.00    +0.046 A 
ATOM     13  C   UNL     1       3.206  -3.356  -3.324  0.00  0.00    +0.013 A 
ATOM     14  C   UNL     1       2.482  -3.740  -4.453  0.00  0.00    +0.000 A 
ATOM     15  C   UNL     1       1.104  -3.524  -4.502  0.00  0.00    +0.013 A 
ATOM     16  C   UNL     1       0.462  -2.936  -3.432  0.00  0.00    +0.046 A 
BRANCH  11  17
ATOM     17  O   UNL     1       0.552  -1.966  -1.263  0.00  0.00    -0.492 OA
BRANCH  17  18
ATOM     18  C   UNL     1       1.358  -1.593  -0.143  0.00  0.00    +0.229 C 
BRANCH  18  20
ATOM     19  C   UNL     1       1.337  -0.557   2.130  0.00  0.00    +0.007 C 
ATOM     20  C   UNL     1       0.474  -0.956   0.932  0.00  0.00    +0.038 C 
ENDBRANCH  18  20
ENDBRANCH  17  18
ENDBRANCH  11  17
ENDBRANCH   1  14
BRANCH  10  21
ATOM     21  C   UNL     1       1.758  -7.169  -4.768  0.00  0.00    -0.034 A 
ATOM     22  C   UNL     1       2.865  -7.986  -4.629  0.00  0.00    +0.008 A 
ATOM     23  C   UNL     1       3.039  -8.724  -3.474  0.00  0.00    +0.046 A 
ATOM     24  C   UNL     1       2.102  -8.646  -2.454  0.00  0.00    +0.121 A 
ATOM     25  C   UNL     1       0.993  -7.825  -2.596  0.00  0.00    +0.046 A 
ATOM     26  C   UNL     1       0.826  -7.084  -3.750  0.00  0.00    +0.008 A 
BRANCH  24  27
ATOM     27  O   UNL     1       2.271  -9.372  -1.318  0.00  0.00    -0.487 OA
BRANCH  27  28
ATOM     28  C   UNL     1       1.267  -9.241  -0.309  0.00  0.00    +0.264 C 
BRANCH  28  29
ATOM     29  C   UNL     1       1.621 -10.114   0.868  0.00  0.00    -0.010 A 
ATOM     30  C   UNL     1       1.178 -11.422   0.915  0.00  0.00    +0.010 A 
ATOM     31  C   UNL     1       1.502 -12.223   1.993  0.00  0.00    +0.039 A 
ATOM     32  C   UNL     1       2.271 -11.714   3.027  0.00  0.00    +0.123 A 
ATOM     33  C   UNL     1       2.713 -10.403   2.978  0.00  0.00    +0.039 A 
ATOM     34  C   UNL     1       2.392  -9.606   1.896  0.00  0.00    +0.010 A 
ATOM     35  F   UNL     1       2.588 -12.496   4.082  0.00  0.00    -0.205 F 
ENDBRANCH  28  29
ENDBRANCH  27  28
ENDBRANCH  24  27
ENDBRANCH  10  21
BRANCH   8  36
ATOM     36  N   UNL     1       2.162  -8.330  -9.163  0.00  0.00    -0.328 N 
ATOM     37  H   UNL     1       2.836  -8.470  -9.846  0.00  0.00    +0.145 HD
ATOM     38  H   UNL     1       1.320  -8.809  -9.207  0.00  0.00    +0.145 HD
ENDBRANCH   8  36
BRANCH   9  39
ATOM     39  C   UNL     1       0.217  -8.037  -7.354  0.00  0.00    +0.101 C 
ATOM     40  N   UNL     1      -0.746  -8.628  -7.469  0.00  0.00    -0.191 NA
ENDBRANCH   9  39
TORSDOF 10
