REMARK  Name = ZINC06881412
REMARK  6 active torsions:
REMARK  status: ('A' for Active; 'I' for Inactive)
REMARK    1  A    between atoms: C_4  and  N_7
REMARK    2  A    between atoms: C_8  and  C_10
REMARK    3  A    between atoms: C_15  and  N_16
REMARK    4  A    between atoms: C_17  and  C_19
REMARK    5  A    between atoms: C_19  and  N_52
REMARK    6  A    between atoms: C_23  and  C_25
REMARK                            x       y       z     vdW  Elec       q    Type
REMARK                         _______ _______ _______ _____ _____    ______ ____
ROOT
ATOM      1  C   UNL     1       0.336   1.957  -0.879  0.00  0.00    +0.058 A 
ATOM      2  C   UNL     1       0.560   0.584  -1.003  0.00  0.00    +0.015 A 
ATOM      3  C   UNL     1       1.657   0.126  -1.700  0.00  0.00    +0.001 A 
ATOM      4  C   UNL     1       2.542   1.022  -2.279  0.00  0.00    +0.002 A 
ATOM      5  C   UNL     1       2.334   2.381  -2.165  0.00  0.00    +0.024 A 
ATOM      6  C   UNL     1       1.234   2.861  -1.467  0.00  0.00    +0.046 A 
ENDROOT
BRANCH   1   8
ATOM      7  N   UNL     1      -1.761   1.586   0.322  0.00  0.00    -0.281 N 
ATOM      8  C   UNL     1      -0.839   2.454  -0.141  0.00  0.00    +0.250 C 
ATOM      9  O   UNL     1      -0.978   3.647   0.051  0.00  0.00    -0.270 OA
ATOM     10  H   UNL     1      -1.617   0.631   0.230  0.00  0.00    +0.155 HD
BRANCH   7  14
ATOM     11  C   UNL     1      -5.226   3.002   2.148  0.00  0.00    +0.000 A 
ATOM     12  C   UNL     1      -5.271   1.852   1.382  0.00  0.00    +0.002 A 
ATOM     13  C   UNL     1      -4.124   1.380   0.775  0.00  0.00    +0.023 A 
ATOM     14  C   UNL     1      -2.924   2.062   0.935  0.00  0.00    +0.034 A 
ATOM     15  C   UNL     1      -2.882   3.214   1.709  0.00  0.00    +0.023 A 
ATOM     16  C   UNL     1      -4.034   3.684   2.309  0.00  0.00    +0.002 A 
ENDBRANCH   7  14
ENDBRANCH   1   8
BRANCH   6  17
ATOM     17  N   UNL     1       1.022   4.233  -1.351  0.00  0.00    -0.286 N 
ATOM     18  C   UNL     1       2.073   5.077  -1.323  0.00  0.00    +0.201 C 
ATOM     19  O   UNL     1       3.197   4.652  -1.485  0.00  0.00    -0.278 OA
ATOM     20  H   UNL     1       0.119   4.581  -1.292  0.00  0.00    +0.155 HD
BRANCH  18  21
ATOM     21  C   UNL     1       1.851   6.549  -1.088  0.00  0.00    +0.020 C 
BRANCH  21  26
ATOM     22  C   UNL     1       3.899   6.988   0.141  0.00  0.00    -0.077 C 
ATOM     23  C   UNL     1       4.678   8.299   0.412  0.00  0.00    -0.020 C 
ATOM     24  C   UNL     1       3.651   9.372  -0.038  0.00  0.00    -0.012 C 
ATOM     25  C   UNL     1       2.955   8.703  -1.242  0.00  0.00    -0.030 C 
ATOM     26  N   UNL     1       3.161   7.250  -1.108  0.00  0.00    +0.390 N 
ATOM     27  H   UNL     1       3.712   6.909  -1.905  0.00  0.00    -0.080 HD
BRANCH  25  28
ATOM     28  C   UNL     1       1.485   9.033  -1.237  0.00  0.00    -0.024 A 
ATOM     29  C   UNL     1       0.757   9.704  -2.163  0.00  0.00    +0.009 A 
ATOM     30  C   UNL     1      -0.596   9.889  -1.948  0.00  0.00    +0.008 A 
ATOM     31  C   UNL     1      -1.153   9.402  -0.812  0.00  0.00    +0.045 A 
ATOM     32  S   UNL     1       0.251   8.649  -0.006  0.00  0.00    -0.103 S 
ENDBRANCH  25  28
ENDBRANCH  21  26
ENDBRANCH  18  21
ENDBRANCH   6  17
TORSDOF 6
