REMARK  Name = ZINC08934796
REMARK  15 active torsions:
REMARK  status: ('A' for Active; 'I' for Inactive)
REMARK    1  A    between atoms: C_1  and  C_2
REMARK    2  A    between atoms: C_2  and  O_3
REMARK    3  A    between atoms: O_3  and  C_4
REMARK    4  A    between atoms: C_7  and  C_12
REMARK    5  A    between atoms: C_9  and  O_10
REMARK    6  A    between atoms: O_10  and  C_11
REMARK    7  A    between atoms: C_14  and  C_25
REMARK    8  A    between atoms: C_15  and  O_24
REMARK    9  A    between atoms: N_18  and  C_19
REMARK   10  A    between atoms: C_19  and  C_20
REMARK   11  A    between atoms: C_20  and  C_21
REMARK   12  A    between atoms: C_21  and  N_62
REMARK   13  A    between atoms: C_22  and  N_62
REMARK   14  A    between atoms: C_23  and  N_62
REMARK   15  A    between atoms: C_25  and  C_27
REMARK                            x       y       z     vdW  Elec       q    Type
REMARK                         _______ _______ _______ _____ _____    ______ ____
ROOT
ATOM      1  C   UNL     1      -4.808   0.204   0.246  0.00  0.00    +0.145 C 
ATOM      2  C   UNL     1      -5.583   0.065  -1.044  0.00  0.00    +0.071 C 
ATOM      3  C   UNL     1      -6.792  -0.450  -0.720  0.00  0.00    +0.188 C 
ATOM      4  C   UNL     1      -6.854  -0.661   0.742  0.00  0.00    +0.282 C 
ATOM      5  O   UNL     1      -7.809  -1.113   1.341  0.00  0.00    -0.267 OA
ATOM      6  N   UNL     1      -5.695  -0.279   1.312  0.00  0.00    -0.284 N 
ENDROOT
BRANCH   1  10
ATOM      7  C   UNL     1      -1.263  -2.183   0.094  0.00  0.00    +0.162 A 
ATOM      8  C   UNL     1      -2.501  -2.785   0.252  0.00  0.00    +0.050 A 
ATOM      9  C   UNL     1      -3.645  -2.011   0.301  0.00  0.00    +0.009 A 
ATOM     10  C   UNL     1      -3.558  -0.635   0.193  0.00  0.00    -0.019 A 
ATOM     11  C   UNL     1      -2.325  -0.028   0.041  0.00  0.00    +0.055 A 
ATOM     12  C   UNL     1      -1.175  -0.799  -0.015  0.00  0.00    +0.162 A 
BRANCH  12  13
ATOM     13  O   UNL     1       0.037  -0.203  -0.170  0.00  0.00    -0.491 OA
ATOM     14  C   UNL     1       0.065   1.226  -0.159  0.00  0.00    +0.277 C 
ENDBRANCH  12  13
BRANCH   7  15
ATOM     15  O   UNL     1      -0.137  -2.943   0.046  0.00  0.00    -0.489 OA
BRANCH  15  17
ATOM     16  C   UNL     1       1.064  -5.040   0.089  0.00  0.00    +0.048 C 
ATOM     17  C   UNL     1      -0.303  -4.358   0.165  0.00  0.00    +0.226 C 
ENDBRANCH  15  17
ENDBRANCH   7  15
ENDBRANCH   1  10
BRANCH   3  18
ATOM     18  O   UNL     1      -7.785  -0.727  -1.595  0.00  0.00    -0.502 OA
ATOM     19  H   UNL     1      -8.571  -1.099  -1.100  0.00  0.00    +0.292 HD
ENDBRANCH   3  18
BRANCH   2  20
ATOM     20  C   UNL     1      -5.115   0.420  -2.387  0.00  0.00    +0.195 C 
ATOM     21  O   UNL     1      -4.933  -0.451  -3.217  0.00  0.00    -0.287 OA
BRANCH  20  22
ATOM     22  C   UNL     1      -4.863   1.835  -2.732  0.00  0.00    +0.022 A 
ATOM     23  C   UNL     1      -4.995   2.829  -1.760  0.00  0.00    +0.013 A 
ATOM     24  C   UNL     1      -4.755   4.146  -2.087  0.00  0.00    +0.016 A 
ATOM     25  C   UNL     1      -4.393   4.486  -3.380  0.00  0.00    +0.018 A 
ATOM     26  C   UNL     1      -4.265   3.506  -4.351  0.00  0.00    +0.016 A 
ATOM     27  C   UNL     1      -4.498   2.185  -4.034  0.00  0.00    +0.013 A 
ATOM     28 BR   UNL     1      -4.073   6.297  -3.823  0.00  0.00    -0.050 Br
ENDBRANCH  20  22
ENDBRANCH   2  20
BRANCH   6  29
ATOM     29  C   UNL     1      -5.375  -0.336   2.740  0.00  0.00    +0.107 C 
BRANCH  29  30
ATOM     30  C   UNL     1      -5.786   0.979   3.407  0.00  0.00    +0.000 C 
BRANCH  30  31
ATOM     31  C   UNL     1      -5.451   0.920   4.899  0.00  0.00    -0.078 C 
BRANCH  31  34
ATOM     32  C   UNL     1      -5.762   2.078   7.003  0.00  0.00    -0.097 C 
ATOM     33  C   UNL     1      -5.034   3.300   5.043  0.00  0.00    -0.097 C 
ATOM     34  N   UNL     1      -5.873   2.187   5.533  0.00  0.00    +0.376 N 
ATOM     35  H   UNL     1      -6.852   2.373   5.285  0.00  0.00    -0.083 HD
ENDBRANCH  31  34
ENDBRANCH  30  31
ENDBRANCH  29  30
ENDBRANCH   6  29
TORSDOF 11
