REMARK  Name = ZINC16249389
REMARK  7 active torsions:
REMARK  status: ('A' for Active; 'I' for Inactive)
REMARK    1  A    between atoms: C_1  and  C_2
REMARK    2  A    between atoms: C_3  and  C_14
REMARK    3  A    between atoms: C_4  and  O_13
REMARK    4  A    between atoms: N_5  and  C_7
REMARK    5  A    between atoms: C_14  and  C_16
REMARK    6  A    between atoms: C_14  and  C_22
REMARK    7  A    between atoms: C_28  and  N_65
REMARK                            x       y       z     vdW  Elec       q    Type
REMARK                         _______ _______ _______ _____ _____    ______ ____
ROOT
ATOM      1  C   UNL     1       7.343  -1.538  -0.977  0.00  0.00    +0.064 C 
ENDROOT
BRANCH   1   4
ATOM      2  C   UNL     1       7.856  -4.276   0.528  0.00  0.00    +0.068 C 
ATOM      3  C   UNL     1       6.585  -3.467   0.575  0.00  0.00    +0.068 A 
ATOM      4  C   UNL     1       6.361  -2.258  -0.090  0.00  0.00    +0.045 A 
ATOM      5  C   UNL     1       5.096  -1.850   0.200  0.00  0.00    +0.220 A 
ATOM      6  N   UNL     1       4.549  -2.776   1.031  0.00  0.00    -0.200 N 
ATOM      7  N   UNL     1       5.505  -3.778   1.245  0.00  0.00    -0.168 NA
BRANCH   6   8
ATOM      8  C   UNL     1       3.257  -2.739   1.573  0.00  0.00    +0.069 A 
ATOM      9  C   UNL     1       2.546  -3.917   1.760  0.00  0.00    +0.028 A 
ATOM     10  C   UNL     1       1.273  -3.877   2.293  0.00  0.00    +0.002 A 
ATOM     11  C   UNL     1       0.706  -2.664   2.643  0.00  0.00    +0.000 A 
ATOM     12  C   UNL     1       1.412  -1.490   2.458  0.00  0.00    +0.002 A 
ATOM     13  C   UNL     1       2.685  -1.523   1.925  0.00  0.00    +0.028 A 
ENDBRANCH   6   8
BRANCH   5  14
ATOM     14  O   UNL     1       4.492  -0.723  -0.255  0.00  0.00    -0.492 OA
ATOM     15  H   UNL     1       4.677   0.064   0.275  0.00  0.00    +0.294 HD
ENDBRANCH   5  14
ENDBRANCH   1   4
BRANCH   1  16
ATOM     16  C   UNL     1       7.765  -0.250  -0.317  0.00  0.00    -0.039 A 
ATOM     17  C   UNL     1       9.049  -0.114   0.176  0.00  0.00    +0.004 A 
ATOM     18  C   UNL     1       9.437   1.069   0.778  0.00  0.00    +0.000 A 
ATOM     19  C   UNL     1       8.537   2.112   0.894  0.00  0.00    +0.000 A 
ATOM     20  C   UNL     1       7.252   1.974   0.406  0.00  0.00    +0.000 A 
ATOM     21  C   UNL     1       6.865   0.793  -0.200  0.00  0.00    +0.004 A 
ENDBRANCH   1  16
BRANCH   1  22
ATOM     22  C   UNL     1       6.685  -1.229  -2.323  0.00  0.00    +0.043 C 
ATOM     23  C   UNL     1       5.961  -2.478  -2.832  0.00  0.00    +0.010 C 
ATOM     24  C   UNL     1       5.531  -2.232  -4.283  0.00  0.00    +0.005 C 
ATOM     25  C   UNL     1       6.786  -2.154  -5.155  0.00  0.00    +0.029 C 
ATOM     26  C   UNL     1       7.779  -1.207  -4.547  0.00  0.00    -0.010 C 
ATOM     27  C   UNL     1       7.737  -0.805  -3.306  0.00  0.00    -0.010 C 
BRANCH  27  33
ATOM     28  C   UNL     1      10.088  -0.416  -2.606  0.00  0.00    +0.085 C 
ATOM     29  C   UNL     1      11.075   0.447  -3.407  0.00  0.00    +0.017 C 
ATOM     30  C   UNL     1      10.853   1.921  -3.059  0.00  0.00    +0.003 C 
ATOM     31  C   UNL     1       9.431   2.330  -3.448  0.00  0.00    +0.017 C 
ATOM     32  C   UNL     1       8.427   1.490  -2.654  0.00  0.00    +0.085 C 
ATOM     33  N   UNL     1       8.816   0.138  -3.208  0.00  0.00    -0.396 NA
ATOM     34  H   UNL     1       9.060   0.326  -4.188  0.00  0.00    +0.126 HD
ENDBRANCH  27  33
ENDBRANCH   1  22
TORSDOF 6
