REMARK  Name = ZINC42030585
REMARK  6 active torsions:
REMARK  status: ('A' for Active; 'I' for Inactive)
REMARK    1  A    between atoms: C_1  and  C_2
REMARK    2  A    between atoms: C_2  and  C_3
REMARK    3  A    between atoms: C_3  and  N_4
REMARK    4  A    between atoms: C_5  and  C_18
REMARK    5  A    between atoms: C_8  and  C_9
REMARK    6  A    between atoms: C_14  and  N_15
REMARK                            x       y       z     vdW  Elec       q    Type
REMARK                         _______ _______ _______ _____ _____    ______ ____
ROOT
ATOM      1  C   UNL     1      -1.166  -2.418   2.501  0.00  0.00    +0.043 A 
ATOM      2  C   UNL     1      -2.059  -1.497   3.049  0.00  0.00    +0.033 A 
ATOM      3  C   UNL     1      -1.933  -1.117   4.369  0.00  0.00    +0.043 A 
ATOM      4  C   UNL     1      -0.922  -1.647   5.155  0.00  0.00    +0.042 A 
ATOM      5  C   UNL     1      -0.031  -2.560   4.625  0.00  0.00    +0.064 A 
ATOM      6  C   UNL     1      -0.149  -2.957   3.299  0.00  0.00    +0.054 A 
ATOM      7 CL   UNL     1       1.232  -3.218   5.618  0.00  0.00    -0.082 Cl
ATOM      8 CL   UNL     1      -3.045   0.030   5.049  0.00  0.00    -0.083 Cl
ENDROOT
BRANCH   1  13
ATOM      9  N   UNL     1      -1.439  -1.999   0.007  0.00  0.00    -0.311 N 
ATOM     10  C   UNL     1      -1.516  -2.816  -1.080  0.00  0.00    +0.131 A 
ATOM     11  N   UNL     1      -1.428  -4.046  -0.652  0.00  0.00    -0.134 NA
ATOM     12  N   UNL     1      -1.302  -4.061   0.627  0.00  0.00    -0.129 NA
ATOM     13  C   UNL     1      -1.297  -2.829   1.087  0.00  0.00    +0.166 A 
ATOM     14  C   UNL     1      -1.673  -2.379  -2.514  0.00  0.00    +0.088 C 
BRANCH   9  15
ATOM     15  C   UNL     1      -1.491  -0.535   0.019  0.00  0.00    +0.125 C 
BRANCH  15  17
ATOM     16  C   UNL     1      -0.122   1.555   0.011  0.00  0.00    +0.005 C 
ATOM     17  C   UNL     1      -0.068   0.026  -0.001  0.00  0.00    +0.018 C 
ENDBRANCH  15  17
ENDBRANCH   9  15
ENDBRANCH   1  13
BRANCH   6  18
ATOM     18  N   UNL     1       0.746  -3.883   2.763  0.00  0.00    -0.356 N 
ATOM     19  H   UNL     1       0.665  -4.156   1.836  0.00  0.00    +0.142 HD
ATOM     20  H   UNL     1       1.450  -4.255   3.318  0.00  0.00    +0.142 HD
ENDBRANCH   6  18
TORSDOF 4
