REMARK  Name = ZINC63782562
REMARK  6 active torsions:
REMARK  status: ('A' for Active; 'I' for Inactive)
REMARK    1  A    between atoms: C_1  and  C_2
REMARK    2  A    between atoms: C_3  and  C_24
REMARK    3  A    between atoms: C_4  and  C_13
REMARK    4  A    between atoms: C_6  and  C_8
REMARK    5  A    between atoms: C_24  and  O_26
REMARK    6  A    between atoms: O_26  and  C_27
REMARK                            x       y       z     vdW  Elec       q    Type
REMARK                         _______ _______ _______ _____ _____    ______ ____
ROOT
ATOM      1  C   UNL     1      -0.233   1.519  -0.077  0.00  0.00    +0.066 C 
ATOM      2  C   UNL     1      -0.119   0.017  -0.041  0.00  0.00    +0.049 C 
ATOM      3  C   UNL     1      -1.189  -0.825  -0.008  0.00  0.00    +0.067 C 
ATOM      4  C   UNL     1      -0.591  -2.220   0.020  0.00  0.00    +0.094 C 
ATOM      5  C   UNL     1       0.900  -1.945  -0.003  0.00  0.00    +0.064 C 
ATOM      6  N   UNL     1       1.035  -0.637  -0.043  0.00  0.00    -0.255 NA
ENDROOT
BRANCH   4   7
ATOM      7  C   UNL     1      -0.991  -2.955   1.301  0.00  0.00    +0.120 C 
ATOM      8  C   UNL     1      -0.768  -2.075   2.509  0.00  0.00    -0.013 A 
ATOM      9  C   UNL     1       0.357  -1.490   3.046  0.00  0.00    +0.006 A 
ATOM     10  C   UNL     1       0.253  -0.717   4.189  0.00  0.00    +0.000 A 
ATOM     11  C   UNL     1      -0.981  -0.534   4.787  0.00  0.00    +0.002 A 
ATOM     12  C   UNL     1      -2.109  -1.119   4.250  0.00  0.00    +0.023 A 
ATOM     13  C   UNL     1      -2.013  -1.899   3.100  0.00  0.00    +0.037 A 
ATOM     14  N   UNL     1      -2.990  -2.584   2.377  0.00  0.00    -0.285 N 
ATOM     15  C   UNL     1      -2.480  -3.230   1.312  0.00  0.00    +0.226 C 
ATOM     16  O   UNL     1      -3.094  -3.902   0.511  0.00  0.00    -0.275 OA
ATOM     17  H   UNL     1      -3.930  -2.595   2.616  0.00  0.00    +0.155 HD
ENDBRANCH   4   7
BRANCH   5  18
ATOM     18  C   UNL     1       1.936  -2.900   0.010  0.00  0.00    +0.034 A 
ATOM     19  C   UNL     1       3.314  -2.703   0.091  0.00  0.00    +0.017 A 
ATOM     20  C   UNL     1       4.077  -3.841   0.083  0.00  0.00    +0.008 A 
ATOM     21  C   UNL     1       3.462  -5.050  -0.002  0.00  0.00    +0.046 A 
ATOM     22  S   UNL     1       1.825  -4.678  -0.064  0.00  0.00    -0.095 S 
ENDBRANCH   5  18
BRANCH   3  23
ATOM     23  C   UNL     1      -2.555  -0.476  -0.002  0.00  0.00    +0.337 C 
ATOM     24  O   UNL     1      -2.885   0.692   0.090  0.00  0.00    -0.245 OA
BRANCH  23  25
ATOM     25  O   UNL     1      -3.498  -1.438  -0.097  0.00  0.00    -0.465 OA
ATOM     26  C   UNL     1      -4.860  -1.026   0.025  0.00  0.00    +0.280 C 
ENDBRANCH  23  25
ENDBRANCH   3  23
TORSDOF 4
