REMARK  Name = ZINC59212520
REMARK  9 active torsions:
REMARK  status: ('A' for Active; 'I' for Inactive)
REMARK    1  A    between atoms: C_2  and  C_3
REMARK    2  A    between atoms: C_3  and  N_4
REMARK    3  A    between atoms: N_7  and  C_10
REMARK    4  A    between atoms: C_15  and  N_16
REMARK    5  A    between atoms: C_17  and  C_19
REMARK    6  A    between atoms: C_19  and  S_20
REMARK    7  A    between atoms: S_20  and  C_21
REMARK    8  A    between atoms: C_24  and  C_26
REMARK    9  A    between atoms: C_31  and  N_32
REMARK                            x       y       z     vdW  Elec       q    Type
REMARK                         _______ _______ _______ _____ _____    ______ ____
ROOT
ATOM      1  N   UNL     1       1.665  -3.627   4.738  0.00  0.00    -0.283 N 
ATOM      2  C   UNL     1       2.073  -4.207   5.884  0.00  0.00    +0.228 C 
ATOM      3  O   UNL     1       2.716  -5.236   5.848  0.00  0.00    -0.275 OA
ATOM      4  H   UNL     1       1.219  -2.766   4.763  0.00  0.00    +0.155 HD
ENDROOT
BRANCH   1  10
ATOM      5  C   UNL     1       1.795  -3.548   2.320  0.00  0.00    +0.051 A 
ATOM      6  C   UNL     1       2.019  -4.188   1.110  0.00  0.00    +0.025 A 
ATOM      7  C   UNL     1       2.323  -5.536   1.086  0.00  0.00    +0.002 A 
ATOM      8  C   UNL     1       2.405  -6.251   2.267  0.00  0.00    +0.002 A 
ATOM      9  C   UNL     1       2.184  -5.622   3.478  0.00  0.00    +0.025 A 
ATOM     10  C   UNL     1       1.884  -4.268   3.511  0.00  0.00    +0.055 A 
BRANCH   5  14
ATOM     11  N   UNL     1       0.962   0.409   1.445  0.00  0.00    +0.384 N 
ATOM     12  C   UNL     1      -0.018  -0.654   1.191  0.00  0.00    -0.059 C 
ATOM     13  C   UNL     1       0.092  -1.722   2.285  0.00  0.00    +0.086 C 
ATOM     14  N   UNL     1       1.488  -2.184   2.347  0.00  0.00    -0.332 N 
ATOM     15  C   UNL     1       2.550  -1.170   2.437  0.00  0.00    +0.086 C 
ATOM     16  C   UNL     1       2.324  -0.130   1.335  0.00  0.00    -0.059 C 
ATOM     17  H   UNL     1       0.821   0.778   2.374  0.00  0.00    -0.081 HD
BRANCH  11  18
ATOM     18  C   UNL     1       0.781   1.484   0.460  0.00  0.00    -0.052 C 
BRANCH  18  20
ATOM     19  C   UNL     1      -0.666   3.413   0.841  0.00  0.00    +0.002 C 
ATOM     20  C   UNL     1      -0.571   2.120   0.653  0.00  0.00    -0.053 C 
ENDBRANCH  18  20
ENDBRANCH  11  18
ENDBRANCH   5  14
ENDBRANCH   1  10
BRANCH   2  21
ATOM     21  C   UNL     1       1.732  -3.579   7.210  0.00  0.00    +0.175 C 
BRANCH  21  22
ATOM     22  S   UNL     1       2.417  -4.589   8.552  0.00  0.00    -0.056 S 
BRANCH  22  23
ATOM     23  C   UNL     1       1.938  -3.733  10.017  0.00  0.00    +0.278 A 
ATOM     24  N   UNL     1       1.239  -2.623  10.075  0.00  0.00    -0.101 NA
ATOM     25  N   UNL     1       1.077  -2.283  11.305  0.00  0.00    -0.106 NA
ATOM     26  C   UNL     1       1.665  -3.161  12.081  0.00  0.00    +0.251 A 
ATOM     27  O   UNL     1       2.218  -4.100  11.282  0.00  0.00    -0.411 OA
BRANCH  26  28
ATOM     28  C   UNL     1       1.711  -3.131  13.557  0.00  0.00    +0.069 A 
ATOM     29  C   UNL     1       2.939  -3.113  14.221  0.00  0.00    +0.015 A 
ATOM     30  C   UNL     1       2.975  -3.086  15.599  0.00  0.00    +0.001 A 
ATOM     31  C   UNL     1       1.796  -3.077  16.325  0.00  0.00    +0.002 A 
ATOM     32  C   UNL     1       0.576  -3.095  15.674  0.00  0.00    +0.033 A 
ATOM     33  C   UNL     1       0.526  -3.116  14.295  0.00  0.00    +0.138 A 
BRANCH  33  34
ATOM     34  N   UNL     1      -0.781  -3.129  13.600  0.00  0.00    +0.057 N 
ATOM     35  O   UNL     1      -1.804  -3.012  14.233  0.00  0.00    -0.126 OA
ATOM     36  O   UNL     1      -0.826  -3.257  12.398  0.00  0.00    -0.126 OA
ENDBRANCH  33  34
ENDBRANCH  26  28
ENDBRANCH  22  23
ENDBRANCH  21  22
ENDBRANCH   2  21
TORSDOF 9
