REMARK  Name = ZINC12562623
REMARK  10 active torsions:
REMARK  status: ('A' for Active; 'I' for Inactive)
REMARK    1  A    between atoms: C_6  and  N_7
REMARK    2  A    between atoms: C_8  and  C_26
REMARK    3  A    between atoms: C_11  and  S_12
REMARK    4  A    between atoms: S_12  and  C_13
REMARK    5  A    between atoms: C_13  and  C_14
REMARK    6  A    between atoms: N_16  and  C_17
REMARK    7  A    between atoms: C_17  and  C_18
REMARK    8  A    between atoms: C_18  and  C_19
REMARK    9  A    between atoms: C_19  and  N_20
REMARK   10  A    between atoms: C_26  and  N_64
REMARK                            x       y       z     vdW  Elec       q    Type
REMARK                         _______ _______ _______ _____ _____    ______ ____
ROOT
ATOM      1  N   UNL     1      -1.049   1.785 -10.210  0.00  0.00    -0.276 N 
ATOM      2  C   UNL     1      -2.083   2.494 -10.762  0.00  0.00    +0.122 A 
ATOM      3  N   UNL     1      -2.788   2.979  -9.780  0.00  0.00    -0.135 NA
ATOM      4  N   UNL     1      -2.280   2.626  -8.653  0.00  0.00    -0.122 NA
ATOM      5  C   UNL     1      -1.208   1.896  -8.855  0.00  0.00    +0.197 A 
ENDROOT
BRANCH   1  11
ATOM      6  C   UNL     1       0.872   1.783 -11.678  0.00  0.00    +0.028 A 
ATOM      7  C   UNL     1       1.868   1.097 -12.344  0.00  0.00    +0.022 A 
ATOM      8  C   UNL     1       1.955  -0.280 -12.235  0.00  0.00    +0.041 A 
ATOM      9  C   UNL     1       1.046  -0.972 -11.454  0.00  0.00    +0.022 A 
ATOM     10  C   UNL     1       0.050  -0.290 -10.783  0.00  0.00    +0.028 A 
ATOM     11  C   UNL     1      -0.038   1.091 -10.890  0.00  0.00    +0.050 A 
ATOM     12 CL   UNL     1       3.205  -1.140 -13.078  0.00  0.00    -0.084 Cl
ENDBRANCH   1  11
BRANCH   5  13
ATOM     13  S   UNL     1      -0.174   1.187  -7.617  0.00  0.00    -0.076 S 
BRANCH  13  14
ATOM     14  C   UNL     1      -1.021   1.771  -6.128  0.00  0.00    +0.173 C 
BRANCH  14  15
ATOM     15  C   UNL     1      -0.292   1.272  -4.907  0.00  0.00    +0.223 C 
ATOM     16  O   UNL     1       0.702   0.589  -5.032  0.00  0.00    -0.275 OA
ATOM     17  N   UNL     1      -0.745   1.585  -3.677  0.00  0.00    -0.315 N 
ATOM     18  H   UNL     1      -1.540   2.131  -3.578  0.00  0.00    +0.149 HD
BRANCH  17  19
ATOM     19  C   UNL     1      -0.037   1.099  -2.490  0.00  0.00    +0.106 C 
BRANCH  19  20
ATOM     20  C   UNL     1      -0.753   1.593  -1.232  0.00  0.00    +0.038 C 
BRANCH  20  21
ATOM     21  C   UNL     1      -0.013   1.086   0.008  0.00  0.00    +0.109 C 
BRANCH  21  22
ATOM     22  N   UNL     1      -0.698   1.558   1.213  0.00  0.00    -0.301 N 
ATOM     23  C   UNL     1      -0.396   2.821   1.897  0.00  0.00    +0.108 C 
ATOM     24  C   UNL     1      -1.617   3.099   2.804  0.00  0.00    +0.028 C 
ATOM     25  C   UNL     1      -2.164   1.672   3.039  0.00  0.00    +0.097 C 
ATOM     26  C   UNL     1      -1.681   0.888   1.839  0.00  0.00    +0.216 C 
ATOM     27  O   UNL     1      -2.118  -0.189   1.492  0.00  0.00    -0.276 OA
ENDBRANCH  21  22
ENDBRANCH  20  21
ENDBRANCH  19  20
ENDBRANCH  17  19
ENDBRANCH  14  15
ENDBRANCH  13  14
ENDBRANCH   5  13
BRANCH   2  28
ATOM     28  C   UNL     1      -2.354   2.678 -12.233  0.00  0.00    -0.001 C 
BRANCH  28  34
ATOM     29  C   UNL     1      -2.542   0.298 -12.635  0.00  0.00    -0.078 C 
ATOM     30  C   UNL     1      -3.524  -0.818 -12.999  0.00  0.00    -0.019 C 
ATOM     31  C   UNL     1      -4.056  -0.581 -14.415  0.00  0.00    -0.004 C 
ATOM     32  C   UNL     1      -4.720   0.797 -14.478  0.00  0.00    -0.019 C 
ATOM     33  C   UNL     1      -3.704   1.866 -14.071  0.00  0.00    -0.078 C 
ATOM     34  N   UNL     1      -3.249   1.596 -12.691  0.00  0.00    +0.384 N 
ATOM     35  H   UNL     1      -4.068   1.556 -12.072  0.00  0.00    -0.081 HD
ENDBRANCH  28  34
ENDBRANCH   2  28
TORSDOF 10
