REMARK  Name = ZINC02726518
REMARK  5 active torsions:
REMARK  status: ('A' for Active; 'I' for Inactive)
REMARK    1  A    between atoms: C_1  and  C_2
REMARK    2  A    between atoms: C_6  and  N_8
REMARK    3  A    between atoms: C_18  and  S_19
REMARK    4  A    between atoms: S_19  and  C_20
REMARK    5  A    between atoms: C_20  and  C_21
REMARK                            x       y       z     vdW  Elec       q    Type
REMARK                         _______ _______ _______ _____ _____    ______ ____
ROOT
ATOM      1  N   UNL     1      -0.069   5.243   0.029  0.00  0.00    -0.255 N 
ATOM      2  C   UNL     1       1.093   5.930   0.124  0.00  0.00    +0.267 A 
ATOM      3  O   UNL     1       2.162   5.352   0.203  0.00  0.00    -0.267 OA
ATOM      4  C   UNL     1       1.018   7.396   0.126  0.00  0.00    +0.065 A 
ATOM      5  C   UNL     1       2.161   8.190   0.220  0.00  0.00    +0.017 A 
ATOM      6  C   UNL     1       2.040   9.552   0.219  0.00  0.00    +0.021 A 
ATOM      7  C   UNL     1       0.791  10.155   0.124  0.00  0.00    +0.043 A 
ATOM      8  C   UNL     1      -0.354   9.394   0.030  0.00  0.00    +0.048 A 
ATOM      9  C   UNL     1      -0.257   8.000   0.030  0.00  0.00    +0.080 A 
ATOM     10  N   UNL     1      -1.355   7.213  -0.060  0.00  0.00    -0.223 NA
ATOM     11  C   UNL     1      -1.262   5.906  -0.066  0.00  0.00    +0.177 A 
ATOM     12 CL   UNL     1       0.672  11.887   0.126  0.00  0.00    -0.083 Cl
ENDROOT
BRANCH   1  18
ATOM     13  C   UNL     1      -0.212   0.995   2.503  0.00  0.00    +0.044 C 
ATOM     14  C   UNL     1      -0.118   1.759   1.207  0.00  0.00    -0.048 A 
ATOM     15  C   UNL     1      -0.012   1.076   0.009  0.00  0.00    +0.003 A 
ATOM     16  C   UNL     1       0.081   1.773  -1.182  0.00  0.00    +0.002 A 
ATOM     17  C   UNL     1       0.057   3.154  -1.179  0.00  0.00    +0.026 A 
ATOM     18  C   UNL     1      -0.050   3.842   0.022  0.00  0.00    +0.052 A 
ATOM     19  C   UNL     1      -0.137   3.139   1.217  0.00  0.00    +0.029 A 
ENDBRANCH   1  18
BRANCH  11  20
ATOM     20  S   UNL     1      -2.742   4.959  -0.193  0.00  0.00    -0.078 S 
BRANCH  20  21
ATOM     21  C   UNL     1      -3.962   6.293  -0.286  0.00  0.00    +0.173 C 
BRANCH  21  22
ATOM     22  C   UNL     1      -5.343   5.703  -0.404  0.00  0.00    +0.231 C 
ATOM     23  O   UNL     1      -5.489   4.498  -0.422  0.00  0.00    -0.274 OA
ATOM     24  N   UNL     1      -6.417   6.513  -0.488  0.00  0.00    -0.260 N 
ATOM     25  C   UNL     1      -6.268   7.976  -0.467  0.00  0.00    +0.209 C 
ATOM     26  C   UNL     1      -7.347   8.568   0.403  0.00  0.00    +0.235 C 
ATOM     27  O   UNL     1      -7.141   9.612   0.985  0.00  0.00    -0.274 OA
ATOM     28  N   UNL     1      -8.536   7.952   0.542  0.00  0.00    -0.283 N 
ATOM     29  C   UNL     1      -8.782   6.722  -0.079  0.00  0.00    +0.055 A 
ATOM     30  C   UNL     1      -7.714   5.987  -0.604  0.00  0.00    +0.058 A 
ATOM     31  C   UNL     1      -7.939   4.770  -1.219  0.00  0.00    +0.025 A 
ATOM     32  C   UNL     1      -9.229   4.280  -1.322  0.00  0.00    +0.002 A 
ATOM     33  C   UNL     1     -10.290   5.006  -0.812  0.00  0.00    +0.002 A 
ATOM     34  C   UNL     1     -10.071   6.225  -0.182  0.00  0.00    +0.025 A 
ATOM     35  H   UNL     1      -9.231   8.366   1.077  0.00  0.00    +0.155 HD
ENDBRANCH  21  22
ENDBRANCH  20  21
ENDBRANCH  11  20
TORSDOF 4
