REMARK  Name = ZINC09973255
REMARK  1 active torsions:
REMARK  status: ('A' for Active; 'I' for Inactive)
REMARK    1  A    between atoms: C_18  and  C_25
REMARK                            x       y       z     vdW  Elec       q    Type
REMARK                         _______ _______ _______ _____ _____    ______ ____
ROOT
ATOM      1  C   UNL     1      -0.017   1.379   0.010  0.00  0.00    +0.019 A 
ATOM      2  C   UNL     1       1.169   2.084   0.002  0.00  0.00    +0.048 A 
ATOM      3  C   UNL     1       2.386   1.412  -0.010  0.00  0.00    +0.135 A 
ATOM      4  C   UNL     1       2.401   0.024  -0.006  0.00  0.00    +0.005 A 
ATOM      5  C   UNL     1       1.209  -0.678  -0.007  0.00  0.00    +0.023 A 
ATOM      6  C   UNL     1       0.002  -0.004   0.002  0.00  0.00    +0.018 A 
ATOM      7 BR   UNL     1      -1.622  -0.973   0.004  0.00  0.00    -0.050 Br
ATOM      8  C   UNL     1       3.701  -0.722   0.018  0.00  0.00    +0.077 C 
ATOM      9  C   UNL     1       3.663  -2.043  -0.650  0.00  0.00    +0.033 A 
ATOM     10  C   UNL     1       4.677  -2.687  -1.272  0.00  0.00    +0.088 A 
ATOM     11  N   UNL     1       4.350  -3.921  -1.783  0.00  0.00    -0.311 N 
ATOM     12  H   UNL     1       5.025  -4.454  -2.231  0.00  0.00    +0.170 HD
ATOM     13  C   UNL     1       3.095  -4.390  -1.661  0.00  0.00    +0.289 A 
ATOM     14  O   UNL     1       2.643  -5.450  -2.057  0.00  0.00    -0.260 OA
ATOM     15  S   UNL     1       2.300  -3.163  -0.830  0.00  0.00    -0.030 S 
ATOM     16  S   UNL     1       6.290  -1.948  -1.412  0.00  0.00    -0.091 S 
ATOM     17  C   UNL     1       6.164  -0.510  -0.301  0.00  0.00    +0.180 C 
ATOM     18  C   UNL     1       4.810   0.152  -0.568  0.00  0.00    +0.135 C 
ATOM     19  C   UNL     1       4.714   1.506   0.092  0.00  0.00    +0.318 C 
ATOM     20  O   UNL     1       5.642   1.988   0.698  0.00  0.00    -0.250 OA
ATOM     21  O   UNL     1       3.531   2.147  -0.035  0.00  0.00    -0.425 OA
ENDROOT
BRANCH  17  22
ATOM     22  C   UNL     1       7.277   0.462  -0.595  0.00  0.00    +0.370 C 
ATOM     23  O   UNL     1       7.793   0.482  -1.700  0.00  0.00    -0.245 OA
ATOM     24  O   UNL     1       7.662   1.229   0.271  0.00  0.00    -0.245 OA
ENDBRANCH  17  22
TORSDOF 1
