REMARK  Name = ZINC35532486
REMARK  9 active torsions:
REMARK  status: ('A' for Active; 'I' for Inactive)
REMARK    1  A    between atoms: C_1  and  C_2
REMARK    2  A    between atoms: C_3  and  N_9
REMARK    3  A    between atoms: C_10  and  C_12
REMARK    4  A    between atoms: C_15  and  C_33
REMARK    5  A    between atoms: C_16  and  C_17
REMARK    6  A    between atoms: C_16  and  C_18
REMARK    7  A    between atoms: N_20  and  O_21
REMARK    8  A    between atoms: O_21  and  C_22
REMARK    9  A    between atoms: C_22  and  C_24
REMARK                            x       y       z     vdW  Elec       q    Type
REMARK                         _______ _______ _______ _____ _____    ______ ____
ROOT
ATOM      1  C   UNL     1       0.192   0.111  -4.876  0.00  0.00    +0.058 C 
ATOM      2  C   UNL     1       1.432   1.045  -5.031  0.00  0.00    +0.018 C 
ATOM      3  C   UNL     1       1.543   1.290  -6.553  0.00  0.00    +0.014 C 
ATOM      4  C   UNL     1       0.366   0.474  -7.170  0.00  0.00    +0.015 C 
ATOM      5  C   UNL     1       0.311  -0.747  -6.186  0.00  0.00    -0.010 C 
ATOM      6  C   UNL     1       1.610  -1.555  -6.228  0.00  0.00    +0.013 C 
ATOM      7  C   UNL     1      -0.916  -1.633  -6.408  0.00  0.00    +0.013 C 
ATOM      8  C   UNL     1      -0.896   1.240  -6.749  0.00  0.00    +0.066 C 
ATOM      9  N   UNL     1      -1.677   1.921  -7.500  0.00  0.00    -0.083 NA
ATOM     10  C   UNL     1      -1.035   1.002  -5.241  0.00  0.00    +0.071 C 
ATOM     11  C   UNL     1       0.494   0.137  -8.656  0.00  0.00    +0.018 C 
ENDROOT
BRANCH   1  13
ATOM     12  N   UNL     1      -0.010   0.011  -2.413  0.00  0.00    -0.285 N 
ATOM     13  C   UNL     1       0.095  -0.653  -3.581  0.00  0.00    +0.224 C 
ATOM     14  O   UNL     1       0.112  -1.866  -3.590  0.00  0.00    -0.275 OA
ATOM     15  H   UNL     1      -0.104   0.977  -2.411  0.00  0.00    +0.155 HD
BRANCH  12  18
ATOM     16  C   UNL     1      -1.263   1.190  -0.146  0.00  0.00    +0.047 C 
ATOM     17  C   UNL     1      -0.583  -0.153  -0.073  0.00  0.00    -0.011 A 
ATOM     18  C   UNL     1       0.017  -0.692  -1.204  0.00  0.00    +0.038 A 
ATOM     19  C   UNL     1       0.642  -1.929  -1.132  0.00  0.00    +0.023 A 
ATOM     20  C   UNL     1       0.667  -2.621   0.064  0.00  0.00    +0.003 A 
ATOM     21  C   UNL     1       0.069  -2.084   1.188  0.00  0.00    +0.020 A 
ATOM     22  C   UNL     1      -0.550  -0.848   1.122  0.00  0.00    +0.046 A 
ATOM     23 CL   UNL     1      -1.293  -0.173   2.538  0.00  0.00    -0.083 Cl
ENDBRANCH  12  18
ENDBRANCH   1  13
BRANCH   9  24
ATOM     24  O   UNL     1      -1.411   2.027  -8.887  0.00  0.00    -0.312 OA
BRANCH  24  25
ATOM     25  C   UNL     1      -2.309   2.772  -9.561  0.00  0.00    +0.368 C 
ATOM     26  O   UNL     1      -3.241   3.280  -8.972  0.00  0.00    -0.243 OA
BRANCH  25  27
ATOM     27  C   UNL     1      -2.159   2.969 -11.016  0.00  0.00    +0.080 A 
ATOM     28  C   UNL     1      -1.091   2.381 -11.698  0.00  0.00    +0.018 A 
ATOM     29  C   UNL     1      -0.956   2.568 -13.056  0.00  0.00    +0.021 A 
ATOM     30  C   UNL     1      -1.878   3.339 -13.748  0.00  0.00    +0.042 A 
ATOM     31  C   UNL     1      -2.939   3.926 -13.079  0.00  0.00    +0.040 A 
ATOM     32  C   UNL     1      -3.088   3.741 -11.719  0.00  0.00    +0.056 A 
ATOM     33 CL   UNL     1      -4.423   4.471 -10.883  0.00  0.00    -0.083 Cl
ATOM     34 CL   UNL     1      -1.700   3.571 -15.459  0.00  0.00    -0.083 Cl
ENDBRANCH  25  27
ENDBRANCH  24  25
ENDBRANCH   9  24
TORSDOF 5
