REMARK  Name = ZINC06282137
REMARK  7 active torsions:
REMARK  status: ('A' for Active; 'I' for Inactive)
REMARK    1  A    between atoms: C_1  and  C_2
REMARK    2  A    between atoms: C_7  and  C_14
REMARK    3  A    between atoms: C_14  and  C_16
REMARK    4  A    between atoms: C_14  and  N_67
REMARK    5  A    between atoms: N_20  and  C_21
REMARK    6  A    between atoms: C_21  and  C_22
REMARK    7  A    between atoms: N_30  and  C_33
REMARK                            x       y       z     vdW  Elec       q    Type
REMARK                         _______ _______ _______ _____ _____    ______ ____
ROOT
ATOM      1  C   UNL     1       1.258  -2.141  -0.022  0.00  0.00    +0.039 C 
ENDROOT
BRANCH   1   8
ATOM      2  C   UNL     1      -0.655   5.571   0.671  0.00  0.00    +0.044 C 
ATOM      3  C   UNL     1      -0.522   4.074   0.566  0.00  0.00    -0.048 A 
ATOM      4  C   UNL     1      -1.655   3.276   0.652  0.00  0.00    +0.004 A 
ATOM      5  C   UNL     1      -1.557   1.916   0.564  0.00  0.00    +0.010 A 
ATOM      6  C   UNL     1      -0.304   1.323   0.374  0.00  0.00    -0.001 A 
ATOM      7  C   UNL     1      -0.163  -0.131   0.269  0.00  0.00    +0.017 A 
ATOM      8  C   UNL     1       1.077  -0.649   0.090  0.00  0.00    +0.011 A 
ATOM      9  C   UNL     1       2.199   0.203   0.008  0.00  0.00    +0.251 A 
ATOM     10  O   UNL     1       3.305  -0.284  -0.154  0.00  0.00    -0.268 OA
ATOM     11  N   UNL     1       2.079   1.538   0.103  0.00  0.00    -0.322 N 
ATOM     12  H   UNL     1       2.871   2.095   0.042  0.00  0.00    +0.169 HD
ATOM     13  C   UNL     1       0.847   2.128   0.285  0.00  0.00    +0.049 A 
ATOM     14  C   UNL     1       0.722   3.510   0.383  0.00  0.00    +0.029 A 
ENDBRANCH   1   8
BRANCH   1  20
ATOM     15  C   UNL     1       2.418  -4.049   0.917  0.00  0.00    -0.058 C 
ATOM     16  C   UNL     1       3.437  -4.476   1.975  0.00  0.00    +0.086 C 
ATOM     17  N   UNL     1       2.927  -4.131   3.310  0.00  0.00    -0.333 N 
ATOM     18  C   UNL     1       2.685  -2.686   3.421  0.00  0.00    +0.086 C 
ATOM     19  C   UNL     1       1.665  -2.259   2.362  0.00  0.00    -0.058 C 
ATOM     20  N   UNL     1       2.200  -2.591   1.025  0.00  0.00    +0.391 N 
ATOM     21  H   UNL     1       3.097  -2.109   0.895  0.00  0.00    -0.080 HD
BRANCH  17  22
ATOM     22  C   UNL     1       3.801  -4.571   4.309  0.00  0.00    +0.030 A 
ATOM     23  C   UNL     1       4.316  -3.668   5.230  0.00  0.00    +0.026 A 
ATOM     24  C   UNL     1       5.174  -4.106   6.219  0.00  0.00    +0.040 A 
ATOM     25  C   UNL     1       5.530  -5.442   6.287  0.00  0.00    +0.124 A 
ATOM     26  C   UNL     1       5.022  -6.344   5.366  0.00  0.00    +0.040 A 
ATOM     27  C   UNL     1       4.159  -5.911   4.379  0.00  0.00    +0.026 A 
ATOM     28  F   UNL     1       6.374  -5.868   7.252  0.00  0.00    -0.205 F 
ENDBRANCH  17  22
ENDBRANCH   1  20
BRANCH   1  29
ATOM     29  C   UNL     1       1.831  -2.478  -1.374  0.00  0.00    +0.143 A 
ATOM     30  N   UNL     1       3.070  -2.304  -1.764  0.00  0.00    -0.115 NA
ATOM     31  N   UNL     1       3.166  -2.713  -2.982  0.00  0.00    -0.023 NA
ATOM     32  N   UNL     1       2.020  -3.145  -3.379  0.00  0.00    -0.044 NA
ATOM     33  N   UNL     1       1.172  -3.021  -2.414  0.00  0.00    -0.228 N 
BRANCH  33  34
ATOM     34  C   UNL     1      -0.243  -3.398  -2.446  0.00  0.00    +0.178 C 
BRANCH  34  35
ATOM     35  C   UNL     1      -1.077  -2.210  -2.930  0.00  0.00    +0.140 C 
ATOM     36  C   UNL     1      -2.573  -2.605  -3.023  0.00  0.00    +0.035 C 
ATOM     37  C   UNL     1      -3.253  -1.217  -2.876  0.00  0.00    +0.031 C 
ATOM     38  C   UNL     1      -2.301  -0.486  -1.905  0.00  0.00    +0.160 C 
ATOM     39  O   UNL     1      -1.030  -1.143  -1.970  0.00  0.00    -0.375 OA
ENDBRANCH  34  35
ENDBRANCH  33  34
ENDBRANCH   1  29
TORSDOF 6
