REMARK  Name = ZINC40391987
REMARK  11 active torsions:
REMARK  status: ('A' for Active; 'I' for Inactive)
REMARK    1  A    between atoms: C_1  and  C_2
REMARK    2  A    between atoms: C_2  and  N_3
REMARK    3  A    between atoms: C_4  and  C_23
REMARK    4  A    between atoms: C_5  and  C_18
REMARK    5  A    between atoms: C_6  and  C_11
REMARK    6  A    between atoms: C_14  and  C_17
REMARK    7  A    between atoms: C_18  and  O_20
REMARK    8  A    between atoms: O_20  and  C_21
REMARK    9  A    between atoms: C_21  and  C_22
REMARK   10  A    between atoms: C_23  and  N_24
REMARK   11  A    between atoms: C_30  and  C_32
REMARK                            x       y       z     vdW  Elec       q    Type
REMARK                         _______ _______ _______ _____ _____    ______ ____
ROOT
ATOM      1  N   UNL     1       0.671  -0.459   1.231  0.00  0.00    -0.258 N 
ATOM      2  C   UNL     1       2.028  -0.568   1.115  0.00  0.00    +0.041 C 
ATOM      3  C   UNL     1       2.778  -1.045   2.131  0.00  0.00    +0.080 C 
ATOM      4  C   UNL     1       2.064  -1.454   3.403  0.00  0.00    +0.144 C 
ATOM      5  N   UNL     1       0.600  -1.297   3.427  0.00  0.00    -0.288 N 
ATOM      6  C   UNL     1      -0.009  -0.801   2.332  0.00  0.00    +0.307 C 
ATOM      7  O   UNL     1      -1.217  -0.664   2.343  0.00  0.00    -0.252 OA
ATOM      8  H   UNL     1       0.087  -1.542   4.213  0.00  0.00    +0.151 HD
ENDROOT
BRANCH   4   9
ATOM      9  C   UNL     1       2.380  -2.904   3.667  0.00  0.00    -0.022 A 
ATOM     10  C   UNL     1       1.703  -3.894   2.980  0.00  0.00    +0.006 A 
ATOM     11  C   UNL     1       1.992  -5.224   3.222  0.00  0.00    +0.004 A 
ATOM     12  C   UNL     1       2.958  -5.564   4.150  0.00  0.00    -0.050 A 
ATOM     13  C   UNL     1       3.636  -4.573   4.836  0.00  0.00    +0.004 A 
ATOM     14  C   UNL     1       3.350  -3.243   4.591  0.00  0.00    +0.006 A 
ATOM     15  C   UNL     1       3.273  -7.014   4.414  0.00  0.00    +0.044 C 
ENDBRANCH   4   9
BRANCH   1  17
ATOM     16  C   UNL     1      -0.185   1.589   0.204  0.00  0.00    +0.025 C 
ATOM     17  C   UNL     1      -0.080   0.067   0.088  0.00  0.00    +0.111 C 
ENDBRANCH   1  17
BRANCH   3  18
ATOM     18  C   UNL     1       4.183  -1.159   2.012  0.00  0.00    +0.339 C 
ATOM     19  O   UNL     1       4.687  -2.237   1.757  0.00  0.00    -0.245 OA
BRANCH  18  20
ATOM     20  O   UNL     1       4.965  -0.072   2.180  0.00  0.00    -0.462 OA
BRANCH  20  21
ATOM     21  C   UNL     1       6.375  -0.260   2.045  0.00  0.00    +0.229 C 
ATOM     22  C   UNL     1       7.091   1.074   2.268  0.00  0.00    +0.048 C 
ENDBRANCH  20  21
ENDBRANCH  18  20
ENDBRANCH   3  18
BRANCH   2  23
ATOM     23  C   UNL     1       2.698  -0.149  -0.169  0.00  0.00    +0.136 C 
BRANCH  23  24
ATOM     24  N   UNL     1       2.296  -1.058  -1.250  0.00  0.00    -0.294 NA
ATOM     25  C   UNL     1       2.801  -2.417  -1.011  0.00  0.00    +0.104 C 
ATOM     26  C   UNL     1       2.214  -3.369  -2.058  0.00  0.00    +0.123 C 
ATOM     27  N   UNL     1       2.498  -2.826  -3.395  0.00  0.00    -0.299 N 
ATOM     28  C   UNL     1       2.144  -1.424  -3.667  0.00  0.00    +0.123 C 
ATOM     29  C   UNL     1       2.735  -0.549  -2.556  0.00  0.00    +0.104 C 
ATOM     30  C   UNL     1       3.068  -3.592  -4.346  0.00  0.00    +0.219 C 
ATOM     31  O   UNL     1       3.353  -4.746  -4.104  0.00  0.00    -0.275 OA
BRANCH  30  32
ATOM     32  C   UNL     1       3.351  -3.016  -5.709  0.00  0.00    +0.075 C 
ATOM     33  C   UNL     1       2.526  -3.545  -6.885  0.00  0.00    +0.013 C 
ATOM     34  C   UNL     1       3.999  -3.937  -6.745  0.00  0.00    +0.013 C 
ENDBRANCH  30  32
ENDBRANCH  23  24
ENDBRANCH   2  23
TORSDOF 8
