REMARK  Name = ZINC04100243
REMARK  6 active torsions:
REMARK  status: ('A' for Active; 'I' for Inactive)
REMARK    1  A    between atoms: C_4  and  N_7
REMARK    2  A    between atoms: N_7  and  C_19
REMARK    3  A    between atoms: C_8  and  C_10
REMARK    4  A    between atoms: C_10  and  C_11
REMARK    5  A    between atoms: C_19  and  C_25
REMARK    6  A    between atoms: N_27  and  C_28
REMARK                            x       y       z     vdW  Elec       q    Type
REMARK                         _______ _______ _______ _____ _____    ______ ____
ROOT
ATOM      1  N   UNL     1       3.692  -0.642  -0.121  0.00  0.00    -0.257 N 
ATOM      2  C   UNL     1       4.459   0.036  -0.998  0.00  0.00    +0.223 C 
ATOM      3  O   UNL     1       5.139  -0.568  -1.801  0.00  0.00    -0.275 OA
ENDROOT
BRANCH   1   7
ATOM      4  C   UNL     1       1.124   1.421   2.430  0.00  0.00    +0.000 A 
ATOM      5  C   UNL     1       0.611   0.517   1.518  0.00  0.00    +0.002 A 
ATOM      6  C   UNL     1       1.460  -0.169   0.671  0.00  0.00    +0.023 A 
ATOM      7  C   UNL     1       2.830   0.051   0.736  0.00  0.00    +0.037 A 
ATOM      8  C   UNL     1       3.341   0.960   1.652  0.00  0.00    +0.023 A 
ATOM      9  C   UNL     1       2.487   1.642   2.497  0.00  0.00    +0.002 A 
ENDBRANCH   1   7
BRANCH   1  10
ATOM     10  C   UNL     1       3.761  -2.104  -0.064  0.00  0.00    +0.118 C 
ATOM     11  C   UNL     1       2.975  -2.605   1.149  0.00  0.00    +0.036 C 
ATOM     12  C   UNL     1       3.579  -2.017   2.426  0.00  0.00    +0.003 C 
ATOM     13  C   UNL     1       5.040  -2.454   2.549  0.00  0.00    +0.000 C 
ATOM     14  C   UNL     1       5.825  -1.952   1.335  0.00  0.00    +0.003 C 
ATOM     15  C   UNL     1       5.222  -2.541   0.058  0.00  0.00    +0.036 C 
BRANCH  10  16
ATOM     16  C   UNL     1       3.167  -2.684  -1.322  0.00  0.00    +0.237 C 
ATOM     17  O   UNL     1       3.616  -3.710  -1.787  0.00  0.00    -0.273 OA
ATOM     18  N   UNL     1       2.137  -2.063  -1.929  0.00  0.00    -0.311 N 
ATOM     19  H   UNL     1       1.826  -1.205  -1.601  0.00  0.00    +0.149 HD
BRANCH  18  20
ATOM     20  C   UNL     1       1.487  -2.683  -3.087  0.00  0.00    +0.073 C 
ATOM     21  C   UNL     1       2.215  -2.275  -4.384  0.00  0.00    +0.022 C 
ATOM     22  C   UNL     1       1.078  -2.110  -5.422  0.00  0.00    +0.002 C 
ATOM     23  C   UNL     1      -0.059  -1.472  -4.585  0.00  0.00    +0.002 C 
ATOM     24  C   UNL     1       0.041  -2.173  -3.215  0.00  0.00    +0.022 C 
ENDBRANCH  18  20
ENDBRANCH  10  16
ENDBRANCH   1  10
BRANCH   2  25
ATOM     25  C   UNL     1       4.472   1.542  -0.981  0.00  0.00    +0.128 C 
BRANCH  25  26
ATOM     26  C   UNL     1       5.489   2.056  -2.002  0.00  0.00    +0.169 C 
ATOM     27  C   UNL     1       5.548   3.570  -1.980  0.00  0.00    +0.241 C 
ATOM     28  O   UNL     1       5.866   4.277  -1.048  0.00  0.00    -0.273 OA
ATOM     29  N   UNL     1       5.175   3.967  -3.213  0.00  0.00    -0.239 N 
ATOM     30  C   UNL     1       4.891   2.925  -4.002  0.00  0.00    +0.307 C 
ATOM     31  O   UNL     1       4.532   3.031  -5.159  0.00  0.00    -0.252 OA
ATOM     32  N   UNL     1       5.050   1.742  -3.373  0.00  0.00    -0.287 N 
ATOM     33  H   UNL     1       5.119   4.894  -3.494  0.00  0.00    +0.159 HD
ATOM     34  H   UNL     1       4.904   0.860  -3.747  0.00  0.00    +0.151 HD
ENDBRANCH  25  26
ENDBRANCH   2  25
TORSDOF 6
