REMARK  Name = ZINC44098171
REMARK  4 active torsions:
REMARK  status: ('A' for Active; 'I' for Inactive)
REMARK    1  A    between atoms: C_10  and  C_11
REMARK    2  A    between atoms: C_11  and  N_12
REMARK    3  A    between atoms: C_24  and  C_27
REMARK    4  A    between atoms: C_29  and  C_32
REMARK                            x       y       z     vdW  Elec       q    Type
REMARK                         _______ _______ _______ _____ _____    ______ ____
ROOT
ATOM      1  N   UNL     1       5.271   0.646   1.299  0.00  0.00    -0.295 N 
ATOM      2  C   UNL     1       6.402   1.338   1.541  0.00  0.00    +0.303 C 
ATOM      3  O   UNL     1       7.212   1.510   0.651  0.00  0.00    -0.253 OA
ATOM      4  N   UNL     1       6.636   1.838   2.771  0.00  0.00    -0.283 N 
ATOM      5  C   UNL     1       5.731   1.531   3.888  0.00  0.00    +0.128 C 
ATOM      6  C   UNL     1       6.553   0.926   5.032  0.00  0.00    +0.125 C 
ATOM      7  N   UNL     1       7.717   1.788   5.281  0.00  0.00    -0.314 N 
ATOM      8  C   UNL     1       8.622   2.095   4.164  0.00  0.00    +0.125 C 
ATOM      9  C   UNL     1       7.803   2.695   3.020  0.00  0.00    +0.128 C 
ATOM     10  C   UNL     1       7.958   2.303   6.547  0.00  0.00    +0.099 A 
ATOM     11  C   UNL     1       7.164   1.896   7.617  0.00  0.00    +0.042 A 
ATOM     12  C   UNL     1       7.410   2.413   8.873  0.00  0.00    +0.016 A 
ATOM     13  C   UNL     1       8.455   3.333   9.022  0.00  0.00    +0.038 A 
ATOM     14  C   UNL     1       9.205   3.692   7.905  0.00  0.00    +0.095 A 
ATOM     15  N   UNL     1       8.943   3.171   6.723  0.00  0.00    -0.349 N 
ATOM     16  H   UNL     1       4.660   0.446   2.025  0.00  0.00    +0.151 HD
ATOM     17  H   UNL     1       9.482   3.434   5.962  0.00  0.00    +0.167 HD
ENDROOT
BRANCH  13  18
ATOM     18  C   UNL     1       8.758   3.917  10.351  0.00  0.00    +0.203 A 
ATOM     19  N   UNL     1       9.730   4.810  10.612  0.00  0.00    -0.191 NA
ATOM     20  C   UNL     1       9.725   5.117  11.878  0.00  0.00    +0.231 A 
ATOM     21  O   UNL     1       8.745   4.429  12.478  0.00  0.00    -0.337 OA
ATOM     22  N   UNL     1       8.120   3.654  11.465  0.00  0.00    -0.056 NA
BRANCH  20  23
ATOM     23  C   UNL     1      10.664   6.083  12.554  0.00  0.00    +0.078 C 
ATOM     24  C   UNL     1      11.413   5.376  13.702  0.00  0.00    +0.013 C 
ATOM     25  C   UNL     1      11.521   6.456  14.807  0.00  0.00    +0.001 C 
ATOM     26  C   UNL     1      10.159   7.186  14.706  0.00  0.00    +0.001 C 
ATOM     27  C   UNL     1       9.866   7.234  13.192  0.00  0.00    +0.013 C 
ENDBRANCH  20  23
ENDBRANCH  13  18
BRANCH   1  28
ATOM     28  C   UNL     1       4.965   0.196  -0.061  0.00  0.00    +0.141 C 
BRANCH  28  38
ATOM     29  C   UNL     1       0.018   1.509  -0.061  0.00  0.00    +0.001 A 
ATOM     30  C   UNL     1       1.220   2.215  -0.060  0.00  0.00    +0.001 A 
ATOM     31  C   UNL     1       2.414   1.564  -0.060  0.00  0.00    +0.009 A 
ATOM     32  C   UNL     1       2.441   0.159  -0.061  0.00  0.00    -0.013 A 
ATOM     33  C   UNL     1       1.218  -0.559  -0.062  0.00  0.00    -0.018 A 
ATOM     34  C   UNL     1       0.004   0.148  -0.062  0.00  0.00    +0.008 A 
ATOM     35  C   UNL     1       1.244  -1.964  -0.062  0.00  0.00    +0.008 A 
ATOM     36  C   UNL     1       2.440  -2.615  -0.062  0.00  0.00    +0.001 A 
ATOM     37  C   UNL     1       3.641  -1.910  -0.061  0.00  0.00    +0.006 A 
ATOM     38  C   UNL     1       3.655  -0.549  -0.061  0.00  0.00    -0.023 A 
ENDBRANCH  28  38
ENDBRANCH   1  28
TORSDOF 4
