REMARK  Name = ZINC40548916
REMARK  6 active torsions:
REMARK  status: ('A' for Active; 'I' for Inactive)
REMARK    1  A    between atoms: C_1  and  C_2
REMARK    2  A    between atoms: C_4  and  C_10
REMARK    3  A    between atoms: C_5  and  O_9
REMARK    4  A    between atoms: C_7  and  C_8
REMARK    5  A    between atoms: N_18  and  C_28
REMARK    6  A    between atoms: C_19  and  C_21
REMARK                            x       y       z     vdW  Elec       q    Type
REMARK                         _______ _______ _______ _____ _____    ______ ____
ROOT
ATOM      1  C   UNL     1       0.501  -2.531  -2.437  0.00  0.00    +0.102 A 
ATOM      2  C   UNL     1       0.566  -3.882  -2.793  0.00  0.00    +0.035 A 
ATOM      3  C   UNL     1       0.819  -3.902  -4.151  0.00  0.00    +0.126 A 
ATOM      4  N   UNL     1       0.894  -2.596  -4.542  0.00  0.00    -0.272 N 
ATOM      5  H   UNL     1       1.063  -2.295  -5.449  0.00  0.00    +0.189 HD
ATOM      6  N   UNL     1       0.702  -1.825  -3.532  0.00  0.00    -0.173 NA
ATOM      7  C   UNL     1       0.899  -5.300  -4.590  0.00  0.00    +0.266 C 
ATOM      8  O   UNL     1       1.112  -5.657  -5.733  0.00  0.00    -0.268 OA
ATOM      9  N   UNL     1       0.704  -6.130  -3.550  0.00  0.00    -0.280 N 
ATOM     10  C   UNL     1       0.481  -5.316  -2.347  0.00  0.00    +0.144 C 
ENDROOT
BRANCH   1  14
ATOM     11  C   UNL     1      -1.178   1.129   0.514  0.00  0.00    +0.044 C 
ATOM     12  C   UNL     1      -0.559  -0.235   0.346  0.00  0.00    -0.047 A 
ATOM     13  C   UNL     1      -0.324  -0.732  -0.921  0.00  0.00    +0.017 A 
ATOM     14  C   UNL     1       0.248  -1.992  -1.077  0.00  0.00    +0.044 A 
ATOM     15  C   UNL     1       0.582  -2.746   0.051  0.00  0.00    +0.126 A 
ATOM     16  C   UNL     1       0.341  -2.235   1.316  0.00  0.00    +0.049 A 
ATOM     17  C   UNL     1      -0.222  -0.981   1.461  0.00  0.00    -0.044 A 
ATOM     18  C   UNL     1      -0.476  -0.427   2.839  0.00  0.00    +0.044 C 
BRANCH  15  19
ATOM     19  O   UNL     1       1.140  -3.977  -0.093  0.00  0.00    -0.506 OA
ATOM     20  H   UNL     1       2.100  -3.962  -0.210  0.00  0.00    +0.292 HD
ENDBRANCH  15  19
ENDBRANCH   1  14
BRANCH  10  21
ATOM     21  C   UNL     1      -0.883  -5.601  -1.774  0.00  0.00    +0.013 A 
ATOM     22  C   UNL     1      -1.922  -4.715  -1.988  0.00  0.00    +0.008 A 
ATOM     23  C   UNL     1      -3.174  -4.976  -1.462  0.00  0.00    +0.001 A 
ATOM     24  C   UNL     1      -3.388  -6.124  -0.723  0.00  0.00    +0.003 A 
ATOM     25  C   UNL     1      -2.351  -7.013  -0.508  0.00  0.00    +0.039 A 
ATOM     26  C   UNL     1      -1.099  -6.754  -1.038  0.00  0.00    +0.129 A 
ATOM     27  F   UNL     1      -0.085  -7.624  -0.834  0.00  0.00    -0.205 F 
ENDBRANCH  10  21
BRANCH   9  28
ATOM     28  C   UNL     1       0.711  -7.594  -3.606  0.00  0.00    +0.100 C 
ATOM     29  C   UNL     1      -0.377  -8.072  -4.582  0.00  0.00    +0.047 C 
ATOM     30  C   UNL     1      -0.144  -9.584  -4.863  0.00  0.00    +0.168 C 
ATOM     31  S   UNL     1       1.692  -9.623  -5.001  0.00  0.00    -0.029 S 
ATOM     32  O   UNL     1       2.057  -9.459  -6.365  0.00  0.00    -0.174 OA
ATOM     33  O   UNL     1       2.188 -10.740  -4.275  0.00  0.00    -0.174 OA
ATOM     34  C   UNL     1       2.099  -8.082  -4.085  0.00  0.00    +0.188 C 
ENDBRANCH   9  28
TORSDOF 4
