REMARK  Name = ZINC38630812
REMARK  10 active torsions:
REMARK  status: ('A' for Active; 'I' for Inactive)
REMARK    1  A    between atoms: C_1  and  C_2
REMARK    2  A    between atoms: C_5  and  N_25
REMARK    3  A    between atoms: C_7  and  S_8
REMARK    4  A    between atoms: S_8  and  N_11
REMARK    5  A    between atoms: N_11  and  C_12
REMARK    6  A    between atoms: C_12  and  C_13
REMARK    7  A    between atoms: C_13  and  C_15
REMARK    8  A    between atoms: C_13  and  N_22
REMARK    9  A    between atoms: N_22  and  C_23
REMARK   10  A    between atoms: N_22  and  C_24
REMARK                            x       y       z     vdW  Elec       q    Type
REMARK                         _______ _______ _______ _____ _____    ______ ____
ROOT
ATOM      1  N   UNL     1       1.271   1.008   2.818  0.00  0.00    -0.191 NA
ATOM      2  H   UNL     1       2.006   0.823   3.424  0.00  0.00    +0.148 HD
ENDROOT
BRANCH   1   3
ATOM      3  S   UNL     1       0.059  -0.103   2.622  0.00  0.00    +0.059 S 
ATOM      4  O   UNL     1      -1.166   0.601   2.769  0.00  0.00    -0.153 OA
ATOM      5  O   UNL     1       0.398  -1.220   3.433  0.00  0.00    -0.153 OA
BRANCH   3  12
ATOM      6  C   UNL     1       2.378  -1.636   1.430  0.00  0.00    +0.046 C 
ATOM      7  C   UNL     1       1.230  -1.352   0.496  0.00  0.00    -0.024 A 
ATOM      8  C   UNL     1       1.279  -1.791  -0.814  0.00  0.00    +0.007 A 
ATOM      9  C   UNL     1       0.226  -1.530  -1.671  0.00  0.00    +0.033 A 
ATOM     10  C   UNL     1      -0.876  -0.830  -1.217  0.00  0.00    +0.128 A 
ATOM     11  C   UNL     1      -0.926  -0.392   0.093  0.00  0.00    +0.061 A 
ATOM     12  C   UNL     1       0.125  -0.657   0.951  0.00  0.00    +0.110 A 
BRANCH  10  13
ATOM     13  N   UNL     1      -2.004  -0.550  -2.134  0.00  0.00    +0.056 N 
ATOM     14  O   UNL     1      -1.960  -0.933  -3.280  0.00  0.00    -0.126 OA
ATOM     15  O   UNL     1      -2.968   0.062  -1.738  0.00  0.00    -0.126 OA
ENDBRANCH  10  13
ENDBRANCH   3  12
ENDBRANCH   1   3
BRANCH   1  16
ATOM     16  C   UNL     1       1.233   2.272   2.078  0.00  0.00    +0.095 C 
BRANCH  16  17
ATOM     17  C   UNL     1       2.214   3.262   2.708  0.00  0.00    -0.021 C 
BRANCH  17  18
ATOM     18  C   UNL     1       3.623   2.758   2.529  0.00  0.00    -0.041 A 
ATOM     19  C   UNL     1       4.226   2.022   3.531  0.00  0.00    +0.003 A 
ATOM     20  C   UNL     1       5.518   1.559   3.366  0.00  0.00    +0.000 A 
ATOM     21  C   UNL     1       6.208   1.832   2.199  0.00  0.00    +0.001 A 
ATOM     22  C   UNL     1       5.605   2.568   1.196  0.00  0.00    +0.020 A 
ATOM     23  C   UNL     1       4.310   3.027   1.358  0.00  0.00    +0.043 A 
ATOM     24 CL   UNL     1       3.550   3.946   0.097  0.00  0.00    -0.083 Cl
ENDBRANCH  17  18
BRANCH  17  25
ATOM     25  N   UNL     1       1.921   3.396   4.141  0.00  0.00    +0.381 N 
ATOM     26  C   UNL     1       2.792   4.425   4.725  0.00  0.00    -0.096 C 
ATOM     27  C   UNL     1       0.515   3.785   4.319  0.00  0.00    -0.096 C 
ATOM     28  H   UNL     1       2.087   2.514   4.603  0.00  0.00    -0.082 HD
ENDBRANCH  17  25
ENDBRANCH  16  17
ENDBRANCH   1  16
TORSDOF 7
