REMARK  Name = ZINC04248265
REMARK  4 active torsions:
REMARK  status: ('A' for Active; 'I' for Inactive)
REMARK    1  A    between atoms: C_1  and  C_2
REMARK    2  A    between atoms: C_2  and  C_27
REMARK    3  A    between atoms: C_6  and  C_19
REMARK    4  A    between atoms: N_15  and  C_18
REMARK                            x       y       z     vdW  Elec       q    Type
REMARK                         _______ _______ _______ _____ _____    ______ ____
ROOT
ATOM      1  C   UNL     1      -0.809   3.143   2.212  0.00  0.00    +0.011 C 
ATOM      2  C   UNL     1      -1.229   3.397   0.762  0.00  0.00    -0.023 C 
ATOM      3  C   UNL     1      -1.354   2.064   0.020  0.00  0.00    +0.058 C 
ATOM      4  C   UNL     1      -0.017   1.365   0.009  0.00  0.00    +0.017 C 
ATOM      5  C   UNL     1       1.135   2.068   0.002  0.00  0.00    +0.025 C 
ATOM      6  C   UNL     1       2.471   1.368  -0.015  0.00  0.00    +0.099 C 
ATOM      7  C   UNL     1       2.329  -0.063  -0.444  0.00  0.00    +0.068 A 
ATOM      8  C   UNL     1       3.456  -0.783  -0.881  0.00  0.00    +0.260 A 
ATOM      9  O   UNL     1       4.549  -0.246  -0.924  0.00  0.00    -0.267 OA
ATOM     10  N   UNL     1       3.318  -2.071  -1.254  0.00  0.00    -0.275 N 
ATOM     11  H   UNL     1       4.117  -2.585  -1.564  0.00  0.00    +0.173 HD
ATOM     12  C   UNL     1       2.114  -2.671  -1.210  0.00  0.00    +0.330 A 
ATOM     13  O   UNL     1       2.013  -3.834  -1.548  0.00  0.00    -0.246 OA
ATOM     14  N   UNL     1       1.022  -2.002  -0.799  0.00  0.00    -0.284 N 
ATOM     15  C   UNL     1       1.118  -0.686  -0.413  0.00  0.00    +0.116 A 
ATOM     16  N   UNL     1       0.002  -0.004   0.002  0.00  0.00    -0.303 N 
ATOM     17  C   UNL     1      -0.277  -2.678  -0.764  0.00  0.00    +0.155 C 
ATOM     18  C   UNL     1       1.126   3.474   0.015  0.00  0.00    +0.162 C 
ATOM     19  O   UNL     1       2.180   4.077  -0.009  0.00  0.00    -0.292 OA
ATOM     20  C   UNL     1      -0.165   4.246   0.059  0.00  0.00    +0.086 C 
ATOM     21  C   UNL     1      -2.571   4.132   0.737  0.00  0.00    +0.011 C 
ATOM     22  H   UNL     1      -0.781  -0.496   0.293  0.00  0.00    +0.153 HD
ENDROOT
BRANCH   6  23
ATOM     23  C   UNL     1       3.068   1.412   1.368  0.00  0.00    +0.002 A 
ATOM     24  C   UNL     1       4.223   1.988   1.781  0.00  0.00    +0.012 A 
ATOM     25  C   UNL     1       4.576   1.902   3.115  0.00  0.00    +0.008 A 
ATOM     26  C   UNL     1       3.756   1.244   3.970  0.00  0.00    +0.045 A 
ATOM     27  S   UNL     1       2.434   0.724   2.889  0.00  0.00    -0.101 S 
ENDBRANCH   6  23
TORSDOF 1
