REMARK  Name = ZINC21367917
REMARK  8 active torsions:
REMARK  status: ('A' for Active; 'I' for Inactive)
REMARK    1  A    between atoms: C_1  and  C_2
REMARK    2  A    between atoms: C_3  and  C_14
REMARK    3  A    between atoms: C_5  and  C_7
REMARK    4  A    between atoms: C_14  and  N_15
REMARK    5  A    between atoms: C_18  and  C_21
REMARK    6  A    between atoms: N_23  and  C_24
REMARK    7  A    between atoms: C_24  and  C_26
REMARK    8  A    between atoms: C_24  and  C_27
REMARK                            x       y       z     vdW  Elec       q    Type
REMARK                         _______ _______ _______ _____ _____    ______ ____
ROOT
ATOM      1  N   UNL     1      -2.988  -0.233  -1.371  0.00  0.00    +0.383 N 
ATOM      2  C   UNL     1      -2.973  -1.541  -2.035  0.00  0.00    -0.078 C 
ATOM      3  C   UNL     1      -3.389  -1.379  -3.499  0.00  0.00    -0.006 C 
ATOM      4  C   UNL     1      -4.802  -0.791  -3.559  0.00  0.00    +0.071 C 
ATOM      5  C   UNL     1      -4.824   0.538  -2.799  0.00  0.00    -0.006 C 
ATOM      6  C   UNL     1      -4.354   0.305  -1.362  0.00  0.00    -0.078 C 
ATOM      7  H   UNL     1      -2.381   0.402  -1.867  0.00  0.00    -0.081 HD
ENDROOT
BRANCH   4   8
ATOM      8  C   UNL     1      -5.189  -0.555  -4.997  0.00  0.00    +0.216 C 
ATOM      9  O   UNL     1      -4.412  -0.831  -5.887  0.00  0.00    -0.276 OA
ATOM     10  N   UNL     1      -6.398  -0.039  -5.294  0.00  0.00    -0.309 N 
ATOM     11  H   UNL     1      -7.019   0.181  -4.582  0.00  0.00    +0.149 HD
BRANCH  10  12
ATOM     12  C   UNL     1      -6.774   0.190  -6.691  0.00  0.00    +0.100 C 
ATOM     13  C   UNL     1      -7.342  -1.101  -7.284  0.00  0.00    +0.033 C 
BRANCH  12  14
ATOM     14  C   UNL     1      -7.816   1.276  -6.760  0.00  0.00    -0.024 A 
ATOM     15  C   UNL     1      -8.820   1.329  -5.811  0.00  0.00    +0.009 A 
ATOM     16  C   UNL     1      -9.779   2.322  -5.871  0.00  0.00    +0.050 A 
ATOM     17  C   UNL     1      -9.736   3.269  -6.884  0.00  0.00    +0.162 A 
ATOM     18  C   UNL     1      -8.724   3.218  -7.836  0.00  0.00    +0.162 A 
ATOM     19  C   UNL     1      -7.763   2.220  -7.767  0.00  0.00    +0.055 A 
ATOM     20  O   UNL     1      -8.659   4.142  -8.833  0.00  0.00    -0.485 OA
ATOM     21  C   UNL     1      -9.844   4.904  -9.083  0.00  0.00    +0.270 C 
ATOM     22  C   UNL     1     -10.398   5.388  -7.736  0.00  0.00    +0.270 C 
ATOM     23  O   UNL     1     -10.689   4.240  -6.932  0.00  0.00    -0.485 OA
ENDBRANCH  12  14
ENDBRANCH  10  12
ENDBRANCH   4   8
BRANCH   1  24
ATOM     24  C   UNL     1      -2.513  -0.381   0.011  0.00  0.00    -0.019 C 
BRANCH  24  27
ATOM     25  C   UNL     1      -0.018   1.503   0.010  0.00  0.00    +0.088 C 
ATOM     26  C   UNL     1       0.002  -0.004   0.002  0.00  0.00    +0.124 A 
ATOM     27  C   UNL     1      -1.071  -0.816   0.003  0.00  0.00    +0.066 A 
ATOM     28  N   UNL     1      -0.627  -2.083  -0.006  0.00  0.00    -0.216 NA
ATOM     29  C   UNL     1       0.685  -2.068  -0.012  0.00  0.00    +0.228 A 
ATOM     30  O   UNL     1       1.098  -0.788  -0.013  0.00  0.00    -0.440 OA
BRANCH  29  31
ATOM     31  C   UNL     1       1.562  -3.258  -0.022  0.00  0.00    +0.038 A 
ATOM     32  C   UNL     1       1.006  -4.538  -0.032  0.00  0.00    +0.013 A 
ATOM     33  C   UNL     1       1.829  -5.645  -0.041  0.00  0.00    +0.002 A 
ATOM     34  C   UNL     1       3.204  -5.489  -0.041  0.00  0.00    +0.020 A 
ATOM     35  C   UNL     1       3.762  -4.222  -0.031  0.00  0.00    +0.042 A 
ATOM     36  C   UNL     1       2.949  -3.106  -0.028  0.00  0.00    +0.033 A 
ATOM     37 CL   UNL     1       5.488  -4.036  -0.030  0.00  0.00    -0.084 Cl
ENDBRANCH  29  31
ENDBRANCH  24  27
ENDBRANCH   1  24
TORSDOF 6
