REMARK  Name = ZINC39695878
REMARK  7 active torsions:
REMARK  status: ('A' for Active; 'I' for Inactive)
REMARK    1  A    between atoms: C_1  and  C_2
REMARK    2  A    between atoms: C_2  and  C_3
REMARK    3  A    between atoms: C_6  and  C_9
REMARK    4  A    between atoms: C_9  and  C_11
REMARK    5  A    between atoms: C_9  and  N_12
REMARK    6  A    between atoms: C_13  and  C_15
REMARK    7  A    between atoms: C_26  and  C_28
REMARK                            x       y       z     vdW  Elec       q    Type
REMARK                         _______ _______ _______ _____ _____    ______ ____
ROOT
ATOM      1  C   UNL     1      -6.688  -4.979  -2.001  0.00  0.00    +0.100 C 
ATOM      2  C   UNL     1      -7.218  -4.315  -3.292  0.00  0.00    +0.121 C 
ATOM      3  N   UNL     1      -8.147  -5.314  -3.871  0.00  0.00    -0.296 N 
ATOM      4  C   UNL     1      -8.853  -5.885  -2.699  0.00  0.00    +0.115 C 
ATOM      5  C   UNL     1      -7.764  -6.007  -1.614  0.00  0.00    -0.004 C 
ATOM      6  C   UNL     1      -8.345  -5.675  -0.244  0.00  0.00    -0.010 C 
ATOM      7  C   UNL     1      -9.370  -6.744   0.144  0.00  0.00    -0.082 C 
ATOM      8  N   UNL     1      -8.720  -8.060   0.172  0.00  0.00    +0.379 N 
ATOM      9  C   UNL     1      -8.246  -8.413  -1.171  0.00  0.00    -0.082 C 
ATOM     10  C   UNL     1      -7.173  -7.414  -1.615  0.00  0.00    -0.010 C 
ATOM     11  C   UNL     1      -8.313  -5.632  -5.170  0.00  0.00    +0.248 C 
ATOM     12  O   UNL     1      -7.587  -5.142  -6.013  0.00  0.00    -0.270 OA
ATOM     13  H   UNL     1      -7.937  -8.034   0.808  0.00  0.00    -0.086 HD
ATOM     14  H   UNL     1      -9.382  -8.754   0.487  0.00  0.00    -0.086 HD
ENDROOT
BRANCH  11  15
ATOM     15  C   UNL     1      -9.378  -6.574  -5.570  0.00  0.00    +0.055 A 
ATOM     16  C   UNL     1     -10.597  -6.586  -4.888  0.00  0.00    +0.016 A 
ATOM     17  C   UNL     1     -11.586  -7.468  -5.265  0.00  0.00    +0.021 A 
ATOM     18  C   UNL     1     -11.375  -8.342  -6.319  0.00  0.00    +0.042 A 
ATOM     19  C   UNL     1     -10.170  -8.337  -7.000  0.00  0.00    +0.040 A 
ATOM     20  C   UNL     1      -9.172  -7.454  -6.636  0.00  0.00    +0.054 A 
ATOM     21 CL   UNL     1      -7.664  -7.442  -7.495  0.00  0.00    -0.083 Cl
ATOM     22 CL   UNL     1     -12.627  -9.450  -6.787  0.00  0.00    -0.083 Cl
ENDBRANCH  11  15
BRANCH   1  24
ATOM     23  N   UNL     1      -5.714  -4.198   0.135  0.00  0.00    -0.308 N 
ATOM     24  C   UNL     1      -6.529  -3.951  -0.910  0.00  0.00    +0.219 C 
ATOM     25  O   UNL     1      -7.134  -2.902  -0.973  0.00  0.00    -0.275 OA
ATOM     26  H   UNL     1      -5.230  -5.037   0.185  0.00  0.00    +0.149 HD
BRANCH  23  27
ATOM     27  C   UNL     1      -5.559  -3.199   1.195  0.00  0.00    +0.100 C 
ATOM     28  C   UNL     1      -4.488  -2.185   0.788  0.00  0.00    +0.033 C 
BRANCH  27  32
ATOM     29  C   UNL     1      -4.386  -5.138   4.816  0.00  0.00    -0.048 A 
ATOM     30  C   UNL     1      -5.301  -4.103   4.852  0.00  0.00    +0.004 A 
ATOM     31  C   UNL     1      -5.681  -3.475   3.680  0.00  0.00    +0.006 A 
ATOM     32  C   UNL     1      -5.145  -3.882   2.473  0.00  0.00    -0.027 A 
ATOM     33  C   UNL     1      -4.229  -4.917   2.437  0.00  0.00    +0.006 A 
ATOM     34  C   UNL     1      -3.846  -5.542   3.609  0.00  0.00    +0.004 A 
BRANCH  29  36
ATOM     35  C   UNL     1      -2.759  -5.102   6.688  0.00  0.00    +0.009 C 
ATOM     36  C   UNL     1      -3.972  -5.822   6.093  0.00  0.00    +0.032 C 
ENDBRANCH  29  36
ENDBRANCH  27  32
ENDBRANCH  23  27
ENDBRANCH   1  24
TORSDOF 5
