REMARK  Name = ZINC02927447
REMARK  12 active torsions:
REMARK  status: ('A' for Active; 'I' for Inactive)
REMARK    1  A    between atoms: C_1  and  C_2
REMARK    2  A    between atoms: C_2  and  S_3
REMARK    3  A    between atoms: S_3  and  C_4
REMARK    4  A    between atoms: C_4  and  C_5
REMARK    5  A    between atoms: C_5  and  O_6
REMARK    6  A    between atoms: O_6  and  C_7
REMARK    7  A    between atoms: C_7  and  C_9
REMARK    8  A    between atoms: C_10  and  C_35
REMARK    9  A    between atoms: C_14  and  C_16
REMARK   10  A    between atoms: C_21  and  N_22
REMARK   11  A    between atoms: C_31  and  C_33
REMARK   12  A    between atoms: C_31  and  C_34
REMARK                            x       y       z     vdW  Elec       q    Type
REMARK                         _______ _______ _______ _____ _____    ______ ____
ROOT
ATOM      1  C   UNL     1       2.509   0.308  -0.403  0.00  0.00    +0.065 C 
ATOM      2  C   UNL     1       3.295   1.398  -0.446  0.00  0.00    +0.016 C 
ATOM      3  N   UNL     1       4.478   1.426   0.239  0.00  0.00    -0.321 N 
ATOM      4  C   UNL     1       5.079   0.264   0.642  0.00  0.00    +0.016 C 
ATOM      5  C   UNL     1       4.369  -0.881   0.727  0.00  0.00    +0.024 C 
ATOM      6  C   UNL     1       2.898  -0.901   0.397  0.00  0.00    +0.095 C 
ATOM      7  C   UNL     1       4.978  -2.084   1.124  0.00  0.00    +0.162 C 
ATOM      8  O   UNL     1       4.308  -3.095   1.200  0.00  0.00    -0.292 OA
ATOM      9  C   UNL     1       6.444  -2.144   1.456  0.00  0.00    +0.086 C 
ATOM     10  C   UNL     1       7.179  -1.061   0.660  0.00  0.00    -0.023 C 
ATOM     11  C   UNL     1       6.548   0.295   0.985  0.00  0.00    +0.058 C 
ATOM     12  C   UNL     1       7.046  -1.345  -0.838  0.00  0.00    +0.011 C 
ATOM     13  C   UNL     1       8.659  -1.046   1.051  0.00  0.00    +0.011 C 
ATOM     14  C   UNL     1       2.872   2.594  -1.258  0.00  0.00    +0.061 C 
ATOM     15  H   UNL     1       4.957   2.389   0.470  0.00  0.00    +0.152 HD
ENDROOT
BRANCH   6  16
ATOM     16  C   UNL     1       2.103  -0.924   1.677  0.00  0.00    -0.001 A 
ATOM     17  C   UNL     1       1.784   0.262   2.312  0.00  0.00    +0.056 A 
ATOM     18  C   UNL     1       1.054   0.243   3.489  0.00  0.00    +0.167 A 
ATOM     19  C   UNL     1       0.641  -0.973   4.029  0.00  0.00    +0.168 A 
ATOM     20  C   UNL     1       0.964  -2.157   3.387  0.00  0.00    +0.082 A 
ATOM     21  C   UNL     1       1.689  -2.130   2.210  0.00  0.00    +0.134 A 
ATOM     22  O   UNL     1      -0.055  -0.727   5.177  0.00  0.00    -0.453 OA
ATOM     23  C   UNL     1       0.285   0.622   5.551  0.00  0.00    +0.466 C 
ATOM     24  O   UNL     1       0.616   1.251   4.299  0.00  0.00    -0.453 OA
BRANCH  21  25
ATOM     25  N   UNL     1       2.028  -3.397   1.522  0.00  0.00    +0.057 N 
ATOM     26  O   UNL     1       2.325  -4.382   2.173  0.00  0.00    -0.126 OA
ATOM     27  O   UNL     1       2.009  -3.453   0.305  0.00  0.00    -0.126 OA
ENDBRANCH  21  25
ENDBRANCH   6  16
BRANCH   1  28
ATOM     28  C   UNL     1       1.293   0.301  -1.125  0.00  0.00    +0.338 C 
ATOM     29  O   UNL     1       1.241  -0.222  -2.223  0.00  0.00    -0.245 OA
BRANCH  28  30
ATOM     30  O   UNL     1       0.191   0.874  -0.598  0.00  0.00    -0.460 OA
BRANCH  30  31
ATOM     31  C   UNL     1      -1.002   0.829  -1.383  0.00  0.00    +0.243 C 
BRANCH  31  32
ATOM     32  C   UNL     1      -2.136   1.524  -0.626  0.00  0.00    +0.110 C 
BRANCH  32  33
ATOM     33  S   UNL     1      -3.651   1.467  -1.623  0.00  0.00    -0.158 S 
BRANCH  33  35
ATOM     34  C   UNL     1      -6.225   2.345  -1.330  0.00  0.00    +0.015 C 
ATOM     35  C   UNL     1      -4.882   2.320  -0.599  0.00  0.00    +0.066 C 
ENDBRANCH  33  35
ENDBRANCH  32  33
ENDBRANCH  31  32
ENDBRANCH  30  31
ENDBRANCH  28  30
ENDBRANCH   1  28
TORSDOF 8
