REMARK  Name = ZINC36068717
REMARK  11 active torsions:
REMARK  status: ('A' for Active; 'I' for Inactive)
REMARK    1  A    between atoms: C_1  and  C_2
REMARK    2  A    between atoms: C_2  and  O_3
REMARK    3  A    between atoms: O_3  and  C_4
REMARK    4  A    between atoms: C_4  and  C_6
REMARK    5  A    between atoms: C_13  and  C_15
REMARK    6  A    between atoms: C_18  and  C_20
REMARK    7  A    between atoms: C_20  and  N_21
REMARK    8  A    between atoms: N_21  and  C_22
REMARK    9  A    between atoms: N_21  and  C_30
REMARK   10  A    between atoms: C_22  and  C_23
REMARK   11  A    between atoms: C_30  and  C_31
REMARK                            x       y       z     vdW  Elec       q    Type
REMARK                         _______ _______ _______ _____ _____    ______ ____
ROOT
ATOM      1  C   UNL     1      -9.116  -5.439  -0.614  0.00  0.00    +0.020 C 
ENDROOT
BRANCH   1   5
ATOM      2  C   UNL     1      -8.118  -2.002  -0.058  0.00  0.00    +0.164 A 
ATOM      3  C   UNL     1      -9.266  -1.812  -0.764  0.00  0.00    +0.230 A 
ATOM      4  O   UNL     1      -9.758  -3.029  -1.046  0.00  0.00    -0.449 OA
ATOM      5  C   UNL     1      -8.931  -3.946  -0.524  0.00  0.00    +0.179 A 
ATOM      6  N   UNL     1      -7.941  -3.345   0.066  0.00  0.00    -0.210 NA
BRANCH   2  13
ATOM      7  C   UNL     1      -5.106  -0.284   3.209  0.00  0.00    +0.115 C 
ATOM      8  C   UNL     1      -4.772  -1.704   3.673  0.00  0.00    +0.018 C 
ATOM      9  C   UNL     1      -5.896  -2.656   3.257  0.00  0.00    +0.020 C 
ATOM     10  C   UNL     1      -6.016  -2.661   1.730  0.00  0.00    +0.108 C 
ATOM     11  N   UNL     1      -6.193  -1.279   1.264  0.00  0.00    -0.295 N 
ATOM     12  C   UNL     1      -5.218  -0.262   1.682  0.00  0.00    +0.122 C 
ATOM     13  C   UNL     1      -7.230  -0.950   0.469  0.00  0.00    +0.268 C 
ATOM     14  O   UNL     1      -7.433   0.216   0.186  0.00  0.00    -0.268 OA
BRANCH   7  15
ATOM     15  C   UNL     1      -4.014   0.658   3.647  0.00  0.00    +0.312 C 
ATOM     16  O   UNL     1      -3.067   0.238   4.268  0.00  0.00    -0.250 OA
BRANCH  15  17
ATOM     17  O   UNL     1      -4.095   1.964   3.348  0.00  0.00    -0.465 OA
BRANCH  17  19
ATOM     18  C   UNL     1      -3.291   4.243   3.364  0.00  0.00    +0.048 C 
ATOM     19  C   UNL     1      -3.025   2.799   3.795  0.00  0.00    +0.229 C 
ENDBRANCH  17  19
ENDBRANCH  15  17
ENDBRANCH   7  15
ENDBRANCH   2  13
ENDBRANCH   1   5
BRANCH   1  20
ATOM     20  N   UNL     1      -9.900  -5.905   0.538  0.00  0.00    +0.391 N 
ATOM     21  H   UNL     1      -9.453  -5.605   1.392  0.00  0.00    -0.080 HD
BRANCH  20  22
ATOM     22  C   UNL     1      -9.979  -7.372   0.516  0.00  0.00    -0.042 C 
BRANCH  22  23
ATOM     23  C   UNL     1      -8.618  -7.953   0.802  0.00  0.00    -0.064 A 
ATOM     24  C   UNL     1      -7.792  -8.323  -0.242  0.00  0.00    +0.004 A 
ATOM     25  C   UNL     1      -6.543  -8.855   0.020  0.00  0.00    +0.038 A 
ATOM     26  C   UNL     1      -6.121  -9.018   1.328  0.00  0.00    +0.123 A 
ATOM     27  C   UNL     1      -6.950  -8.647   2.373  0.00  0.00    +0.038 A 
ATOM     28  C   UNL     1      -8.196  -8.110   2.109  0.00  0.00    +0.004 A 
ATOM     29  F   UNL     1      -4.901  -9.539   1.585  0.00  0.00    -0.205 F 
ENDBRANCH  22  23
ENDBRANCH  20  22
BRANCH  20  30
ATOM     30  C   UNL     1     -11.254  -5.340   0.470  0.00  0.00    -0.039 C 
BRANCH  30  31
ATOM     31  C   UNL     1     -12.003  -5.676   1.734  0.00  0.00    -0.029 A 
ATOM     32  C   UNL     1     -13.008  -6.625   1.710  0.00  0.00    +0.004 A 
ATOM     33  C   UNL     1     -13.695  -6.934   2.869  0.00  0.00    +0.000 A 
ATOM     34  C   UNL     1     -13.378  -6.293   4.053  0.00  0.00    +0.003 A 
ATOM     35  C   UNL     1     -12.374  -5.344   4.079  0.00  0.00    +0.038 A 
ATOM     36  C   UNL     1     -11.682  -5.038   2.919  0.00  0.00    +0.125 A 
ATOM     37  F   UNL     1     -10.697  -4.114   2.944  0.00  0.00    -0.205 F 
ENDBRANCH  30  31
ENDBRANCH  20  30
ENDBRANCH   1  20
TORSDOF 10
