REMARK  Name = ZINC35147542
REMARK  6 active torsions:
REMARK  status: ('A' for Active; 'I' for Inactive)
REMARK    1  A    between atoms: C_1  and  C_2
REMARK    2  A    between atoms: C_6  and  N_8
REMARK    3  A    between atoms: N_11  and  C_12
REMARK    4  A    between atoms: N_11  and  C_34
REMARK    5  A    between atoms: C_12  and  C_13
REMARK    6  A    between atoms: C_27  and  C_29
REMARK                            x       y       z     vdW  Elec       q    Type
REMARK                         _______ _______ _______ _____ _____    ______ ____
ROOT
ATOM      1  C   UNL     1       1.371  -6.730   3.782  0.00  0.00    +0.238 C 
ATOM      2  O   UNL     1       2.253  -5.901   3.870  0.00  0.00    -0.273 OA
ATOM      3  N   UNL     1       1.680  -8.042   3.758  0.00  0.00    -0.252 N 
ATOM      4  C   UNL     1       2.990  -8.458   4.032  0.00  0.00    +0.061 A 
ATOM      5  C   UNL     1       3.803  -7.717   4.875  0.00  0.00    +0.025 A 
ATOM      6  C   UNL     1       5.096  -8.133   5.128  0.00  0.00    +0.002 A 
ATOM      7  C   UNL     1       5.588  -9.286   4.543  0.00  0.00    +0.002 A 
ATOM      8  C   UNL     1       4.784 -10.036   3.703  0.00  0.00    +0.028 A 
ATOM      9  C   UNL     1       3.489  -9.629   3.451  0.00  0.00    +0.068 A 
ATOM     10  N   UNL     1       2.627 -10.369   2.628  0.00  0.00    -0.316 N 
ATOM     11  C   UNL     1       2.894 -11.386   1.774  0.00  0.00    +0.092 A 
ATOM     12  C   UNL     1       1.732 -11.771   1.200  0.00  0.00    +0.020 A 
ATOM     13  C   UNL     1       0.706 -10.956   1.727  0.00  0.00    +0.025 A 
ATOM     14  C   UNL     1       1.274 -10.111   2.596  0.00  0.00    +0.052 A 
ATOM     15  C   UNL     1       0.638  -9.036   3.450  0.00  0.00    +0.194 C 
ENDROOT
BRANCH  15  16
ATOM     16  C   UNL     1       0.112  -9.637   4.728  0.00  0.00    +0.131 A 
ATOM     17  C   UNL     1      -1.174  -9.934   4.987  0.00  0.00    +0.047 A 
ATOM     18  C   UNL     1      -1.215 -10.474   6.292  0.00  0.00    +0.041 A 
ATOM     19  C   UNL     1       0.048 -10.475   6.754  0.00  0.00    +0.195 A 
ATOM     20  O   UNL     1       0.849  -9.972   5.800  0.00  0.00    -0.466 OA
ENDBRANCH  15  16
BRANCH   1  21
ATOM     21  C   UNL     1      -0.068  -6.293   3.701  0.00  0.00    +0.205 C 
BRANCH  21  25
ATOM     22  N   UNL     1      -0.066  -2.845   2.427  0.00  0.00    -0.269 N 
ATOM     23  C   UNL     1      -0.107  -4.192   2.467  0.00  0.00    +0.307 C 
ATOM     24  O   UNL     1      -0.120  -4.831   1.433  0.00  0.00    -0.252 OA
ATOM     25  N   UNL     1      -0.133  -4.830   3.654  0.00  0.00    -0.274 N 
ATOM     26  H   UNL     1       0.046  -2.339   3.247  0.00  0.00    +0.156 HD
BRANCH  22  32
ATOM     27  C   UNL     1      -1.243   1.216  -0.082  0.00  0.00    +0.044 C 
ATOM     28  C   UNL     1      -0.753  -0.209  -0.042  0.00  0.00    -0.049 A 
ATOM     29  C   UNL     1      -0.421  -0.858  -1.218  0.00  0.00    +0.003 A 
ATOM     30  C   UNL     1       0.029  -2.165  -1.185  0.00  0.00    +0.002 A 
ATOM     31  C   UNL     1       0.148  -2.827   0.021  0.00  0.00    +0.023 A 
ATOM     32  C   UNL     1      -0.185  -2.178   1.203  0.00  0.00    +0.035 A 
ATOM     33  C   UNL     1      -0.631  -0.863   1.168  0.00  0.00    +0.026 A 
ENDBRANCH  22  32
BRANCH  25  34
ATOM     34  C   UNL     1      -0.225  -4.061   4.898  0.00  0.00    +0.078 C 
ATOM     35  C   UNL     1      -0.175  -4.838   6.214  0.00  0.00    +0.024 C 
ATOM     36  C   UNL     1      -1.494  -4.225   5.737  0.00  0.00    +0.024 C 
ENDBRANCH  25  34
ENDBRANCH  21  25
ENDBRANCH   1  21
TORSDOF 5
