REMARK  Name = ZINC39943423
REMARK  8 active torsions:
REMARK  status: ('A' for Active; 'I' for Inactive)
REMARK    1  A    between atoms: C_1  and  N_2
REMARK    2  A    between atoms: N_2  and  C_3
REMARK    3  A    between atoms: N_2  and  S_22
REMARK    4  A    between atoms: C_3  and  C_4
REMARK    5  A    between atoms: C_4  and  C_6
REMARK    6  A    between atoms: C_14  and  C_16
REMARK    7  A    between atoms: S_22  and  C_25
REMARK    8  A    between atoms: C_29  and  N_31
REMARK                            x       y       z     vdW  Elec       q    Type
REMARK                         _______ _______ _______ _____ _____    ______ ____
ROOT
ATOM      1  C   UNL     1      -1.384  -0.909   1.776  0.00  0.00    +0.178 C 
ATOM      2  O   UNL     1      -2.316  -0.454   1.144  0.00  0.00    -0.291 OA
ENDROOT
BRANCH   1   3
ATOM      3  C   UNL     1      -1.621  -1.593   2.987  0.00  0.00    +0.032 C 
ATOM      4  C   UNL     1      -0.677  -2.162   3.825  0.00  0.00    +0.007 A 
ATOM      5  C   UNL     1       0.733  -2.251   3.765  0.00  0.00    +0.010 A 
ATOM      6  C   UNL     1       1.418  -2.881   4.746  0.00  0.00    +0.001 A 
ATOM      7  C   UNL     1       0.783  -3.468   5.851  0.00  0.00    +0.002 A 
ATOM      8  C   UNL     1      -0.559  -3.440   6.003  0.00  0.00    +0.026 A 
ATOM      9  C   UNL     1      -1.381  -2.772   4.980  0.00  0.00    +0.044 A 
ATOM     10  N   UNL     1      -2.667  -2.599   4.875  0.00  0.00    -0.373 N 
ATOM     11  C   UNL     1      -2.958  -1.853   3.646  0.00  0.00    +0.144 C 
ATOM     12  H   UNL     1      -3.329  -2.912   5.511  0.00  0.00    +0.161 HD
BRANCH  11  13
ATOM     13  C   UNL     1      -3.833  -2.676   2.737  0.00  0.00    -0.021 A 
ATOM     14  C   UNL     1      -3.658  -4.046   2.663  0.00  0.00    +0.006 A 
ATOM     15  C   UNL     1      -4.460  -4.801   1.829  0.00  0.00    +0.000 A 
ATOM     16  C   UNL     1      -5.438  -4.188   1.069  0.00  0.00    +0.000 A 
ATOM     17  C   UNL     1      -5.614  -2.818   1.143  0.00  0.00    +0.000 A 
ATOM     18  C   UNL     1      -4.814  -2.063   1.981  0.00  0.00    +0.006 A 
ENDBRANCH  11  13
ENDBRANCH   1   3
BRANCH   1  19
ATOM     19  C   UNL     1       0.024  -0.743   1.267  0.00  0.00    +0.188 C 
BRANCH  19  21
ATOM     20  C   UNL     1      -0.018   1.461   0.010  0.00  0.00    +0.132 C 
ATOM     21  N   UNL     1       0.002  -0.004   0.002  0.00  0.00    -0.172 NA
BRANCH  21  22
ATOM     22  S   UNL     1      -0.000  -0.824  -1.437  0.00  0.00    +0.061 S 
ATOM     23  O   UNL     1      -0.531  -2.115  -1.167  0.00  0.00    -0.153 OA
ATOM     24  O   UNL     1      -0.572   0.049  -2.401  0.00  0.00    -0.153 OA
BRANCH  22  25
ATOM     25  C   UNL     1       1.682  -1.059  -1.905  0.00  0.00    +0.108 A 
ATOM     26  C   UNL     1       2.324  -0.109  -2.677  0.00  0.00    +0.030 A 
ATOM     27  C   UNL     1       3.643  -0.292  -3.045  0.00  0.00    +0.024 A 
ATOM     28  C   UNL     1       4.322  -1.428  -2.640  0.00  0.00    +0.071 A 
ATOM     29  C   UNL     1       3.679  -2.379  -1.867  0.00  0.00    +0.146 A 
ATOM     30  C   UNL     1       2.361  -2.192  -1.496  0.00  0.00    +0.062 A 
ATOM     31 CL   UNL     1       5.979  -1.660  -3.101  0.00  0.00    -0.081 Cl
BRANCH  29  32
ATOM     32  N   UNL     1       4.405  -3.594  -1.434  0.00  0.00    +0.058 N 
ATOM     33  O   UNL     1       3.843  -4.425  -0.759  0.00  0.00    -0.126 OA
ATOM     34  O   UNL     1       5.559  -3.755  -1.755  0.00  0.00    -0.126 OA
ENDBRANCH  29  32
ENDBRANCH  22  25
ENDBRANCH  21  22
ENDBRANCH  19  21
ENDBRANCH   1  19
TORSDOF 7
