REMARK  Name = ZINC40149304
REMARK  13 active torsions:
REMARK  status: ('A' for Active; 'I' for Inactive)
REMARK    1  A    between atoms: C_1  and  C_2
REMARK    2  A    between atoms: C_2  and  N_3
REMARK    3  A    between atoms: N_6  and  C_9
REMARK    4  A    between atoms: C_9  and  C_10
REMARK    5  A    between atoms: C_10  and  C_12
REMARK    6  A    between atoms: C_10  and  C_13
REMARK    7  A    between atoms: C_13  and  N_14
REMARK    8  A    between atoms: N_14  and  C_15
REMARK    9  A    between atoms: C_18  and  S_24
REMARK   10  A    between atoms: C_20  and  N_21
REMARK   11  A    between atoms: S_24  and  N_27
REMARK   12  A    between atoms: C_29  and  C_36
REMARK   13  A    between atoms: C_32  and  C_35
REMARK                            x       y       z     vdW  Elec       q    Type
REMARK                         _______ _______ _______ _____ _____    ______ ____
ROOT
ATOM      1  C   UNL     1      -7.702  -6.840  -1.540  0.00  0.00    +0.058 A 
ATOM      2  C   UNL     1      -8.905  -6.156  -1.414  0.00  0.00    +0.027 A 
ATOM      3  C   UNL     1     -10.066  -6.706  -1.918  0.00  0.00    +0.030 A 
ATOM      4  C   UNL     1     -10.034  -7.937  -2.548  0.00  0.00    +0.108 A 
ATOM      5  C   UNL     1      -8.839  -8.621  -2.675  0.00  0.00    +0.063 A 
ATOM      6  C   UNL     1      -7.673  -8.074  -2.178  0.00  0.00    +0.149 A 
ENDROOT
BRANCH   6   7
ATOM      7  N   UNL     1      -6.393  -8.804  -2.320  0.00  0.00    +0.058 N 
ATOM      8  O   UNL     1      -5.373  -8.197  -2.550  0.00  0.00    -0.126 OA
ATOM      9  O   UNL     1      -6.368 -10.007  -2.205  0.00  0.00    -0.126 OA
ENDBRANCH   6   7
BRANCH   4  10
ATOM     10  S   UNL     1     -11.519  -8.635  -3.190  0.00  0.00    +0.061 S 
ATOM     11  O   UNL     1     -11.315 -10.040  -3.248  0.00  0.00    -0.153 OA
ATOM     12  O   UNL     1     -12.591  -8.051  -2.462  0.00  0.00    -0.153 OA
BRANCH  10  13
ATOM     13  N   UNL     1     -11.670  -8.113  -4.754  0.00  0.00    -0.176 NA
ATOM     14  C   UNL     1     -12.380  -6.864  -5.061  0.00  0.00    +0.112 C 
ATOM     15  C   UNL     1     -11.463  -5.969  -5.901  0.00  0.00    +0.002 C 
ATOM     16  C   UNL     1     -10.990  -6.743  -7.133  0.00  0.00    +0.009 C 
ATOM     17  C   UNL     1     -10.193  -7.972  -6.691  0.00  0.00    +0.002 C 
ATOM     18  C   UNL     1     -11.090  -8.887  -5.861  0.00  0.00    +0.112 C 
ATOM     19  C   UNL     1      -9.692  -8.727  -7.925  0.00  0.00    +0.009 C 
ATOM     20  C   UNL     1     -12.231  -4.722  -6.343  0.00  0.00    +0.009 C 
ENDBRANCH  10  13
ENDBRANCH   4  10
BRANCH   1  21
ATOM     21  N   UNL     1      -6.525  -6.287  -1.032  0.00  0.00    -0.342 N 
ATOM     22  H   UNL     1      -5.705  -6.804  -1.035  0.00  0.00    +0.146 HD
BRANCH  21  23
ATOM     23  C   UNL     1      -6.529  -4.924  -0.494  0.00  0.00    +0.103 C 
BRANCH  23  24
ATOM     24  C   UNL     1      -5.124  -4.564  -0.006  0.00  0.00    -0.014 C 
ATOM     25  C   UNL     1      -4.747  -5.464   1.173  0.00  0.00    +0.007 C 
BRANCH  24  26
ATOM     26  C   UNL     1      -5.099  -3.101   0.440  0.00  0.00    -0.074 C 
BRANCH  26  30
ATOM     27  N   UNL     1      -1.427  -1.056   0.681  0.00  0.00    -0.306 NA
ATOM     28  C   UNL     1      -1.430  -2.394   0.074  0.00  0.00    +0.066 C 
ATOM     29  C   UNL     1      -2.857  -2.758  -0.342  0.00  0.00    -0.063 C 
ATOM     30  N   UNL     1      -3.733  -2.734   0.837  0.00  0.00    +0.382 N 
ATOM     31  C   UNL     1      -3.738  -1.385   1.417  0.00  0.00    -0.063 C 
ATOM     32  C   UNL     1      -2.318  -1.009   1.848  0.00  0.00    +0.066 C 
ATOM     33  H   UNL     1      -3.393  -3.393   1.521  0.00  0.00    -0.082 HD
BRANCH  27  35
ATOM     34  C   UNL     1       0.770  -0.466  -0.228  0.00  0.00    +0.020 C 
ATOM     35  C   UNL     1      -0.063  -0.646   1.043  0.00  0.00    +0.081 C 
ENDBRANCH  27  35
ENDBRANCH  26  30
ENDBRANCH  24  26
ENDBRANCH  23  24
ENDBRANCH  21  23
ENDBRANCH   1  21
TORSDOF 9
