REMARK  Name = ZINC57525543
REMARK  5 active torsions:
REMARK  status: ('A' for Active; 'I' for Inactive)
REMARK    1  A    between atoms: C_1  and  C_2
REMARK    2  A    between atoms: C_2  and  C_3
REMARK    3  A    between atoms: C_2  and  C_4
REMARK    4  A    between atoms: C_2  and  C_5
REMARK    5  A    between atoms: C_11  and  C_22
REMARK                            x       y       z     vdW  Elec       q    Type
REMARK                         _______ _______ _______ _____ _____    ______ ____
ROOT
ATOM      1  C   UNL     1       0.511  -0.160  -1.755  0.00  0.00    -0.001 C 
ATOM      2  C   UNL     1       0.424  -1.689  -1.685  0.00  0.00    +0.010 C 
ATOM      3  C   UNL     1       1.073  -2.267  -2.941  0.00  0.00    +0.054 C 
ATOM      4  C   UNL     1       2.446  -1.680  -3.146  0.00  0.00    +0.021 A 
ATOM      5  C   UNL     1       2.856  -0.520  -2.526  0.00  0.00    -0.019 A 
ATOM      6  C   UNL     1       4.139  -0.019  -2.763  0.00  0.00    +0.003 A 
ATOM      7  C   UNL     1       5.009  -0.723  -3.646  0.00  0.00    +0.018 A 
ATOM      8  C   UNL     1       6.378  -0.379  -4.033  0.00  0.00    -0.027 A 
ATOM      9  C   UNL     1       7.000  -1.214  -4.891  0.00  0.00    -0.004 A 
ATOM     10  S   UNL     1       5.819  -2.491  -5.231  0.00  0.00    -0.075 S 
ATOM     11  C   UNL     1       4.485  -1.898  -4.218  0.00  0.00    +0.086 A 
ATOM     12  N   UNL     1       3.271  -2.325  -3.963  0.00  0.00    -0.352 N 
ATOM     13  C   UNL     1       8.390  -1.083  -5.436  0.00  0.00    +0.043 C 
ATOM     14  C   UNL     1       8.885   0.344  -5.165  0.00  0.00    +0.005 C 
ATOM     15  C   UNL     1       8.593   0.697  -3.704  0.00  0.00    +0.005 C 
ATOM     16  C   UNL     1       7.087   0.863  -3.500  0.00  0.00    +0.036 C 
ATOM     17  C   UNL     1       1.972   0.248  -1.577  0.00  0.00    +0.041 C 
ATOM     18  H   UNL     1       2.964  -3.142  -4.387  0.00  0.00    +0.166 HD
ENDROOT
BRANCH   6  19
ATOM     19  C   UNL     1       4.587   1.224  -2.108  0.00  0.00    +0.020 A 
ATOM     20  C   UNL     1       4.823   2.456  -2.662  0.00  0.00    +0.016 A 
ATOM     21  C   UNL     1       5.241   3.480  -1.842  0.00  0.00    +0.008 A 
ATOM     22  C   UNL     1       5.406   3.242  -0.515  0.00  0.00    +0.046 A 
ATOM     23  S   UNL     1       4.956   1.519  -0.386  0.00  0.00    -0.097 S 
ENDBRANCH   6  19
BRANCH   1  25
ATOM     24  C   UNL     1      -0.235   1.981  -0.706  0.00  0.00    +0.011 C 
ATOM     25  C   UNL     1      -0.336   0.456  -0.639  0.00  0.00    -0.035 C 
ATOM     26  C   UNL     1       0.176  -0.031   0.718  0.00  0.00    +0.011 C 
ATOM     27  C   UNL     1      -1.796   0.033  -0.815  0.00  0.00    +0.011 C 
ENDBRANCH   1  25
TORSDOF 2
