REMARK  Name = ZINC11882196
REMARK  10 active torsions:
REMARK  status: ('A' for Active; 'I' for Inactive)
REMARK    1  A    between atoms: C_1  and  C_2
REMARK    2  A    between atoms: C_2  and  C_4
REMARK    3  A    between atoms: C_2  and  N_23
REMARK    4  A    between atoms: C_13  and  C_14
REMARK    5  A    between atoms: C_13  and  N_64
REMARK    6  A    between atoms: C_14  and  C_22
REMARK    7  A    between atoms: C_15  and  C_16
REMARK    8  A    between atoms: C_24  and  C_26
REMARK    9  A    between atoms: C_26  and  O_27
REMARK   10  A    between atoms: O_27  and  C_28
REMARK                            x       y       z     vdW  Elec       q    Type
REMARK                         _______ _______ _______ _____ _____    ______ ____
ROOT
ATOM      1  C   UNL     1       1.988   0.909   0.124  0.00  0.00    +0.154 A 
ATOM      2  N   UNL     1       1.123   1.886   0.196  0.00  0.00    -0.132 NA
ATOM      3  N   UNL     1      -0.073   1.408   0.208  0.00  0.00    -0.134 NA
ATOM      4  C   UNL     1      -0.023   0.110   0.139  0.00  0.00    +0.132 A 
ATOM      5  N   UNL     1       1.285  -0.244   0.098  0.00  0.00    -0.315 N 
ATOM      6  C   UNL     1       1.807  -1.610   0.053  0.00  0.00    +0.106 C 
ATOM      7  C   UNL     1       0.775  -2.520  -0.620  0.00  0.00    -0.056 C 
ATOM      8  C   UNL     1      -0.901  -2.006   1.067  0.00  0.00    -0.071 C 
ATOM      9  C   UNL     1      -1.178  -0.857   0.092  0.00  0.00    +0.058 C 
ATOM     10  N   UNL     1      -0.127  -3.082   0.410  0.00  0.00    +0.384 N 
ATOM     11  H   UNL     1       0.439  -3.562   1.119  0.00  0.00    -0.081 HD
ENDROOT
BRANCH   1  13
ATOM     12  C   UNL     1       4.011   1.400   1.472  0.00  0.00    +0.036 C 
ATOM     13  C   UNL     1       3.488   1.043   0.079  0.00  0.00    +0.138 C 
BRANCH  13  14
ATOM     14  N   UNL     1       3.855   2.101  -0.865  0.00  0.00    -0.303 N 
ATOM     15  C   UNL     1       5.066   2.086  -1.457  0.00  0.00    +0.251 C 
ATOM     16  O   UNL     1       5.852   1.197  -1.207  0.00  0.00    -0.272 OA
ATOM     17  H   UNL     1       3.227   2.813  -1.065  0.00  0.00    +0.149 HD
BRANCH  15  18
ATOM     18  C   UNL     1       5.444   3.174  -2.429  0.00  0.00    +0.324 C 
BRANCH  18  19
ATOM     19  O   UNL     1       6.766   2.939  -2.917  0.00  0.00    -0.483 OA
BRANCH  19  20
ATOM     20  C   UNL     1       7.263   3.835  -3.809  0.00  0.00    +0.121 A 
ATOM     21  C   UNL     1       6.491   4.916  -4.212  0.00  0.00    +0.045 A 
ATOM     22  C   UNL     1       7.001   5.829  -5.114  0.00  0.00    +0.004 A 
ATOM     23  C   UNL     1       8.274   5.660  -5.627  0.00  0.00    +0.000 A 
ATOM     24  C   UNL     1       9.043   4.581  -5.232  0.00  0.00    +0.004 A 
ATOM     25  C   UNL     1       8.540   3.668  -4.324  0.00  0.00    +0.045 A 
ENDBRANCH  19  20
ENDBRANCH  18  19
ENDBRANCH  15  18
ENDBRANCH  13  14
ENDBRANCH   1  13
BRANCH  10  26
ATOM     26  C   UNL     1      -1.047  -4.056  -0.205  0.00  0.00    -0.048 C 
BRANCH  26  27
ATOM     27  C   UNL     1      -1.804  -4.761   0.891  0.00  0.00    -0.089 C 
ATOM     28  C   UNL     1      -3.012  -4.340   1.239  0.00  0.00    +0.005 C 
ATOM     29  C   UNL     1      -1.188  -5.946   1.590  0.00  0.00    +0.037 C 
BRANCH  28  30
ATOM     30  C   UNL     1      -3.684  -4.919   2.421  0.00  0.00    -0.025 A 
ATOM     31  C   UNL     1      -5.072  -5.059   2.440  0.00  0.00    +0.008 A 
ATOM     32  C   UNL     1      -5.693  -5.606   3.544  0.00  0.00    +0.001 A 
ATOM     33  C   UNL     1      -4.943  -6.004   4.636  0.00  0.00    +0.000 A 
ATOM     34  C   UNL     1      -3.567  -5.862   4.627  0.00  0.00    +0.001 A 
ATOM     35  C   UNL     1      -2.933  -5.322   3.526  0.00  0.00    +0.008 A 
ENDBRANCH  28  30
ENDBRANCH  26  27
ENDBRANCH  10  26
TORSDOF 8
