REMARK  Name = ZINC63472816
REMARK  3 active torsions:
REMARK  status: ('A' for Active; 'I' for Inactive)
REMARK    1  A    between atoms: C_4  and  N_7
REMARK    2  A    between atoms: C_12  and  C_30
REMARK    3  A    between atoms: C_30  and  C_31
REMARK                            x       y       z     vdW  Elec       q    Type
REMARK                         _______ _______ _______ _____ _____    ______ ____
ROOT
ATOM      1  N   UNL     1       3.624  -0.652  -0.037  0.00  0.00    -0.210 N 
ATOM      2  C   UNL     1       4.801  -0.025  -0.139  0.00  0.00    +0.232 C 
ATOM      3  O   UNL     1       4.950   1.175  -0.231  0.00  0.00    -0.274 OA
ATOM      4  C   UNL     1       5.917  -1.044  -0.120  0.00  0.00    +0.107 C 
ATOM      5  C   UNL     1       6.606  -1.073  -1.501  0.00  0.00    +0.072 C 
ATOM      6  N   UNL     1       5.807  -2.034  -2.307  0.00  0.00    -0.295 NA
ATOM      7  C   UNL     1       5.459  -3.103  -1.352  0.00  0.00    +0.136 C 
ATOM      8  C   UNL     1       5.164  -2.399  -0.004  0.00  0.00    +0.123 C 
ATOM      9  C   UNL     1       3.710  -1.984   0.052  0.00  0.00    +0.233 C 
ATOM     10  O   UNL     1       2.770  -2.742   0.160  0.00  0.00    -0.274 OA
ATOM     11  C   UNL     1       4.279  -3.903  -1.829  0.00  0.00    +0.006 A 
ATOM     12  C   UNL     1       2.978  -3.578  -2.139  0.00  0.00    +0.046 A 
ATOM     13  C   UNL     1       2.100  -4.563  -2.564  0.00  0.00    +0.124 A 
ATOM     14  C   UNL     1       2.538  -5.873  -2.675  0.00  0.00    +0.040 A 
ATOM     15  C   UNL     1       3.841  -6.200  -2.363  0.00  0.00    +0.026 A 
ATOM     16  C   UNL     1       4.728  -5.216  -1.935  0.00  0.00    +0.039 A 
ATOM     17  N   UNL     1       6.074  -5.298  -1.566  0.00  0.00    -0.283 N 
ATOM     18  C   UNL     1       6.577  -4.099  -1.211  0.00  0.00    +0.243 C 
ATOM     19  O   UNL     1       7.710  -3.869  -0.847  0.00  0.00    -0.273 OA
ATOM     20  F   UNL     1       0.823  -4.247  -2.870  0.00  0.00    -0.205 F 
ATOM     21  H   UNL     1       4.978  -1.595  -2.676  0.00  0.00    +0.124 HD
ATOM     22  H   UNL     1       6.586  -6.121  -1.567  0.00  0.00    +0.155 HD
ENDROOT
BRANCH   1  26
ATOM     23  C   UNL     1      -0.017   1.377   0.011  0.00  0.00    +0.000 A 
ATOM     24  C   UNL     1       0.752   1.367  -1.139  0.00  0.00    +0.002 A 
ATOM     25  C   UNL     1       1.958   0.695  -1.158  0.00  0.00    +0.024 A 
ATOM     26  C   UNL     1       2.399   0.031  -0.021  0.00  0.00    +0.044 A 
ATOM     27  C   UNL     1       1.625   0.043   1.131  0.00  0.00    +0.024 A 
ATOM     28  C   UNL     1       0.419   0.717   1.144  0.00  0.00    +0.002 A 
ENDBRANCH   1  26
BRANCH   5  29
ATOM     29  C   UNL     1       6.573   0.317  -2.141  0.00  0.00    +0.052 C 
BRANCH  29  30
ATOM     30  C   UNL     1       7.356   0.296  -3.428  0.00  0.00    -0.040 C 
ATOM     31  C   UNL     1       6.865   0.112  -4.675  0.00  0.00    -0.001 A 
ATOM     32  C   UNL     1       5.508  -0.115  -5.186  0.00  0.00    +0.010 A 
ATOM     33  C   UNL     1       5.325  -0.267  -6.518  0.00  0.00    +0.001 A 
ATOM     34  C   UNL     1       6.397  -0.214  -7.420  0.00  0.00    +0.002 A 
ATOM     35  C   UNL     1       7.672  -0.009  -7.026  0.00  0.00    +0.026 A 
ATOM     36  C   UNL     1       7.979   0.165  -5.648  0.00  0.00    +0.043 A 
ATOM     37  N   UNL     1       9.115   0.373  -5.027  0.00  0.00    -0.380 N 
ATOM     38  C   UNL     1       8.848   0.482  -3.589  0.00  0.00    +0.144 C 
ATOM     39  H   UNL     1       9.986   0.447  -5.449  0.00  0.00    +0.160 HD
ENDBRANCH  29  30
ENDBRANCH   5  29
TORSDOF 3
