REMARK  Name = ZINC12975766
REMARK  5 active torsions:
REMARK  status: ('A' for Active; 'I' for Inactive)
REMARK    1  A    between atoms: C_1  and  C_2
REMARK    2  A    between atoms: C_2  and  C_4
REMARK    3  A    between atoms: C_2  and  N_20
REMARK    4  A    between atoms: C_10  and  C_15
REMARK    5  A    between atoms: C_29  and  C_32
REMARK                            x       y       z     vdW  Elec       q    Type
REMARK                         _______ _______ _______ _____ _____    ______ ____
ROOT
ATOM      1  C   UNL     1      -5.240   2.459   8.915  0.00  0.00    -0.005 C 
ATOM      2  C   UNL     1      -5.454   3.495   7.810  0.00  0.00    -0.004 C 
ENDROOT
BRANCH   2   3
ATOM      3  N   UNL     1      -4.764   3.058   6.588  0.00  0.00    +0.388 N 
ATOM      4  C   UNL     1      -5.055   3.963   5.467  0.00  0.00    -0.059 C 
ATOM      5  C   UNL     1      -4.384   3.431   4.199  0.00  0.00    +0.088 C 
ATOM      6  N   UNL     1      -2.936   3.322   4.422  0.00  0.00    -0.319 N 
ATOM      7  C   UNL     1      -2.645   2.417   5.543  0.00  0.00    +0.088 C 
ATOM      8  C   UNL     1      -3.316   2.950   6.812  0.00  0.00    -0.059 C 
ATOM      9  C   UNL     1      -2.283   2.909   3.267  0.00  0.00    +0.121 A 
ATOM     10  C   UNL     1      -0.901   2.745   3.276  0.00  0.00    +0.044 A 
ATOM     11  C   UNL     1      -0.265   2.334   2.119  0.00  0.00    +0.017 A 
ATOM     12  C   UNL     1      -1.034   2.098   0.988  0.00  0.00    +0.073 A 
ATOM     13  C   UNL     1      -2.400   2.285   1.048  0.00  0.00    +0.125 A 
ATOM     14  N   UNL     1      -2.982   2.673   2.167  0.00  0.00    -0.240 NA
ATOM     15  H   UNL     1      -5.144   2.060   6.326  0.00  0.00    -0.081 HD
BRANCH  12  16
ATOM     16  C   UNL     1      -0.383   1.648  -0.295  0.00  0.00    +0.419 C 
ATOM     17  F   UNL     1      -0.332   0.251  -0.328  0.00  0.00    -0.166 F 
ATOM     18  F   UNL     1       0.915   2.164  -0.365  0.00  0.00    -0.166 F 
ATOM     19  F   UNL     1      -1.129   2.113  -1.384  0.00  0.00    -0.166 F 
ENDBRANCH  12  16
ENDBRANCH   2   3
BRANCH   2  20
ATOM     20  C   UNL     1      -4.898   4.824   8.253  0.00  0.00    +0.097 A 
ATOM     21  N   UNL     1      -5.294   5.351   9.440  0.00  0.00    -0.312 N 
ATOM     22  H   UNL     1      -6.015   4.808  10.069  0.00  0.00    +0.170 HD
ATOM     23  C   UNL     1      -4.820   6.534   9.873  0.00  0.00    +0.260 A 
ATOM     24  O   UNL     1      -5.186   6.993  10.941  0.00  0.00    -0.267 OA
ATOM     25  C   UNL     1      -3.882   7.245   9.059  0.00  0.00    +0.080 A 
ATOM     26  C   UNL     1      -3.234   8.528   9.305  0.00  0.00    +0.010 A 
ATOM     27  C   UNL     1      -2.369   9.010   8.377  0.00  0.00    +0.057 A 
ATOM     28  S   UNL     1      -2.380   7.754   7.112  0.00  0.00    -0.076 S 
ATOM     29  C   UNL     1      -3.532   6.623   7.849  0.00  0.00    +0.116 A 
ATOM     30  N   UNL     1      -4.039   5.447   7.491  0.00  0.00    -0.228 NA
BRANCH  26  31
ATOM     31  C   UNL     1      -3.513   9.289  10.541  0.00  0.00    +0.021 A 
ATOM     32  C   UNL     1      -2.632   9.837  11.435  0.00  0.00    +0.016 A 
ATOM     33  C   UNL     1      -3.133  10.515  12.527  0.00  0.00    +0.008 A 
ATOM     34  C   UNL     1      -4.476  10.609  12.688  0.00  0.00    +0.046 A 
ATOM     35  S   UNL     1      -5.087   9.727  11.261  0.00  0.00    -0.097 S 
ENDBRANCH  26  31
ENDBRANCH   2  20
TORSDOF 4
