REMARK  Name = ZINC15910540
REMARK  11 active torsions:
REMARK  status: ('A' for Active; 'I' for Inactive)
REMARK    1  A    between atoms: C_1  and  C_2
REMARK    2  A    between atoms: C_5  and  C_36
REMARK    3  A    between atoms: N_8  and  C_10
REMARK    4  A    between atoms: C_13  and  C_19
REMARK    5  A    between atoms: C_15  and  N_16
REMARK    6  A    between atoms: C_19  and  O_21
REMARK    7  A    between atoms: O_21  and  C_22
REMARK    8  A    between atoms: C_22  and  C_23
REMARK    9  A    between atoms: N_25  and  C_26
REMARK   10  A    between atoms: C_31  and  O_32
REMARK   11  A    between atoms: O_32  and  C_33
REMARK                            x       y       z     vdW  Elec       q    Type
REMARK                         _______ _______ _______ _____ _____    ______ ____
ROOT
ATOM      1  C   UNL     1      -7.220  -0.449  -0.351  0.00  0.00    +0.340 C 
ATOM      2  O   UNL     1      -7.395   0.754  -0.357  0.00  0.00    -0.245 OA
ENDROOT
BRANCH   1   6
ATOM      3  C   UNL     1     -10.535  -3.079  -0.626  0.00  0.00    +0.060 A 
ATOM      4  C   UNL     1      -9.243  -3.591  -0.529  0.00  0.00    +0.026 A 
ATOM      5  C   UNL     1      -8.174  -2.745  -0.447  0.00  0.00    +0.017 A 
ATOM      6  C   UNL     1      -8.373  -1.361  -0.447  0.00  0.00    +0.061 A 
ATOM      7  C   UNL     1      -9.670  -0.845  -0.544  0.00  0.00    +0.049 A 
ATOM      8  C   UNL     1     -10.743  -1.702  -0.633  0.00  0.00    +0.148 A 
BRANCH   3  14
ATOM      9  C   UNL     1     -13.165  -6.432   1.696  0.00  0.00    +0.009 C 
ATOM     10  C   UNL     1     -13.036  -5.580   0.432  0.00  0.00    +0.003 C 
ATOM     11  C   UNL     1     -12.976  -6.492  -0.796  0.00  0.00    +0.009 C 
ATOM     12  C   UNL     1     -12.786  -5.635  -2.050  0.00  0.00    +0.003 C 
ATOM     13  C   UNL     1     -11.512  -4.801  -1.904  0.00  0.00    +0.108 C 
ATOM     14  N   UNL     1     -11.619  -3.945  -0.716  0.00  0.00    -0.328 N 
ATOM     15  C   UNL     1     -11.754  -4.747   0.506  0.00  0.00    +0.108 C 
ATOM     16  C   UNL     1     -13.989  -4.705  -2.219  0.00  0.00    +0.009 C 
ENDBRANCH   3  14
BRANCH   8  17
ATOM     17  N   UNL     1     -12.117  -1.161  -0.736  0.00  0.00    +0.058 N 
ATOM     18  O   UNL     1     -12.298   0.043  -0.742  0.00  0.00    -0.126 OA
ATOM     19  O   UNL     1     -13.066  -1.921  -0.815  0.00  0.00    -0.126 OA
ENDBRANCH   8  17
ENDBRANCH   1   6
BRANCH   1  20
ATOM     20  O   UNL     1      -5.972  -0.948  -0.258  0.00  0.00    -0.452 OA
BRANCH  20  21
ATOM     21  C   UNL     1      -4.884   0.010  -0.167  0.00  0.00    +0.328 C 
BRANCH  21  22
ATOM     22  C   UNL     1      -3.573  -0.727  -0.069  0.00  0.00    +0.255 C 
ATOM     23  O   UNL     1      -3.557  -1.940  -0.076  0.00  0.00    -0.272 OA
ATOM     24  N   UNL     1      -2.418  -0.038   0.025  0.00  0.00    -0.280 N 
ATOM     25  H   UNL     1      -2.436   0.928   0.111  0.00  0.00    +0.155 HD
BRANCH  24  26
ATOM     26  C   UNL     1      -1.193  -0.718  -0.002  0.00  0.00    +0.076 A 
ATOM     27  C   UNL     1      -1.099  -1.958  -0.616  0.00  0.00    +0.027 A 
ATOM     28  C   UNL     1       0.111  -2.626  -0.642  0.00  0.00    +0.002 A 
ATOM     29  C   UNL     1       1.229  -2.061  -0.056  0.00  0.00    +0.004 A 
ATOM     30  C   UNL     1       1.143  -0.823   0.554  0.00  0.00    +0.048 A 
ATOM     31  C   UNL     1      -0.067  -0.149   0.589  0.00  0.00    +0.148 A 
BRANCH  31  32
ATOM     32  O   UNL     1      -0.153   1.066   1.192  0.00  0.00    -0.432 OA
BRANCH  32  33
ATOM     33  C   UNL     1       1.042   1.587   1.776  0.00  0.00    +0.541 C 
ATOM     34  F   UNL     1       1.500   0.708   2.764  0.00  0.00    -0.166 F 
ATOM     35  F   UNL     1       2.022   1.727   0.787  0.00  0.00    -0.166 F 
ENDBRANCH  32  33
ENDBRANCH  31  32
ENDBRANCH  24  26
ENDBRANCH  21  22
ENDBRANCH  20  21
ENDBRANCH   1  20
TORSDOF 9
