REMARK  Name = ZINC29200707
REMARK  9 active torsions:
REMARK  status: ('A' for Active; 'I' for Inactive)
REMARK    1  A    between atoms: C_1  and  C_2
REMARK    2  A    between atoms: C_2  and  C_3
REMARK    3  A    between atoms: C_2  and  C_4
REMARK    4  A    between atoms: C_4  and  C_6
REMARK    5  A    between atoms: C_4  and  N_11
REMARK    6  A    between atoms: N_11  and  C_12
REMARK    7  A    between atoms: C_12  and  C_13
REMARK    8  A    between atoms: N_15  and  C_16
REMARK    9  A    between atoms: C_21  and  N_22
REMARK                            x       y       z     vdW  Elec       q    Type
REMARK                         _______ _______ _______ _____ _____    ______ ____
ROOT
ATOM      1  C   UNL     1      -3.308   6.630  -2.502  0.00  0.00    +0.200 C 
ATOM      2  O   UNL     1      -3.921   5.608  -2.727  0.00  0.00    -0.278 OA
ATOM      3  N   UNL     1      -3.666   7.778  -3.110  0.00  0.00    -0.285 N 
ATOM      4  H   UNL     1      -3.157   8.719  -2.853  0.00  0.00    +0.155 HD
ENDROOT
BRANCH   3   5
ATOM      5  C   UNL     1      -4.685   7.774  -4.069  0.00  0.00    +0.064 A 
ATOM      6  C   UNL     1      -4.899   6.647  -4.852  0.00  0.00    +0.027 A 
ATOM      7  C   UNL     1      -5.906   6.645  -5.798  0.00  0.00    +0.022 A 
ATOM      8  C   UNL     1      -6.701   7.765  -5.965  0.00  0.00    +0.043 A 
ATOM      9  C   UNL     1      -6.490   8.889  -5.187  0.00  0.00    +0.054 A 
ATOM     10  C   UNL     1      -5.488   8.894  -4.236  0.00  0.00    +0.149 A 
ATOM     11 CL   UNL     1      -7.965   7.759  -7.155  0.00  0.00    -0.083 Cl
BRANCH  10  12
ATOM     12  N   UNL     1      -5.267  10.095  -3.400  0.00  0.00    +0.058 N 
ATOM     13  O   UNL     1      -5.998  11.062  -3.517  0.00  0.00    -0.126 OA
ATOM     14  O   UNL     1      -4.355  10.116  -2.593  0.00  0.00    -0.126 OA
ENDBRANCH  10  12
ENDBRANCH   3   5
BRANCH   1  15
ATOM     15  C   UNL     1      -2.147   6.617  -1.541  0.00  0.00    +0.016 C 
BRANCH  15  16
ATOM     16  N   UNL     1      -1.961   5.257  -1.017  0.00  0.00    +0.390 N 
ATOM     17  H   UNL     1      -1.669   4.596  -1.846  0.00  0.00    -0.084 HD
ATOM     18  H   UNL     1      -2.914   4.910  -0.590  0.00  0.00    -0.084 HD
BRANCH  16  19
ATOM     19  C   UNL     1      -0.921   5.230   0.020  0.00  0.00    -0.031 C 
BRANCH  19  20
ATOM     20  C   UNL     1       0.431   5.085  -0.628  0.00  0.00    -0.024 A 
ATOM     21  C   UNL     1       1.602   5.688  -0.306  0.00  0.00    +0.009 A 
ATOM     22  C   UNL     1       2.731   5.399  -1.050  0.00  0.00    +0.008 A 
ATOM     23  C   UNL     1       2.634   4.522  -2.078  0.00  0.00    +0.045 A 
ATOM     24  S   UNL     1       0.906   4.078  -2.024  0.00  0.00    -0.103 S 
ENDBRANCH  19  20
BRANCH  19  26
ATOM     25  C   UNL     1      -2.508   4.232   1.672  0.00  0.00    +0.006 C 
ATOM     26  C   UNL     1      -1.167   4.047   0.959  0.00  0.00    -0.027 C 
ATOM     27  C   UNL     1      -1.196   2.750   0.147  0.00  0.00    +0.006 C 
ENDBRANCH  19  26
ENDBRANCH  16  19
ENDBRANCH  15  16
ENDBRANCH   1  15
TORSDOF 7
