REMARK  Name = ZINC34749973
REMARK  12 active torsions:
REMARK  status: ('A' for Active; 'I' for Inactive)
REMARK    1  A    between atoms: C_1  and  C_2
REMARK    2  A    between atoms: C_2  and  C_3
REMARK    3  A    between atoms: C_3  and  S_4
REMARK    4  A    between atoms: S_4  and  C_5
REMARK    5  A    between atoms: C_16  and  C_18
REMARK    6  A    between atoms: C_16  and  C_19
REMARK    7  A    between atoms: N_23  and  C_26
REMARK    8  A    between atoms: C_26  and  C_27
REMARK    9  A    between atoms: N_29  and  C_30
REMARK   10  A    between atoms: N_29  and  C_32
REMARK   11  A    between atoms: C_30  and  C_31
REMARK   12  A    between atoms: C_32  and  C_33
REMARK                            x       y       z     vdW  Elec       q    Type
REMARK                         _______ _______ _______ _____ _____    ______ ____
ROOT
ATOM      1  C   UNL     1       1.651  -2.747   2.696  0.00  0.00    +0.191 A 
ATOM      2  N   UNL     1       1.851  -4.027   2.990  0.00  0.00    -0.206 NA
ATOM      3  C   UNL     1       2.491  -4.404   4.084  0.00  0.00    +0.134 A 
ATOM      4  C   UNL     1       2.984  -3.414   4.980  0.00  0.00    +0.051 A 
ATOM      5  C   UNL     1       3.711  -3.594   6.235  0.00  0.00    -0.020 A 
ATOM      6  C   UNL     1       4.069  -2.477   6.904  0.00  0.00    +0.021 A 
ATOM      7  S   UNL     1       3.470  -1.136   5.916  0.00  0.00    -0.071 S 
ATOM      8  C   UNL     1       2.735  -2.078   4.604  0.00  0.00    +0.115 A 
ATOM      9  N   UNL     1       2.092  -1.782   3.491  0.00  0.00    -0.215 NA
ATOM     10  C   UNL     1       4.813  -2.422   8.202  0.00  0.00    +0.203 C 
ATOM     11  O   UNL     1       4.801  -3.739   8.775  0.00  0.00    -0.368 OA
ATOM     12  C   UNL     1       5.176  -4.765   7.851  0.00  0.00    +0.068 C 
ATOM     13  C   UNL     1       4.073  -4.963   6.807  0.00  0.00    +0.071 C 
ATOM     14  C   UNL     1       6.474  -4.364   7.147  0.00  0.00    +0.041 C 
ATOM     15  C   UNL     1       5.397  -6.075   8.610  0.00  0.00    +0.041 C 
ATOM     16  N   UNL     1       2.680  -5.747   4.354  0.00  0.00    -0.318 N 
ATOM     17  C   UNL     1       1.750  -6.481   5.226  0.00  0.00    +0.088 C 
ATOM     18  C   UNL     1       1.316  -7.762   4.505  0.00  0.00    -0.059 C 
ATOM     19  N   UNL     1       2.505  -8.526   4.108  0.00  0.00    +0.387 N 
ATOM     20  C   UNL     1       3.284  -7.763   3.125  0.00  0.00    -0.059 C 
ATOM     21  C   UNL     1       3.813  -6.484   3.772  0.00  0.00    +0.088 C 
ATOM     22  H   UNL     1       3.076  -8.705   4.921  0.00  0.00    -0.081 HD
ENDROOT
BRANCH   1  23
ATOM     23  S   UNL     1       0.788  -2.324   1.219  0.00  0.00    -0.086 S 
BRANCH  23  24
ATOM     24  C   UNL     1       0.760  -0.510   1.231  0.00  0.00    +0.077 C 
BRANCH  24  26
ATOM     25  C   UNL     1       0.007   1.526  -0.004  0.00  0.00    +0.004 C 
ATOM     26  C   UNL     1       0.030  -0.003  -0.014  0.00  0.00    +0.008 C 
ENDBRANCH  24  26
ENDBRANCH  23  24
ENDBRANCH   1  23
BRANCH  19  27
ATOM     27  C   UNL     1       2.089  -9.804   3.516  0.00  0.00    +0.019 C 
BRANCH  27  28
ATOM     28  C   UNL     1       3.307 -10.642   3.221  0.00  0.00    +0.199 C 
ATOM     29  O   UNL     1       4.412 -10.215   3.478  0.00  0.00    -0.278 OA
ATOM     30  N   UNL     1       3.167 -11.864   2.671  0.00  0.00    -0.304 N 
BRANCH  30  31
ATOM     31  C   UNL     1       4.350 -12.678   2.383  0.00  0.00    +0.104 C 
ATOM     32  C   UNL     1       4.681 -13.544   3.600  0.00  0.00    +0.024 C 
ENDBRANCH  30  31
BRANCH  30  33
ATOM     33  C   UNL     1       1.831 -12.379   2.360  0.00  0.00    +0.104 C 
ATOM     34  C   UNL     1       1.447 -11.974   0.934  0.00  0.00    +0.024 C 
ENDBRANCH  30  33
ENDBRANCH  27  28
ENDBRANCH  19  27
TORSDOF 7
