REMARK  Name = ZINC58826220
REMARK  6 active torsions:
REMARK  status: ('A' for Active; 'I' for Inactive)
REMARK    1  A    between atoms: C_3  and  C_10
REMARK    2  A    between atoms: C_5  and  N_7
REMARK    3  A    between atoms: C_13  and  C_15
REMARK    4  A    between atoms: N_16  and  C_17
REMARK    5  A    between atoms: C_18  and  C_26
REMARK    6  A    between atoms: N_28  and  C_29
REMARK                            x       y       z     vdW  Elec       q    Type
REMARK                         _______ _______ _______ _____ _____    ______ ____
ROOT
ATOM      1  C   UNL     1       9.016   1.053  -0.099  0.00  0.00    +0.114 A 
ATOM      2  C   UNL     1       9.802  -0.193  -0.126  0.00  0.00    +0.073 A 
ATOM      3  C   UNL     1      11.167  -0.020  -0.140  0.00  0.00    -0.023 A 
ATOM      4  C   UNL     1      11.638   1.299  -0.126  0.00  0.00    -0.004 A 
ATOM      5  S   UNL     1      10.297   2.293  -0.105  0.00  0.00    -0.073 S 
ATOM      6  C   UNL     1      13.081   1.722  -0.134  0.00  0.00    +0.043 C 
ATOM      7  C   UNL     1      13.941   0.503   0.227  0.00  0.00    +0.005 C 
ATOM      8  C   UNL     1      13.507  -0.685  -0.634  0.00  0.00    +0.005 C 
ATOM      9  C   UNL     1      12.142  -1.195  -0.170  0.00  0.00    +0.037 C 
ENDROOT
BRANCH   2  10
ATOM     10  C   UNL     1       9.171  -1.530  -0.138  0.00  0.00    +0.247 C 
ATOM     11  O   UNL     1       8.899  -2.065  -1.195  0.00  0.00    -0.270 OA
ATOM     12  N   UNL     1       8.896  -2.156   1.024  0.00  0.00    -0.308 N 
ATOM     13  H   UNL     1       9.114  -1.729   1.868  0.00  0.00    +0.149 HD
BRANCH  12  14
ATOM     14  C   UNL     1       8.271  -3.480   1.013  0.00  0.00    +0.073 C 
ATOM     15  C   UNL     1       6.752  -3.326   0.907  0.00  0.00    +0.022 C 
ATOM     16  C   UNL     1       6.099  -4.710   0.895  0.00  0.00    +0.002 C 
ATOM     17  C   UNL     1       6.448  -5.450   2.189  0.00  0.00    +0.000 C 
ATOM     18  C   UNL     1       7.966  -5.604   2.294  0.00  0.00    +0.002 C 
ATOM     19  C   UNL     1       8.620  -4.220   2.306  0.00  0.00    +0.022 C 
ENDBRANCH  12  14
ENDBRANCH   2  10
BRANCH   1  21
ATOM     20  C   UNL     1       7.181   2.435  -0.063  0.00  0.00    +0.158 C 
ATOM     21  N   UNL     1       7.704   1.211  -0.081  0.00  0.00    -0.244 NA
BRANCH  20  25
ATOM     22  C   UNL     1       3.651   2.151  -0.022  0.00  0.00    +0.136 A 
ATOM     23  C   UNL     1       3.777   3.550  -0.010  0.00  0.00    +0.050 A 
ATOM     24  C   UNL     1       5.111   3.837  -0.024  0.00  0.00    +0.051 A 
ATOM     25  C   UNL     1       5.800   2.601  -0.044  0.00  0.00    +0.147 A 
ATOM     26  O   UNL     1       4.882   1.610  -0.036  0.00  0.00    -0.454 OA
BRANCH  22  29
ATOM     27  C   UNL     1      -0.017   1.382   0.010  0.00  0.00    +0.003 A 
ATOM     28  C   UNL     1       1.164   2.091   0.002  0.00  0.00    +0.012 A 
ATOM     29  C   UNL     1       2.389   1.405  -0.013  0.00  0.00    +0.019 A 
ATOM     30  C   UNL     1       2.397   0.001  -0.021  0.00  0.00    +0.044 A 
ATOM     31  C   UNL     1       1.207  -0.690  -0.013  0.00  0.00    +0.127 A 
ATOM     32  C   UNL     1       0.002  -0.004   0.002  0.00  0.00    +0.033 A 
BRANCH  31  33
ATOM     33  N   UNL     1       1.213  -2.170  -0.022  0.00  0.00    +0.056 N 
ATOM     34  O   UNL     1       2.356  -2.824  -0.037  0.00  0.00    -0.126 OA
ATOM     35  O   UNL     1       0.075  -2.833  -0.014  0.00  0.00    -0.126 OA
ENDBRANCH  31  33
ENDBRANCH  22  29
ENDBRANCH  20  25
ENDBRANCH   1  21
TORSDOF 6
