REMARK  Name = ZINC63314727
REMARK  9 active torsions:
REMARK  status: ('A' for Active; 'I' for Inactive)
REMARK    1  A    between atoms: C_1  and  O_2
REMARK    2  A    between atoms: O_2  and  C_3
REMARK    3  A    between atoms: C_6  and  C_9
REMARK    4  A    between atoms: N_17  and  C_18
REMARK    5  A    between atoms: C_18  and  C_19
REMARK    6  A    between atoms: C_19  and  C_20
REMARK    7  A    between atoms: C_23  and  O_29
REMARK    8  A    between atoms: O_29  and  C_30
REMARK    9  A    between atoms: C_33  and  C_34
REMARK                            x       y       z     vdW  Elec       q    Type
REMARK                         _______ _______ _______ _____ _____    ______ ____
ROOT
ATOM      1  C   UNL     1       2.505  -2.503  -4.381  0.00  0.00    +0.118 C 
ATOM      2  C   UNL     1       3.915  -2.978  -3.987  0.00  0.00    +0.098 C 
ATOM      3  C   UNL     1       3.671  -4.474  -3.625  0.00  0.00    +0.186 C 
ATOM      4  C   UNL     1       2.370  -4.814  -4.318  0.00  0.00    +0.239 C 
ATOM      5  O   UNL     1       1.945  -5.940  -4.473  0.00  0.00    -0.273 OA
ATOM      6  N   UNL     1       1.764  -3.708  -4.766  0.00  0.00    -0.292 N 
ATOM      7  N   UNL     1       4.788  -5.136  -4.330  0.00  0.00    -0.256 N 
ATOM      8  N   UNL     1       5.211  -4.283  -5.354  0.00  0.00    -0.187 NA
ATOM      9  C   UNL     1       4.800  -3.046  -5.210  0.00  0.00    +0.108 C 
ATOM     10  H   UNL     1       5.161  -6.007  -4.121  0.00  0.00    +0.169 HD
ENDROOT
BRANCH   1  14
ATOM     11  C   UNL     1       0.606  -0.607  -1.056  0.00  0.00    +0.120 A 
ATOM     12  C   UNL     1       1.173   0.161  -2.062  0.00  0.00    +0.046 A 
ATOM     13  C   UNL     1       1.786  -0.455  -3.136  0.00  0.00    +0.009 A 
ATOM     14  C   UNL     1       1.835  -1.835  -3.209  0.00  0.00    -0.026 A 
ATOM     15  C   UNL     1       1.270  -2.602  -2.207  0.00  0.00    +0.009 A 
ATOM     16  C   UNL     1       0.661  -1.992  -1.128  0.00  0.00    +0.046 A 
BRANCH  11  18
ATOM     17  C   UNL     1      -0.017   1.425   0.010  0.00  0.00    +0.277 C 
ATOM     18  O   UNL     1       0.002  -0.004   0.002  0.00  0.00    -0.495 OA
ENDBRANCH  11  18
ENDBRANCH   1  14
BRANCH   9  19
ATOM     19  C   UNL     1       5.127  -1.915  -6.084  0.00  0.00    +0.151 A 
ATOM     20  C   UNL     1       5.919  -1.962  -7.194  0.00  0.00    +0.051 A 
ATOM     21  C   UNL     1       5.958  -0.657  -7.720  0.00  0.00    +0.042 A 
ATOM     22  C   UNL     1       5.198   0.116  -6.919  0.00  0.00    +0.196 A 
ATOM     23  O   UNL     1       4.694  -0.647  -5.934  0.00  0.00    -0.462 OA
ENDBRANCH   9  19
BRANCH   6  24
ATOM     24  C   UNL     1       0.509  -3.699  -5.523  0.00  0.00    +0.113 C 
BRANCH  24  25
ATOM     25  C   UNL     1       0.817  -3.760  -7.021  0.00  0.00    +0.052 C 
BRANCH  25  26
ATOM     26  C   UNL     1      -0.473  -3.750  -7.800  0.00  0.00    -0.040 C 
ATOM     27  C   UNL     1      -1.087  -2.675  -8.342  0.00  0.00    +0.002 A 
ATOM     28  C   UNL     1      -0.754  -1.246  -8.369  0.00  0.00    +0.055 A 
ATOM     29  C   UNL     1      -1.579  -0.380  -9.005  0.00  0.00    +0.121 A 
ATOM     30  C   UNL     1      -2.757  -0.800  -9.647  0.00  0.00    +0.047 A 
ATOM     31  C   UNL     1      -3.148  -2.092  -9.675  0.00  0.00    +0.029 A 
ATOM     32  C   UNL     1      -2.329  -3.116  -9.019  0.00  0.00    +0.043 A 
ATOM     33  N   UNL     1      -2.476  -4.412  -8.900  0.00  0.00    -0.380 N 
ATOM     34  C   UNL     1      -1.340  -4.943  -8.138  0.00  0.00    +0.144 C 
ATOM     35  H   UNL     1      -3.211  -4.934  -9.258  0.00  0.00    +0.160 HD
BRANCH  29  36
ATOM     36  O   UNL     1      -1.258   0.940  -9.021  0.00  0.00    -0.495 OA
ATOM     37  C   UNL     1      -2.156   1.818  -9.703  0.00  0.00    +0.277 C 
ENDBRANCH  29  36
ENDBRANCH  25  26
ENDBRANCH  24  25
ENDBRANCH   6  24
TORSDOF 7
