REMARK  Name = ZINC35545481
REMARK  6 active torsions:
REMARK  status: ('A' for Active; 'I' for Inactive)
REMARK    1  A    between atoms: C_1  and  C_2
REMARK    2  A    between atoms: C_2  and  O_3
REMARK    3  A    between atoms: O_3  and  C_4
REMARK    4  A    between atoms: C_4  and  C_6
REMARK    5  A    between atoms: C_13  and  C_15
REMARK    6  A    between atoms: C_20  and  C_37
REMARK                            x       y       z     vdW  Elec       q    Type
REMARK                         _______ _______ _______ _____ _____    ______ ____
ROOT
ATOM      1  C   UNL     1       2.497  -5.760  -5.700  0.00  0.00    +0.101 C 
ATOM      2  C   UNL     1       2.899  -4.536  -6.522  0.00  0.00    +0.051 C 
ATOM      3  C   UNL     1       1.649  -3.853  -7.015  0.00  0.00    -0.025 A 
ATOM      4  C   UNL     1       1.658  -2.488  -7.236  0.00  0.00    +0.017 A 
ATOM      5  C   UNL     1       0.514  -1.851  -7.677  0.00  0.00    +0.055 A 
ATOM      6  C   UNL     1      -0.643  -2.578  -7.899  0.00  0.00    +0.014 A 
ATOM      7  C   UNL     1      -0.655  -3.941  -7.684  0.00  0.00    +0.024 A 
ATOM      8  C   UNL     1       0.498  -4.585  -7.244  0.00  0.00    +0.033 A 
ATOM      9  N   UNL     1       0.460  -5.978  -7.059  0.00  0.00    -0.323 N 
ATOM     10  C   UNL     1       1.615  -6.687  -6.542  0.00  0.00    +0.103 C 
ATOM     11  C   UNL     1       1.250  -7.897  -5.698  0.00  0.00    +0.129 C 
ATOM     12  N   UNL     1       0.031  -8.547  -6.136  0.00  0.00    -0.313 N 
ATOM     13  C   UNL     1      -1.143  -7.803  -6.560  0.00  0.00    +0.125 C 
ATOM     14  C   UNL     1      -0.770  -6.656  -7.467  0.00  0.00    +0.124 C 
ATOM     15  C   UNL     1      -0.017  -9.936  -6.151  0.00  0.00    +0.099 A 
ATOM     16  C   UNL     1      -1.128 -10.582  -6.685  0.00  0.00    +0.042 A 
ATOM     17  C   UNL     1      -1.163 -11.964  -6.694  0.00  0.00    +0.005 A 
ATOM     18  C   UNL     1      -0.081 -12.658  -6.166  0.00  0.00    +0.018 A 
ATOM     19  C   UNL     1       0.988 -11.953  -5.652  0.00  0.00    +0.084 A 
ATOM     20  N   UNL     1       0.997 -10.633  -5.662  0.00  0.00    -0.350 N 
ATOM     21  H   UNL     1       1.762 -10.162  -5.298  0.00  0.00    +0.166 HD
ENDROOT
BRANCH   1  28
ATOM     22  C   UNL     1       4.280  -5.685  -2.064  0.00  0.00    +0.115 C 
ATOM     23  C   UNL     1       3.631  -5.018  -0.849  0.00  0.00    +0.018 C 
ATOM     24  C   UNL     1       2.108  -5.093  -0.977  0.00  0.00    +0.020 C 
ATOM     25  C   UNL     1       1.667  -4.339  -2.236  0.00  0.00    +0.108 C 
ATOM     26  N   UNL     1       2.397  -4.880  -3.391  0.00  0.00    -0.300 N 
ATOM     27  C   UNL     1       3.864  -4.939  -3.336  0.00  0.00    +0.122 C 
ATOM     28  C   UNL     1       1.733  -5.314  -4.480  0.00  0.00    +0.221 C 
ATOM     29  O   UNL     1       0.521  -5.346  -4.479  0.00  0.00    -0.275 OA
BRANCH  22  30
ATOM     30  C   UNL     1       5.780  -5.640  -1.922  0.00  0.00    +0.312 C 
ATOM     31  O   UNL     1       6.448  -5.070  -2.752  0.00  0.00    -0.250 OA
BRANCH  30  32
ATOM     32  O   UNL     1       6.373  -6.232  -0.874  0.00  0.00    -0.465 OA
BRANCH  32  34
ATOM     33  C   UNL     1       8.289  -6.876   0.451  0.00  0.00    +0.048 C 
ATOM     34  C   UNL     1       7.798  -6.149  -0.802  0.00  0.00    +0.229 C 
ENDBRANCH  32  34
ENDBRANCH  30  32
ENDBRANCH  22  30
ENDBRANCH   1  28
BRANCH   5  35
ATOM     35  C   UNL     1       0.525  -0.364  -7.918  0.00  0.00    +0.417 C 
ATOM     36  F   UNL     1       0.897  -0.108  -9.242  0.00  0.00    -0.166 F 
ATOM     37  F   UNL     1      -0.752   0.157  -7.683  0.00  0.00    -0.166 F 
ATOM     38  F   UNL     1       1.442   0.241  -7.051  0.00  0.00    -0.166 F 
ENDBRANCH   5  35
TORSDOF 5
