REMARK  Name = ZINC02742089
REMARK  7 active torsions:
REMARK  status: ('A' for Active; 'I' for Inactive)
REMARK    1  A    between atoms: C_1  and  C_2
REMARK    2  A    between atoms: C_2  and  C_3
REMARK    3  A    between atoms: C_3  and  C_4
REMARK    4  A    between atoms: C_4  and  C_5
REMARK    5  A    between atoms: C_5  and  S_6
REMARK    6  A    between atoms: S_6  and  C_7
REMARK    7  A    between atoms: C_20  and  C_23
REMARK                            x       y       z     vdW  Elec       q    Type
REMARK                         _______ _______ _______ _____ _____    ______ ____
ROOT
ATOM      1  C   UNL     1      -3.857   0.278   2.105  0.00  0.00    +0.212 A 
ATOM      2  N   UNL     1      -2.530   0.342   2.040  0.00  0.00    -0.184 NA
ATOM      3  C   UNL     1      -1.963   1.310   1.342  0.00  0.00    +0.248 A 
ATOM      4  C   UNL     1      -2.790   2.245   0.680  0.00  0.00    +0.156 A 
ATOM      5  N   UNL     1      -4.105   2.127   0.787  0.00  0.00    -0.141 NA
ATOM      6  N   UNL     1      -4.617   1.170   1.481  0.00  0.00    -0.122 NA
ATOM      7  C   UNL     1      -2.176   3.326  -0.119  0.00  0.00    +0.028 A 
ATOM      8  C   UNL     1      -2.583   4.648   0.012  0.00  0.00    +0.012 A 
ATOM      9  C   UNL     1      -1.993   5.628  -0.762  0.00  0.00    +0.001 A 
ATOM     10  C   UNL     1      -1.000   5.300  -1.669  0.00  0.00    +0.002 A 
ATOM     11  C   UNL     1      -0.582   3.989  -1.806  0.00  0.00    +0.024 A 
ATOM     12  C   UNL     1      -1.157   2.999  -1.033  0.00  0.00    +0.039 A 
ATOM     13  N   UNL     1      -0.736   1.668  -1.118  0.00  0.00    -0.305 N 
ATOM     14  C   UNL     1      -0.013   1.086   0.008  0.00  0.00    +0.295 C 
ATOM     15  O   UNL     1      -0.616   1.421   1.253  0.00  0.00    -0.449 OA
ATOM     16  H   UNL     1      -0.920   1.143  -1.912  0.00  0.00    +0.150 HD
ENDROOT
BRANCH  14  17
ATOM     17  C   UNL     1       1.405   1.596  -0.003  0.00  0.00    +0.027 A 
ATOM     18  C   UNL     1       2.427   0.816  -0.542  0.00  0.00    -0.009 A 
ATOM     19  C   UNL     1       2.159  -0.454  -1.096  0.00  0.00    +0.009 A 
ATOM     20  C   UNL     1       3.177  -1.186  -1.618  0.00  0.00    +0.001 A 
ATOM     21  C   UNL     1       4.490  -0.713  -1.628  0.00  0.00    +0.001 A 
ATOM     22  C   UNL     1       4.815   0.501  -1.116  0.00  0.00    +0.008 A 
ATOM     23  C   UNL     1       3.806   1.315  -0.557  0.00  0.00    -0.017 A 
ATOM     24  C   UNL     1       4.105   2.567  -0.024  0.00  0.00    +0.017 A 
ATOM     25  C   UNL     1       3.084   3.344   0.521  0.00  0.00    -0.017 A 
ATOM     26  C   UNL     1       1.704   2.848   0.531  0.00  0.00    -0.009 A 
ATOM     27  C   UNL     1       0.696   3.662   1.090  0.00  0.00    +0.009 A 
ATOM     28  C   UNL     1       1.022   4.877   1.601  0.00  0.00    +0.001 A 
ATOM     29  C   UNL     1       2.335   5.348   1.591  0.00  0.00    +0.001 A 
ATOM     30  C   UNL     1       3.352   4.617   1.069  0.00  0.00    +0.008 A 
ENDBRANCH  14  17
BRANCH   1  31
ATOM     31  S   UNL     1      -4.620  -1.010   3.034  0.00  0.00    -0.084 S 
BRANCH  31  32
ATOM     32  C   UNL     1      -6.363  -0.601   2.768  0.00  0.00    +0.077 C 
BRANCH  32  33
ATOM     33  C   UNL     1      -7.242  -1.614   3.503  0.00  0.00    +0.011 C 
BRANCH  33  34
ATOM     34  C   UNL     1      -8.716  -1.268   3.278  0.00  0.00    +0.001 C 
BRANCH  34  36
ATOM     35  C   UNL     1     -11.069  -1.936   3.789  0.00  0.00    +0.004 C 
ATOM     36  C   UNL     1      -9.595  -2.282   4.013  0.00  0.00    -0.003 C 
ENDBRANCH  34  36
ENDBRANCH  33  34
ENDBRANCH  32  33
ENDBRANCH  31  32
ENDBRANCH   1  31
TORSDOF 6
