REMARK  Name = ZINC02377170
REMARK  13 active torsions:
REMARK  status: ('A' for Active; 'I' for Inactive)
REMARK    1  A    between atoms: C_1  and  C_2
REMARK    2  A    between atoms: C_2  and  O_3
REMARK    3  A    between atoms: O_3  and  C_4
REMARK    4  A    between atoms: C_6  and  C_19
REMARK    5  A    between atoms: C_9  and  O_10
REMARK    6  A    between atoms: O_10  and  C_11
REMARK    7  A    between atoms: C_11  and  C_12
REMARK    8  A    between atoms: C_15  and  C_18
REMARK    9  A    between atoms: N_34  and  C_35
REMARK   10  A    between atoms: C_35  and  C_36
REMARK   11  A    between atoms: C_36  and  N_70
REMARK   12  A    between atoms: C_37  and  N_70
REMARK   13  A    between atoms: C_38  and  N_70
REMARK                            x       y       z     vdW  Elec       q    Type
REMARK                         _______ _______ _______ _____ _____    ______ ____
ROOT
ATOM      1  C   UNL     1      -5.188   3.354   0.046  0.00  0.00    +0.145 C 
ATOM      2  C   UNL     1      -3.717   3.028   0.037  0.00  0.00    +0.072 A 
ATOM      3  C   UNL     1      -2.515   3.866   0.046  0.00  0.00    +0.199 A 
ATOM      4  O   UNL     1      -2.582   5.082   0.053  0.00  0.00    -0.287 OA
ATOM      5  C   UNL     1      -1.217   3.162   0.030  0.00  0.00    +0.064 A 
ATOM      6  C   UNL     1      -0.011   3.860   0.022  0.00  0.00    +0.015 A 
ATOM      7  C   UNL     1       1.170   3.170   0.007  0.00  0.00    +0.001 A 
ATOM      8  C   UNL     1       1.170   1.782   0.001  0.00  0.00    +0.004 A 
ATOM      9  C   UNL     1      -0.013   1.076   0.008  0.00  0.00    +0.047 A 
ATOM     10  C   UNL     1      -1.227   1.757   0.017  0.00  0.00    +0.139 A 
ATOM     11  O   UNL     1      -2.391   1.082   0.020  0.00  0.00    -0.450 OA
ATOM     12  C   UNL     1      -3.599   1.678   0.029  0.00  0.00    +0.199 A 
ATOM     13  C   UNL     1      -4.962   1.090   0.033  0.00  0.00    +0.283 C 
ATOM     14  O   UNL     1      -5.206  -0.100   0.028  0.00  0.00    -0.267 OA
ATOM     15  N   UNL     1      -5.889   2.064   0.043  0.00  0.00    -0.285 N 
ENDROOT
BRANCH   1  18
ATOM     16  C   UNL     1      -6.056   6.245  -2.227  0.00  0.00    +0.162 A 
ATOM     17  C   UNL     1      -5.726   5.515  -1.096  0.00  0.00    +0.055 A 
ATOM     18  C   UNL     1      -5.552   4.146  -1.183  0.00  0.00    -0.019 A 
ATOM     19  C   UNL     1      -5.717   3.501  -2.395  0.00  0.00    +0.009 A 
ATOM     20  C   UNL     1      -6.052   4.222  -3.526  0.00  0.00    +0.050 A 
ATOM     21  C   UNL     1      -6.222   5.595  -3.446  0.00  0.00    +0.162 A 
BRANCH  16  22
ATOM     22  O   UNL     1      -6.222   7.592  -2.144  0.00  0.00    -0.489 OA
BRANCH  22  24
ATOM     23  C   UNL     1      -6.262   9.700  -0.963  0.00  0.00    +0.048 C 
ATOM     24  C   UNL     1      -6.035   8.191  -0.860  0.00  0.00    +0.226 C 
ENDBRANCH  22  24
ENDBRANCH  16  22
BRANCH  21  25
ATOM     25  O   UNL     1      -6.551   6.306  -4.558  0.00  0.00    -0.484 OA
BRANCH  25  26
ATOM     26  C   UNL     1      -6.706   5.574  -5.775  0.00  0.00    +0.264 C 
BRANCH  26  27
ATOM     27  C   UNL     1      -7.067   6.521  -6.889  0.00  0.00    -0.010 A 
ATOM     28  C   UNL     1      -8.395   6.793  -7.162  0.00  0.00    +0.007 A 
ATOM     29  C   UNL     1      -8.727   7.666  -8.181  0.00  0.00    +0.004 A 
ATOM     30  C   UNL     1      -7.731   8.259  -8.934  0.00  0.00    -0.050 A 
ATOM     31  C   UNL     1      -6.403   7.983  -8.665  0.00  0.00    +0.004 A 
ATOM     32  C   UNL     1      -6.072   7.114  -7.643  0.00  0.00    +0.007 A 
ATOM     33  C   UNL     1      -8.093   9.207 -10.049  0.00  0.00    +0.044 C 
ENDBRANCH  26  27
ENDBRANCH  25  26
ENDBRANCH  21  25
ENDBRANCH   1  18
BRANCH  15  34
ATOM     34  C   UNL     1      -7.341   1.872   0.050  0.00  0.00    +0.090 C 
BRANCH  34  35
ATOM     35  C   UNL     1      -7.855   1.814  -1.390  0.00  0.00    -0.060 C 
BRANCH  35  38
ATOM     36  C   UNL     1      -9.872   1.796  -2.729  0.00  0.00    -0.097 C 
ATOM     37  C   UNL     1      -9.666   0.306  -0.831  0.00  0.00    -0.097 C 
ATOM     38  N   UNL     1      -9.323   1.641  -1.365  0.00  0.00    +0.377 N 
ATOM     39  H   UNL     1      -9.733   2.359  -0.757  0.00  0.00    -0.083 HD
ENDBRANCH  35  38
ENDBRANCH  34  35
ENDBRANCH  15  34
TORSDOF 9
