REMARK  Name = ZINC03344688
REMARK  10 active torsions:
REMARK  status: ('A' for Active; 'I' for Inactive)
REMARK    1  A    between atoms: C_1  and  C_2
REMARK    2  A    between atoms: C_2  and  O_3
REMARK    3  A    between atoms: O_3  and  C_4
REMARK    4  A    between atoms: C_4  and  C_6
REMARK    5  A    between atoms: C_10  and  N_11
REMARK    6  A    between atoms: C_12  and  C_14
REMARK    7  A    between atoms: C_14  and  C_16
REMARK    8  A    between atoms: C_14  and  S_17
REMARK    9  A    between atoms: S_17  and  C_18
REMARK   10  A    between atoms: C_21  and  C_23
REMARK                            x       y       z     vdW  Elec       q    Type
REMARK                         _______ _______ _______ _____ _____    ______ ____
ROOT
ATOM      1  N   UNL     1      -7.348  -4.596   0.595  0.00  0.00    -0.278 N 
ATOM      2  C   UNL     1      -6.077  -4.703   0.160  0.00  0.00    +0.231 C 
ATOM      3  O   UNL     1      -5.625  -5.790  -0.130  0.00  0.00    -0.274 OA
ATOM      4  H   UNL     1      -7.710  -3.727   0.827  0.00  0.00    +0.155 HD
ENDROOT
BRANCH   1   9
ATOM      5  C   UNL     1      -9.456  -5.822   1.140  0.00  0.00    +0.091 A 
ATOM      6  C   UNL     1     -10.062  -7.143   1.164  0.00  0.00    -0.021 A 
ATOM      7  C   UNL     1      -9.258  -8.153   0.768  0.00  0.00    -0.004 A 
ATOM      8  S   UNL     1      -7.721  -7.374   0.360  0.00  0.00    -0.077 S 
ATOM      9  C   UNL     1      -8.139  -5.729   0.710  0.00  0.00    +0.086 A 
ATOM     10  C   UNL     1      -9.603  -9.608   0.696  0.00  0.00    +0.043 C 
ATOM     11  C   UNL     1     -10.894  -9.839   1.495  0.00  0.00    +0.005 C 
ATOM     12  C   UNL     1     -11.924  -8.783   1.083  0.00  0.00    +0.005 C 
ATOM     13  C   UNL     1     -11.497  -7.409   1.603  0.00  0.00    +0.037 C 
BRANCH   5  14
ATOM     14  C   UNL     1     -10.207  -4.634   1.550  0.00  0.00    +0.342 C 
ATOM     15  O   UNL     1     -10.852  -4.009   0.729  0.00  0.00    -0.245 OA
BRANCH  14  16
ATOM     16  O   UNL     1     -10.184  -4.232   2.837  0.00  0.00    -0.461 OA
BRANCH  16  18
ATOM     17  C   UNL     1     -10.805  -2.747   4.664  0.00  0.00    +0.048 C 
ATOM     18  C   UNL     1     -10.952  -3.046   3.171  0.00  0.00    +0.229 C 
ENDBRANCH  16  18
ENDBRANCH  14  16
ENDBRANCH   5  14
ENDBRANCH   1   9
BRANCH   2  19
ATOM     19  C   UNL     1      -5.218  -3.471   0.035  0.00  0.00    +0.139 C 
ATOM     20  C   UNL     1      -5.560  -2.741  -1.265  0.00  0.00    +0.029 C 
BRANCH  19  21
ATOM     21  S   UNL     1      -3.473  -3.953   0.015  0.00  0.00    -0.053 S 
BRANCH  21  22
ATOM     22  C   UNL     1      -2.717  -2.361   0.016  0.00  0.00    +0.278 A 
ATOM     23  N   UNL     1      -3.339  -1.206   0.028  0.00  0.00    -0.101 NA
ATOM     24  N   UNL     1      -2.474  -0.253   0.025  0.00  0.00    -0.106 NA
ATOM     25  C   UNL     1      -1.266  -0.762   0.011  0.00  0.00    +0.249 A 
ATOM     26  O   UNL     1      -1.394  -2.107  -0.001  0.00  0.00    -0.411 OA
BRANCH  25  27
ATOM     27  C   UNL     1       0.002  -0.004   0.002  0.00  0.00    +0.042 A 
ATOM     28  C   UNL     1       1.223  -0.682  -0.013  0.00  0.00    +0.017 A 
ATOM     29  C   UNL     1       2.405   0.027  -0.021  0.00  0.00    +0.050 A 
ATOM     30  C   UNL     1       2.388   1.415  -0.014  0.00  0.00    +0.166 A 
ATOM     31  C   UNL     1       1.172   2.098   0.002  0.00  0.00    +0.167 A 
ATOM     32  C   UNL     1      -0.017   1.392   0.010  0.00  0.00    +0.062 A 
ATOM     33  O   UNL     1       1.426   3.439   0.006  0.00  0.00    -0.453 OA
ATOM     34  C   UNL     1       2.803   3.568   0.406  0.00  0.00    +0.466 C 
ATOM     35  O   UNL     1       3.401   2.329  -0.019  0.00  0.00    -0.453 OA
ENDBRANCH  25  27
ENDBRANCH  21  22
ENDBRANCH  19  21
ENDBRANCH   2  19
TORSDOF 8
