REMARK  Name = ZINC02854660
REMARK  6 active torsions:
REMARK  status: ('A' for Active; 'I' for Inactive)
REMARK    1  A    between atoms: C_1  and  C_2
REMARK    2  A    between atoms: C_6  and  O_8
REMARK    3  A    between atoms: O_8  and  C_9
REMARK    4  A    between atoms: C_9  and  C_10
REMARK    5  A    between atoms: C_10  and  C_12
REMARK    6  A    between atoms: C_15  and  N_18
REMARK                            x       y       z     vdW  Elec       q    Type
REMARK                         _______ _______ _______ _____ _____    ______ ____
ROOT
ATOM      1  C   UNL     1       7.183  -4.773  -0.164  0.00  0.00    +0.044 C 
ATOM      2  C   UNL     1       5.805  -5.382  -0.137  0.00  0.00    -0.043 A 
ATOM      3  C   UNL     1       5.666  -6.756  -0.142  0.00  0.00    +0.050 A 
ATOM      4  C   UNL     1       4.401  -7.326  -0.118  0.00  0.00    +0.143 A 
ATOM      5  C   UNL     1       3.268  -6.497  -0.083  0.00  0.00    +0.063 A 
ATOM      6  C   UNL     1       3.421  -5.102  -0.085  0.00  0.00    +0.132 A 
ATOM      7  C   UNL     1       4.693  -4.558  -0.109  0.00  0.00    +0.050 A 
ATOM      8  C   UNL     1       1.932  -7.106  -0.063  0.00  0.00    -0.023 A 
ATOM      9  C   UNL     1       1.844  -8.454  -0.075  0.00  0.00    +0.041 A 
ATOM     10  C   UNL     1       3.030  -9.228  -0.101  0.00  0.00    +0.341 A 
ATOM     11  O   UNL     1       2.941 -10.443  -0.104  0.00  0.00    -0.245 OA
ATOM     12  O   UNL     1       4.247  -8.668  -0.121  0.00  0.00    -0.422 OA
ATOM     13  C   UNL     1       0.525  -9.182  -0.071  0.00  0.00    +0.042 C 
ATOM     14  C   UNL     1      -0.599  -8.257   0.392  0.00  0.00    +0.005 C 
ATOM     15  C   UNL     1      -0.530  -6.965  -0.431  0.00  0.00    +0.005 C 
ATOM     16  C   UNL     1       0.731  -6.204  -0.023  0.00  0.00    +0.036 C 
ENDROOT
BRANCH   6  17
ATOM     17  O   UNL     1       2.331  -4.294  -0.057  0.00  0.00    -0.483 OA
BRANCH  17  18
ATOM     18  C   UNL     1       2.568  -2.884  -0.054  0.00  0.00    +0.308 C 
BRANCH  18  19
ATOM     19  C   UNL     1       1.251  -2.153  -0.022  0.00  0.00    +0.200 C 
ATOM     20  O   UNL     1       0.211  -2.778  -0.003  0.00  0.00    -0.288 OA
BRANCH  19  21
ATOM     21  C   UNL     1       1.226  -0.686  -0.013  0.00  0.00    +0.021 A 
ATOM     22  C   UNL     1       0.002  -0.004   0.017  0.00  0.00    +0.013 A 
ATOM     23  C   UNL     1      -0.016   1.361   0.024  0.00  0.00    +0.024 A 
ATOM     24  C   UNL     1       1.179   2.076   0.002  0.00  0.00    +0.030 A 
ATOM     25  C   UNL     1       2.398   1.402  -0.028  0.00  0.00    +0.024 A 
ATOM     26  C   UNL     1       2.426   0.037  -0.035  0.00  0.00    +0.013 A 
BRANCH  24  27
ATOM     27  N   UNL     1       1.156   3.465   0.009  0.00  0.00    -0.330 N 
ATOM     28  C   UNL     1       1.801   4.002   1.235  0.00  0.00    +0.105 C 
ATOM     29  C   UNL     1       2.154   5.458   0.841  0.00  0.00    +0.020 C 
ATOM     30  C   UNL     1       2.579   5.322  -0.640  0.00  0.00    +0.020 C 
ATOM     31  C   UNL     1       1.928   4.014  -1.126  0.00  0.00    +0.105 C 
ENDBRANCH  24  27
ENDBRANCH  19  21
ENDBRANCH  18  19
ENDBRANCH  17  18
ENDBRANCH   6  17
TORSDOF 5
