REMARK  Name = ZINC67121544
REMARK  8 active torsions:
REMARK  status: ('A' for Active; 'I' for Inactive)
REMARK    1  A    between atoms: C_1  and  C_2
REMARK    2  A    between atoms: C_2  and  C_4
REMARK    3  A    between atoms: C_2  and  N_16
REMARK    4  A    between atoms: C_6  and  C_9
REMARK    5  A    between atoms: N_16  and  C_17
REMARK    6  A    between atoms: C_17  and  C_18
REMARK    7  A    between atoms: C_21  and  O_25
REMARK    8  A    between atoms: O_25  and  C_26
REMARK                            x       y       z     vdW  Elec       q    Type
REMARK                         _______ _______ _______ _____ _____    ______ ____
ROOT
ATOM      1  N   UNL     1       0.713  -0.491   1.192  0.00  0.00    +0.389 N 
ATOM      2  H   UNL     1       0.290  -0.099   2.020  0.00  0.00    -0.084 HD
ATOM      3  H   UNL     1       0.655  -1.497   1.230  0.00  0.00    -0.084 HD
ENDROOT
BRANCH   1   5
ATOM      4  C   UNL     1      -0.019   1.526   0.010  0.00  0.00    -0.004 C 
ATOM      5  C   UNL     1       0.002  -0.004   0.002  0.00  0.00    +0.016 C 
BRANCH   5   6
ATOM      6  C   UNL     1      -1.412  -0.526   0.013  0.00  0.00    +0.213 A 
ATOM      7  N   UNL     1      -2.039  -1.045  -1.004  0.00  0.00    -0.193 NA
ATOM      8  C   UNL     1      -3.284  -1.405  -0.642  0.00  0.00    +0.202 A 
ATOM      9  N   UNL     1      -3.453  -1.111   0.624  0.00  0.00    -0.056 NA
ATOM     10  O   UNL     1      -2.233  -0.539   1.071  0.00  0.00    -0.339 OA
BRANCH   8  11
ATOM     11  C   UNL     1      -4.296  -2.030  -1.528  0.00  0.00    +0.023 A 
ATOM     12  C   UNL     1      -3.988  -2.298  -2.861  0.00  0.00    +0.014 A 
ATOM     13  C   UNL     1      -4.932  -2.880  -3.682  0.00  0.00    +0.039 A 
ATOM     14  C   UNL     1      -6.185  -3.199  -3.183  0.00  0.00    +0.123 A 
ATOM     15  C   UNL     1      -6.495  -2.934  -1.858  0.00  0.00    +0.039 A 
ATOM     16  C   UNL     1      -5.555  -2.357  -1.029  0.00  0.00    +0.014 A 
ATOM     17  F   UNL     1      -7.106  -3.769  -3.989  0.00  0.00    -0.205 F 
ENDBRANCH   8  11
ENDBRANCH   5   6
ENDBRANCH   1   5
BRANCH   1  18
ATOM     18  C   UNL     1       2.122  -0.083   1.122  0.00  0.00    -0.046 C 
BRANCH  18  19
ATOM     19  C   UNL     1       2.851  -0.582   2.343  0.00  0.00    -0.063 A 
ATOM     20  C   UNL     1       2.914   0.204   3.479  0.00  0.00    +0.005 A 
ATOM     21  C   UNL     1       3.582  -0.250   4.599  0.00  0.00    +0.047 A 
ATOM     22  C   UNL     1       4.189  -1.497   4.585  0.00  0.00    +0.145 A 
ATOM     23  C   UNL     1       4.125  -2.285   3.444  0.00  0.00    +0.083 A 
ATOM     24  C   UNL     1       3.450  -1.827   2.327  0.00  0.00    +0.025 A 
ATOM     25 CL   UNL     1       4.884  -3.846   3.422  0.00  0.00    -0.080 Cl
BRANCH  22  26
ATOM     26  O   UNL     1       4.847  -1.946   5.686  0.00  0.00    -0.433 OA
BRANCH  26  27
ATOM     27  C   UNL     1       4.874  -1.082   6.824  0.00  0.00    +0.541 C 
ATOM     28  F   UNL     1       5.496   0.123   6.480  0.00  0.00    -0.166 F 
ATOM     29  F   UNL     1       3.564  -0.827   7.246  0.00  0.00    -0.166 F 
ENDBRANCH  26  27
ENDBRANCH  22  26
ENDBRANCH  18  19
ENDBRANCH   1  18
TORSDOF 7
