REMARK  Name = ZINC15672784
REMARK  12 active torsions:
REMARK  status: ('A' for Active; 'I' for Inactive)
REMARK    1  A    between atoms: C_1  and  C_2
REMARK    2  A    between atoms: C_2  and  C_3
REMARK    3  A    between atoms: C_2  and  C_4
REMARK    4  A    between atoms: C_2  and  C_5
REMARK    5  A    between atoms: C_8  and  C_11
REMARK    6  A    between atoms: C_13  and  C_16
REMARK    7  A    between atoms: C_16  and  C_17
REMARK    8  A    between atoms: C_22  and  C_24
REMARK    9  A    between atoms: C_24  and  C_25
REMARK   10  A    between atoms: C_30  and  C_33
REMARK   11  A    between atoms: C_33  and  O_35
REMARK   12  A    between atoms: O_35  and  C_36
REMARK                            x       y       z     vdW  Elec       q    Type
REMARK                         _______ _______ _______ _____ _____    ______ ____
ROOT
ATOM      1  C   UNL     1      -0.537   4.047   5.505  0.00  0.00    -0.019 C 
ATOM      2  C   UNL     1       0.458   4.723   6.451  0.00  0.00    -0.079 C 
ATOM      3  C   UNL     1       2.214   3.188   5.794  0.00  0.00    -0.082 C 
ATOM      4  C   UNL     1       1.272   2.465   4.830  0.00  0.00    -0.015 C 
ATOM      5  C   UNL     1       0.220   3.451   4.315  0.00  0.00    -0.002 C 
ATOM      6  N   UNL     1       1.444   3.734   6.927  0.00  0.00    +0.379 N 
ATOM      7  H   UNL     1       0.952   2.968   7.402  0.00  0.00    -0.086 HD
ATOM      8  H   UNL     1       2.087   4.188   7.586  0.00  0.00    -0.086 HD
ENDROOT
BRANCH   1   9
ATOM      9  C   UNL     1      -1.273   2.932   6.252  0.00  0.00    +0.061 C 
BRANCH   9  12
ATOM     10  C   UNL     1      -3.777   4.096   8.655  0.00  0.00    +0.167 A 
ATOM     11  C   UNL     1      -3.501   3.351   7.541  0.00  0.00    +0.076 A 
ATOM     12  C   UNL     1      -2.116   3.533   7.347  0.00  0.00    +0.084 A 
ATOM     13  N   UNL     1      -1.706   4.316   8.304  0.00  0.00    -0.083 NA
ATOM     14  O   UNL     1      -2.610   4.645   9.036  0.00  0.00    -0.354 OA
BRANCH  10  18
ATOM     15  C   UNL     1      -7.558   4.578  10.529  0.00  0.00    -0.042 A 
ATOM     16  C   UNL     1      -6.445   5.215  11.049  0.00  0.00    +0.005 A 
ATOM     17  C   UNL     1      -5.214   5.063  10.445  0.00  0.00    +0.012 A 
ATOM     18  C   UNL     1      -5.093   4.264   9.307  0.00  0.00    +0.020 A 
ATOM     19  C   UNL     1      -6.220   3.628   8.785  0.00  0.00    +0.012 A 
ATOM     20  C   UNL     1      -7.444   3.785   9.401  0.00  0.00    +0.005 A 
BRANCH  15  22
ATOM     21  C   UNL     1      -9.284   6.231  11.191  0.00  0.00    +0.015 C 
ATOM     22  C   UNL     1      -8.899   4.750  11.194  0.00  0.00    -0.013 C 
ATOM     23  C   UNL     1      -9.954   3.948  10.428  0.00  0.00    +0.015 C 
ATOM     24  C   UNL     1      -8.822   4.245  12.636  0.00  0.00    +0.015 C 
ENDBRANCH  15  22
ENDBRANCH  10  18
ENDBRANCH   9  12
ENDBRANCH   1   9
BRANCH   5  25
ATOM     25  C   UNL     1      -0.762   2.720   3.398  0.00  0.00    +0.099 C 
BRANCH  25  26
ATOM     26  C   UNL     1      -0.037   2.238   2.168  0.00  0.00    +0.216 C 
ATOM     27  O   UNL     1       1.149   2.457   2.038  0.00  0.00    -0.276 OA
ATOM     28  N   UNL     1      -0.706   1.562   1.213  0.00  0.00    -0.301 N 
ATOM     29  C   UNL     1      -0.013   1.086   0.008  0.00  0.00    +0.108 C 
ATOM     30  C   UNL     1      -0.759   1.596  -1.228  0.00  0.00    +0.033 C 
ATOM     31  C   UNL     1      -2.228   1.174  -1.143  0.00  0.00    +0.101 C 
ATOM     32  C   UNL     1      -2.868   1.797   0.099  0.00  0.00    +0.033 C 
ATOM     33  C   UNL     1      -2.146   1.289   1.351  0.00  0.00    +0.108 C 
BRANCH  31  34
ATOM     34  C   UNL     1      -2.958   1.645  -2.375  0.00  0.00    +0.310 C 
ATOM     35  O   UNL     1      -2.365   2.255  -3.232  0.00  0.00    -0.251 OA
BRANCH  34  36
ATOM     36  O   UNL     1      -4.267   1.386  -2.519  0.00  0.00    -0.468 OA
ATOM     37  C   UNL     1      -4.905   1.869  -3.730  0.00  0.00    +0.280 C 
ENDBRANCH  34  36
ENDBRANCH  31  34
ENDBRANCH  25  26
ENDBRANCH   5  25
TORSDOF 8
