REMARK  Name = ZINC17189937
REMARK  7 active torsions:
REMARK  status: ('A' for Active; 'I' for Inactive)
REMARK    1  A    between atoms: C_4  and  C_7
REMARK    2  A    between atoms: C_7  and  N_8
REMARK    3  A    between atoms: C_14  and  S_15
REMARK    4  A    between atoms: S_15  and  C_16
REMARK    5  A    between atoms: C_16  and  C_17
REMARK    6  A    between atoms: N_19  and  C_20
REMARK    7  A    between atoms: C_23  and  N_26
REMARK                            x       y       z     vdW  Elec       q    Type
REMARK                         _______ _______ _______ _____ _____    ______ ____
ROOT
ATOM      1  N   UNL     1      -0.217   1.199  -4.027  0.00  0.00    -0.282 N 
ATOM      2  C   UNL     1       0.562   0.668  -4.996  0.00  0.00    +0.269 A 
ATOM      3  O   UNL     1       0.300   0.846  -6.175  0.00  0.00    -0.266 OA
ATOM      4  C   UNL     1       1.675  -0.096  -4.618  0.00  0.00    +0.094 A 
ATOM      5  C   UNL     1       1.971  -0.316  -3.288  0.00  0.00    +0.063 A 
ATOM      6  N   UNL     1       1.152   0.256  -2.380  0.00  0.00    -0.227 NA
ATOM      7  C   UNL     1       0.115   0.979  -2.723  0.00  0.00    +0.173 A 
ATOM      8  C   UNL     1       3.168  -1.188  -2.999  0.00  0.00    +0.068 C 
ATOM      9  C   UNL     1       4.126  -1.264  -4.211  0.00  0.00    +0.081 C 
ATOM     10  S   UNL     1       2.925  -0.933  -5.566  0.00  0.00    -0.118 S 
ENDROOT
BRANCH   1  11
ATOM     11  C   UNL     1      -1.393   2.001  -4.371  0.00  0.00    +0.162 C 
BRANCH  11  15
ATOM     12  C   UNL     1      -0.265   6.106  -4.723  0.00  0.00    +0.000 A 
ATOM     13  C   UNL     1      -0.218   5.279  -5.830  0.00  0.00    +0.000 A 
ATOM     14  C   UNL     1      -0.583   3.950  -5.716  0.00  0.00    +0.005 A 
ATOM     15  C   UNL     1      -0.995   3.449  -4.495  0.00  0.00    -0.028 A 
ATOM     16  C   UNL     1      -1.048   4.277  -3.390  0.00  0.00    +0.005 A 
ATOM     17  C   UNL     1      -0.678   5.605  -3.503  0.00  0.00    +0.000 A 
ENDBRANCH  11  15
ENDBRANCH   1  11
BRANCH   7  18
ATOM     18  S   UNL     1      -0.889   1.683  -1.458  0.00  0.00    -0.078 S 
BRANCH  18  19
ATOM     19  C   UNL     1      -0.016   1.080   0.008  0.00  0.00    +0.173 C 
BRANCH  19  20
ATOM     20  C   UNL     1      -0.717   1.573   1.248  0.00  0.00    +0.227 C 
ATOM     21  O   UNL     1      -1.709   2.264   1.150  0.00  0.00    -0.275 OA
ATOM     22  N   UNL     1      -0.242   1.246   2.466  0.00  0.00    -0.285 N 
ATOM     23  H   UNL     1       0.511   0.639   2.546  0.00  0.00    +0.155 HD
BRANCH  22  24
ATOM     24  C   UNL     1      -0.833   1.782   3.615  0.00  0.00    +0.034 A 
ATOM     25  C   UNL     1      -0.052   2.086   4.722  0.00  0.00    +0.025 A 
ATOM     26  C   UNL     1      -0.639   2.620   5.853  0.00  0.00    +0.034 A 
ATOM     27  C   UNL     1      -2.003   2.842   5.887  0.00  0.00    +0.126 A 
ATOM     28  C   UNL     1      -2.784   2.535   4.788  0.00  0.00    +0.034 A 
ATOM     29  C   UNL     1      -2.203   2.006   3.652  0.00  0.00    +0.025 A 
BRANCH  27  30
ATOM     30  N   UNL     1      -2.629   3.409   7.103  0.00  0.00    +0.056 N 
ATOM     31  O   UNL     1      -3.831   3.604   7.134  0.00  0.00    -0.126 OA
ATOM     32  O   UNL     1      -1.943   3.680   8.072  0.00  0.00    -0.126 OA
ENDBRANCH  27  30
ENDBRANCH  22  24
ENDBRANCH  19  20
ENDBRANCH  18  19
ENDBRANCH   7  18
TORSDOF 7
