REMARK  Name = ZINC00115235
REMARK  5 active torsions:
REMARK  status: ('A' for Active; 'I' for Inactive)
REMARK    1  A    between atoms: C_1  and  C_2
REMARK    2  A    between atoms: C_2  and  C_4
REMARK    3  A    between atoms: C_2  and  C_10
REMARK    4  A    between atoms: C_12  and  C_23
REMARK    5  A    between atoms: C_13  and  N_22
REMARK                            x       y       z     vdW  Elec       q    Type
REMARK                         _______ _______ _______ _____ _____    ______ ____
ROOT
ATOM      1  C   UNL     1       0.742  -0.511   1.242  0.00  0.00    +0.078 C 
ATOM      2  C   UNL     1       0.768  -2.013   1.226  0.00  0.00    +0.094 C 
ATOM      3  C   UNL     1      -0.079  -2.724   2.011  0.00  0.00    +0.198 C 
ATOM      4  O   UNL     1      -0.959  -2.108   2.818  0.00  0.00    -0.445 OA
ATOM      5  C   UNL     1      -0.756  -0.830   3.193  0.00  0.00    +0.114 C 
ATOM      6  C   UNL     1       0.038  -0.016   2.481  0.00  0.00    +0.042 C 
ATOM      7  C   UNL     1       0.237   1.324   2.868  0.00  0.00    +0.163 C 
ATOM      8  O   UNL     1       0.974   2.031   2.209  0.00  0.00    -0.292 OA
ATOM      9  C   UNL     1      -0.446   1.895   4.080  0.00  0.00    +0.080 C 
ATOM     10  C   UNL     1      -1.762   1.144   4.308  0.00  0.00    +0.016 C 
ATOM     11  C   UNL     1      -1.447  -0.339   4.444  0.00  0.00    +0.075 C 
ENDROOT
BRANCH   3  12
ATOM     12  N   UNL     1      -0.036  -4.096   1.980  0.00  0.00    -0.328 N 
ATOM     13  H   UNL     1       0.596  -4.549   1.401  0.00  0.00    +0.145 HD
ATOM     14  H   UNL     1      -0.639  -4.612   2.539  0.00  0.00    +0.145 HD
ENDBRANCH   3  12
BRANCH   1  16
ATOM     15  C   UNL     1      -0.019   1.526   0.010  0.00  0.00    +0.013 C 
ATOM     16  C   UNL     1       0.002  -0.004   0.002  0.00  0.00    +0.029 C 
BRANCH  16  17
ATOM     17  C   UNL     1       0.707  -0.490  -1.238  0.00  0.00    -0.044 A 
ATOM     18  C   UNL     1       2.026  -0.142  -1.464  0.00  0.00    +0.004 A 
ATOM     19  C   UNL     1       2.673  -0.587  -2.602  0.00  0.00    +0.000 A 
ATOM     20  C   UNL     1       2.002  -1.382  -3.512  0.00  0.00    +0.000 A 
ATOM     21  C   UNL     1       0.684  -1.731  -3.285  0.00  0.00    +0.000 A 
ATOM     22  C   UNL     1       0.038  -1.289  -2.146  0.00  0.00    +0.004 A 
ENDBRANCH  16  17
ENDBRANCH   1  16
BRANCH   2  23
ATOM     23  C   UNL     1       1.693  -2.700   0.376  0.00  0.00    +0.100 C 
ATOM     24  N   UNL     1       2.428  -3.244  -0.299  0.00  0.00    -0.191 NA
ENDBRANCH   2  23
TORSDOF 4
