REMARK  Name = ZINC39984231
REMARK  7 active torsions:
REMARK  status: ('A' for Active; 'I' for Inactive)
REMARK    1  A    between atoms: C_1  and  C_2
REMARK    2  A    between atoms: C_5  and  S_8
REMARK    3  A    between atoms: S_8  and  N_11
REMARK    4  A    between atoms: C_13  and  N_23
REMARK    5  A    between atoms: N_23  and  C_24
REMARK    6  A    between atoms: C_28  and  C_31
REMARK    7  A    between atoms: C_29  and  C_30
REMARK                            x       y       z     vdW  Elec       q    Type
REMARK                         _______ _______ _______ _____ _____    ______ ____
ROOT
ATOM      1  N   UNL     1       1.500  -5.145  -0.235  0.00  0.00    -0.110 NA
ATOM      2  C   UNL     1       1.913  -6.375  -0.142  0.00  0.00    +0.192 C 
ATOM      3  C   UNL     1       3.389  -6.684  -0.043  0.00  0.00    +0.237 C 
ATOM      4  N   UNL     1       3.791  -8.095   0.060  0.00  0.00    -0.359 N 
ATOM      5  C   UNL     1       2.860  -9.008   0.062  0.00  0.00    +0.063 A 
ATOM      6  C   UNL     1       3.209 -10.433   0.163  0.00  0.00    +0.027 A 
ATOM      7  C   UNL     1       2.216 -11.350   0.162  0.00  0.00    +0.002 A 
ATOM      8  C   UNL     1       0.865 -10.976   0.067  0.00  0.00    +0.002 A 
ATOM      9  C   UNL     1       0.469  -9.689  -0.029  0.00  0.00    +0.030 A 
ATOM     10  C   UNL     1       1.425  -8.643  -0.038  0.00  0.00    +0.089 A 
ATOM     11  N   UNL     1       1.033  -7.389  -0.127  0.00  0.00    -0.226 NA
ATOM     12  H   UNL     1       4.727  -8.341   0.125  0.00  0.00    +0.162 HD
ENDROOT
BRANCH   1  13
ATOM     13  S   UNL     1      -0.120  -4.821  -0.336  0.00  0.00    +0.100 S 
ATOM     14  O   UNL     1      -0.690  -5.207   0.907  0.00  0.00    -0.146 OA
ATOM     15  O   UNL     1      -0.565  -5.353  -1.576  0.00  0.00    -0.146 OA
BRANCH  13  20
ATOM     16  C   UNL     1      -0.723   1.171  -0.718  0.00  0.00    +0.044 C 
ATOM     17  C   UNL     1      -0.572  -0.326  -0.623  0.00  0.00    -0.050 A 
ATOM     18  C   UNL     1      -0.442  -1.082  -1.772  0.00  0.00    +0.005 A 
ATOM     19  C   UNL     1      -0.304  -2.455  -1.685  0.00  0.00    +0.029 A 
ATOM     20  C   UNL     1      -0.295  -3.071  -0.447  0.00  0.00    +0.113 A 
ATOM     21  C   UNL     1      -0.424  -2.314   0.702  0.00  0.00    +0.029 A 
ATOM     22  C   UNL     1      -0.558  -0.941   0.615  0.00  0.00    +0.005 A 
ENDBRANCH  13  20
ENDBRANCH   1  13
BRANCH   3  23
ATOM     23  N   UNL     1       4.044  -6.119  -1.226  0.00  0.00    -0.318 N 
ATOM     24  H   UNL     1       3.639  -6.224  -2.101  0.00  0.00    +0.148 HD
BRANCH  23  25
ATOM     25  C   UNL     1       5.252  -5.429  -1.093  0.00  0.00    +0.032 A 
ATOM     26  C   UNL     1       5.897  -5.386   0.136  0.00  0.00    +0.023 A 
ATOM     27  C   UNL     1       7.091  -4.704   0.264  0.00  0.00    +0.002 A 
ATOM     28  C   UNL     1       7.644  -4.064  -0.831  0.00  0.00    +0.004 A 
ATOM     29  C   UNL     1       7.003  -4.104  -2.055  0.00  0.00    -0.046 A 
ATOM     30  C   UNL     1       5.812  -4.790  -2.192  0.00  0.00    -0.027 A 
ATOM     31  C   UNL     1       5.119  -4.839  -3.529  0.00  0.00    +0.046 C 
ATOM     32  C   UNL     1       7.609  -3.404  -3.245  0.00  0.00    +0.044 C 
ENDBRANCH  23  25
ENDBRANCH   3  23
TORSDOF 4
