REMARK  Name = ZINC02757710
REMARK  10 active torsions:
REMARK  status: ('A' for Active; 'I' for Inactive)
REMARK    1  A    between atoms: C_1  and  C_2
REMARK    2  A    between atoms: C_2  and  S_3
REMARK    3  A    between atoms: S_3  and  C_4
REMARK    4  A    between atoms: C_4  and  C_5
REMARK    5  A    between atoms: C_5  and  O_6
REMARK    6  A    between atoms: O_6  and  C_7
REMARK    7  A    between atoms: C_7  and  C_9
REMARK    8  A    between atoms: C_10  and  C_35
REMARK    9  A    between atoms: C_14  and  C_16
REMARK   10  A    between atoms: C_26  and  C_29
REMARK                            x       y       z     vdW  Elec       q    Type
REMARK                         _______ _______ _______ _____ _____    ______ ____
ROOT
ATOM      1  C   UNL     1       3.645   1.982   0.416  0.00  0.00    +0.065 C 
ATOM      2  C   UNL     1       3.564   3.324   0.400  0.00  0.00    +0.016 C 
ATOM      3  N   UNL     1       2.412   3.944   0.003  0.00  0.00    -0.321 N 
ATOM      4  C   UNL     1       1.222   3.267  -0.005  0.00  0.00    +0.016 C 
ATOM      5  C   UNL     1       1.201   1.918   0.001  0.00  0.00    +0.024 C 
ATOM      6  C   UNL     1       2.485   1.127  -0.004  0.00  0.00    +0.092 C 
ATOM      7  C   UNL     1      -0.014   1.211   0.009  0.00  0.00    +0.162 C 
ATOM      8  O   UNL     1       0.002  -0.004   0.002  0.00  0.00    -0.292 OA
ATOM      9  C   UNL     1      -1.335   1.931   0.019  0.00  0.00    +0.088 C 
ATOM     10  C   UNL     1      -1.155   3.287   0.715  0.00  0.00    +0.032 C 
ATOM     11  C   UNL     1      -0.059   4.064  -0.018  0.00  0.00    +0.059 C 
ATOM     12  C   UNL     1       4.751   4.150   0.822  0.00  0.00    +0.061 C 
ATOM     13  H   UNL     1       2.436   4.997  -0.315  0.00  0.00    +0.152 HD
ENDROOT
BRANCH   6  14
ATOM     14  C   UNL     1       2.737   0.601  -1.393  0.00  0.00    -0.034 A 
ATOM     15  C   UNL     1       2.828  -0.762  -1.610  0.00  0.00    +0.004 A 
ATOM     16  C   UNL     1       3.059  -1.245  -2.884  0.00  0.00    +0.001 A 
ATOM     17  C   UNL     1       3.198  -0.367  -3.943  0.00  0.00    +0.015 A 
ATOM     18  C   UNL     1       3.107   0.996  -3.726  0.00  0.00    +0.018 A 
ATOM     19  C   UNL     1       2.871   1.480  -2.452  0.00  0.00    +0.019 A 
ATOM     20 BR   UNL     1       3.298   2.198  -5.173  0.00  0.00    -0.050 Br
ENDBRANCH   6  14
BRANCH  10  21
ATOM     21  C   UNL     1      -2.447   4.060   0.659  0.00  0.00    -0.044 A 
ATOM     22  C   UNL     1      -3.015   4.369  -0.563  0.00  0.00    +0.004 A 
ATOM     23  C   UNL     1      -4.203   5.074  -0.614  0.00  0.00    +0.000 A 
ATOM     24  C   UNL     1      -4.818   5.478   0.556  0.00  0.00    +0.000 A 
ATOM     25  C   UNL     1      -4.248   5.173   1.778  0.00  0.00    +0.000 A 
ATOM     26  C   UNL     1      -3.062   4.464   1.829  0.00  0.00    +0.004 A 
ENDBRANCH  10  21
BRANCH   1  27
ATOM     27  C   UNL     1       4.845   1.365   0.838  0.00  0.00    +0.338 C 
ATOM     28  O   UNL     1       5.793   2.047   1.181  0.00  0.00    -0.245 OA
BRANCH  27  29
ATOM     29  O   UNL     1       4.941   0.019   0.859  0.00  0.00    -0.460 OA
BRANCH  29  30
ATOM     30  C   UNL     1       6.182  -0.537   1.296  0.00  0.00    +0.243 C 
BRANCH  30  31
ATOM     31  C   UNL     1       6.101  -2.064   1.252  0.00  0.00    +0.110 C 
BRANCH  31  32
ATOM     32  S   UNL     1       7.677  -2.770   1.807  0.00  0.00    -0.158 S 
BRANCH  32  34
ATOM     33  C   UNL     1       8.689  -5.289   2.143  0.00  0.00    +0.015 C 
ATOM     34  C   UNL     1       7.418  -4.562   1.698  0.00  0.00    +0.066 C 
ENDBRANCH  32  34
ENDBRANCH  31  32
ENDBRANCH  30  31
ENDBRANCH  29  30
ENDBRANCH  27  29
ENDBRANCH   1  27
TORSDOF 8
