REMARK  Name = ZINC36229346
REMARK  6 active torsions:
REMARK  status: ('A' for Active; 'I' for Inactive)
REMARK    1  A    between atoms: C_4  and  N_7
REMARK    2  A    between atoms: C_8  and  C_27
REMARK    3  A    between atoms: C_11  and  S_12
REMARK    4  A    between atoms: S_12  and  C_13
REMARK    5  A    between atoms: C_13  and  C_14
REMARK    6  A    between atoms: C_27  and  N_28
REMARK                            x       y       z     vdW  Elec       q    Type
REMARK                         _______ _______ _______ _____ _____    ______ ____
ROOT
ATOM      1  N   UNL     1       3.624  -0.653  -0.036  0.00  0.00    -0.276 N 
ATOM      2  C   UNL     1       4.115  -1.449  -1.037  0.00  0.00    +0.122 A 
ATOM      3  N   UNL     1       5.279  -1.886  -0.648  0.00  0.00    -0.135 NA
ATOM      4  N   UNL     1       5.558  -1.426   0.519  0.00  0.00    -0.122 NA
ATOM      5  C   UNL     1       4.580  -0.658   0.942  0.00  0.00    +0.197 A 
ENDROOT
BRANCH   1   9
ATOM      6  C   UNL     1      -0.017   1.379   0.010  0.00  0.00    +0.000 A 
ATOM      7  C   UNL     1       1.170   2.089   0.002  0.00  0.00    +0.002 A 
ATOM      8  C   UNL     1       2.377   1.419  -0.013  0.00  0.00    +0.026 A 
ATOM      9  C   UNL     1       2.399   0.031  -0.021  0.00  0.00    +0.050 A 
ATOM     10  C   UNL     1       1.207  -0.680  -0.013  0.00  0.00    +0.026 A 
ATOM     11  C   UNL     1       0.002  -0.004   0.002  0.00  0.00    +0.002 A 
ENDBRANCH   1   9
BRANCH   5  12
ATOM     12  S   UNL     1       4.512   0.200   2.479  0.00  0.00    -0.076 S 
BRANCH  12  13
ATOM     13  C   UNL     1       6.076  -0.229   3.291  0.00  0.00    +0.173 C 
BRANCH  13  14
ATOM     14  C   UNL     1       6.147   0.449   4.635  0.00  0.00    +0.229 C 
ATOM     15  O   UNL     1       5.232   1.153   5.008  0.00  0.00    -0.275 OA
ATOM     16  N   UNL     1       7.227   0.274   5.423  0.00  0.00    -0.264 N 
ATOM     17  C   UNL     1       7.292   0.897   6.658  0.00  0.00    +0.165 A 
ATOM     18  N   UNL     1       6.410   1.682   7.232  0.00  0.00    -0.225 NA
ATOM     19  C   UNL     1       6.607   2.226   8.453  0.00  0.00    +0.080 A 
ATOM     20  C   UNL     1       5.745   3.081   9.177  0.00  0.00    +0.032 A 
ATOM     21  C   UNL     1       6.099   3.549  10.415  0.00  0.00    +0.040 A 
ATOM     22  C   UNL     1       7.310   3.204  11.002  0.00  0.00    +0.125 A 
ATOM     23  C   UNL     1       8.179   2.369  10.320  0.00  0.00    +0.055 A 
ATOM     24  C   UNL     1       7.830   1.896   9.080  0.00  0.00    +0.043 A 
ATOM     25  S   UNL     1       8.595   0.831   7.880  0.00  0.00    -0.052 S 
ATOM     26  F   UNL     1       7.637   3.680  12.223  0.00  0.00    -0.205 F 
ATOM     27  H   UNL     1       7.958  -0.289   5.124  0.00  0.00    +0.157 HD
ENDBRANCH  13  14
ENDBRANCH  12  13
ENDBRANCH   5  12
BRANCH   2  28
ATOM     28  C   UNL     1       3.434  -1.762  -2.345  0.00  0.00    -0.001 C 
BRANCH  28  29
ATOM     29  N   UNL     1       3.819  -0.762  -3.349  0.00  0.00    +0.384 N 
ATOM     30  C   UNL     1       3.314   0.556  -2.944  0.00  0.00    -0.078 C 
ATOM     31  C   UNL     1       3.782   1.615  -3.945  0.00  0.00    -0.019 C 
ATOM     32  C   UNL     1       3.246   1.266  -5.336  0.00  0.00    -0.004 C 
ATOM     33  C   UNL     1       3.717  -0.140  -5.717  0.00  0.00    -0.019 C 
ATOM     34  C   UNL     1       3.252  -1.134  -4.651  0.00  0.00    -0.078 C 
ATOM     35  H   UNL     1       4.825  -0.727  -3.419  0.00  0.00    -0.081 HD
ENDBRANCH  28  29
ENDBRANCH   2  28
TORSDOF 6
