REMARK  Name = ZINC39534540
REMARK  10 active torsions:
REMARK  status: ('A' for Active; 'I' for Inactive)
REMARK    1  A    between atoms: C_1  and  C_2
REMARK    2  A    between atoms: C_2  and  C_3
REMARK    3  A    between atoms: C_2  and  S_4
REMARK    4  A    between atoms: S_4  and  C_7
REMARK    5  A    between atoms: C_10  and  C_13
REMARK    6  A    between atoms: C_13  and  C_15
REMARK    7  A    between atoms: C_13  and  N_19
REMARK    8  A    between atoms: C_15  and  N_16
REMARK    9  A    between atoms: N_16  and  S_17
REMARK   10  A    between atoms: S_17  and  C_18
REMARK                            x       y       z     vdW  Elec       q    Type
REMARK                         _______ _______ _______ _____ _____    ______ ____
ROOT
ATOM      1  C   UNL     1       6.414   1.716  -1.114  0.00  0.00    +0.102 C 
ENDROOT
BRANCH   1   2
ATOM      2  N   UNL     1       6.912   1.331   0.213  0.00  0.00    -0.289 NA
ATOM      3  C   UNL     1       7.799   2.365   0.763  0.00  0.00    +0.100 C 
ATOM      4  C   UNL     1       8.232   1.964   2.176  0.00  0.00    +0.099 C 
ATOM      5  N   UNL     1       8.913   0.663   2.125  0.00  0.00    -0.285 NA
ATOM      6  C   UNL     1       8.026  -0.372   1.575  0.00  0.00    +0.248 C 
ATOM      7  C   UNL     1       7.594   0.030   0.162  0.00  0.00    +0.138 C 
ATOM      8  F   UNL     1       8.708  -1.592   1.525  0.00  0.00    -0.227 F 
ATOM      9  H   UNL     1       9.770   0.724   1.596  0.00  0.00    +0.125 HD
ENDBRANCH   1   2
BRANCH   1  13
ATOM     10  C   UNL     1       2.417   0.292  -1.606  0.00  0.00    +0.088 A 
ATOM     11  C   UNL     1       2.744   1.580  -1.988  0.00  0.00    +0.027 A 
ATOM     12  C   UNL     1       4.038   2.041  -1.829  0.00  0.00    +0.007 A 
ATOM     13  C   UNL     1       5.004   1.214  -1.287  0.00  0.00    -0.029 A 
ATOM     14  C   UNL     1       4.677  -0.073  -0.904  0.00  0.00    +0.007 A 
ATOM     15  C   UNL     1       3.382  -0.533  -1.059  0.00  0.00    +0.027 A 
BRANCH  10  16
ATOM     16  S   UNL     1       0.768  -0.295  -1.809  0.00  0.00    -0.001 S 
ATOM     17  O   UNL     1       0.897  -1.706  -1.919  0.00  0.00    -0.169 OA
ATOM     18  O   UNL     1       0.240   0.470  -2.883  0.00  0.00    -0.169 OA
BRANCH  16  20
ATOM     19  C   UNL     1      -0.034   1.652  -0.064  0.00  0.00    +0.032 C 
ATOM     20  C   UNL     1      -0.074   0.136  -0.261  0.00  0.00    +0.130 C 
ATOM     21  C   UNL     1      -1.529  -0.332  -0.325  0.00  0.00    +0.032 C 
ENDBRANCH  16  20
ENDBRANCH  10  16
ENDBRANCH   1  13
BRANCH   1  22
ATOM     22  C   UNL     1       7.310   1.103  -2.193  0.00  0.00    +0.117 C 
BRANCH  22  23
ATOM     23  N   UNL     1       8.696   1.543  -1.987  0.00  0.00    -0.262 NA
ATOM     24  H   UNL     1       8.803   2.520  -2.216  0.00  0.00    +0.135 HD
BRANCH  23  25
ATOM     25  S   UNL     1       9.820   0.549  -2.917  0.00  0.00    -0.084 S 
ATOM     26  C   UNL     1      11.448   1.248  -2.528  0.00  0.00    +0.102 C 
ENDBRANCH  23  25
ENDBRANCH  22  23
ENDBRANCH   1  22
TORSDOF 7
