REMARK  Name = ZINC33070982
REMARK  5 active torsions:
REMARK  status: ('A' for Active; 'I' for Inactive)
REMARK    1  A    between atoms: C_1  and  C_2
REMARK    2  A    between atoms: C_2  and  C_4
REMARK    3  A    between atoms: C_2  and  N_10
REMARK    4  A    between atoms: C_4  and  C_5
REMARK    5  A    between atoms: C_11  and  C_13
REMARK                            x       y       z     vdW  Elec       q    Type
REMARK                         _______ _______ _______ _____ _____    ______ ____
ROOT
ATOM      1  C   UNL     1       7.239   3.297  -1.064  0.00  0.00    +0.078 C 
ATOM      2  C   UNL     1       6.614   4.060   0.108  0.00  0.00    +0.032 C 
ATOM      3  C   UNL     1       5.090   4.029  -0.024  0.00  0.00    +0.108 C 
ATOM      4  N   UNL     1       4.625   2.636  -0.028  0.00  0.00    -0.303 N 
ATOM      5  C   UNL     1       5.175   1.896  -1.171  0.00  0.00    +0.108 C 
ATOM      6  C   UNL     1       6.701   1.863  -1.073  0.00  0.00    +0.032 C 
ATOM      7  C   UNL     1       3.248   2.574  -0.015  0.00  0.00    +0.174 A 
ATOM      8  N   UNL     1       2.514   1.423  -0.014  0.00  0.00    -0.327 N 
ATOM      9  H   UNL     1       3.022   0.447  -0.024  0.00  0.00    +0.169 HD
ATOM     10  C   UNL     1       1.178   1.787   0.000  0.00  0.00    +0.065 A 
ATOM     11  C   UNL     1      -0.013   1.076   0.008  0.00  0.00    +0.028 A 
ATOM     12  C   UNL     1      -1.216   1.751   0.017  0.00  0.00    +0.002 A 
ATOM     13  C   UNL     1      -1.243   3.138   0.030  0.00  0.00    +0.002 A 
ATOM     14  C   UNL     1      -0.071   3.860   0.023  0.00  0.00    +0.028 A 
ATOM     15  C   UNL     1       1.156   3.191   0.008  0.00  0.00    +0.065 A 
ATOM     16  N   UNL     1       2.448   3.611  -0.002  0.00  0.00    -0.327 N 
ATOM     17  H   UNL     1       2.867   4.629   0.000  0.00  0.00    +0.169 HD
ENDROOT
BRANCH   1  19
ATOM     18  N   UNL     1       9.501   2.651  -1.828  0.00  0.00    -0.312 N 
ATOM     19  C   UNL     1       8.737   3.272  -0.907  0.00  0.00    +0.216 C 
ATOM     20  O   UNL     1       9.256   3.812   0.047  0.00  0.00    -0.276 OA
ATOM     21  H   UNL     1       9.030   2.162  -2.693  0.00  0.00    +0.149 HD
BRANCH  18  23
ATOM     22  C   UNL     1      11.357   1.460  -0.771  0.00  0.00    +0.028 C 
ATOM     23  C   UNL     1      10.958   2.627  -1.676  0.00  0.00    +0.077 C 
BRANCH  23  24
ATOM     24  C   UNL     1      11.611   2.455  -3.048  0.00  0.00    +0.096 C 
BRANCH  24  25
ATOM     25  C   UNL     1      11.319   3.664  -3.899  0.00  0.00    +0.107 A 
ATOM     26  C   UNL     1      12.070   4.778  -3.968  0.00  0.00    +0.045 A 
ATOM     27  C   UNL     1      11.432   5.647  -4.883  0.00  0.00    +0.041 A 
ATOM     28  C   UNL     1      10.324   5.016  -5.312  0.00  0.00    +0.195 A 
ATOM     29  O   UNL     1      10.261   3.815  -4.713  0.00  0.00    -0.468 OA
ENDBRANCH  24  25
ENDBRANCH  23  24
ENDBRANCH  18  23
ENDBRANCH   1  19
TORSDOF 4
