REMARK  Name = ZINC39596553
REMARK  9 active torsions:
REMARK  status: ('A' for Active; 'I' for Inactive)
REMARK    1  A    between atoms: C_1  and  C_2
REMARK    2  A    between atoms: C_7  and  C_8
REMARK    3  A    between atoms: C_8  and  C_9
REMARK    4  A    between atoms: C_13  and  C_22
REMARK    5  A    between atoms: N_24  and  C_25
REMARK    6  A    between atoms: C_25  and  C_26
REMARK    7  A    between atoms: C_26  and  C_28
REMARK    8  A    between atoms: C_26  and  O_29
REMARK    9  A    between atoms: O_29  and  C_30
REMARK                            x       y       z     vdW  Elec       q    Type
REMARK                         _______ _______ _______ _____ _____    ______ ____
ROOT
ATOM      1  C   UNL     1      -1.341   0.364   2.884  0.00  0.00    +0.220 C 
ATOM      2  O   UNL     1      -2.256   0.034   2.160  0.00  0.00    -0.275 OA
ATOM      3  N   UNL     1      -1.593   1.040   4.022  0.00  0.00    -0.300 N 
ATOM      4  C   UNL     1      -0.616   1.530   5.023  0.00  0.00    +0.121 C 
ATOM      5  C   UNL     1      -1.153   2.917   5.446  0.00  0.00    +0.100 C 
ATOM      6  C   UNL     1      -2.659   2.865   5.139  0.00  0.00    -0.004 C 
ATOM      7  C   UNL     1      -2.910   1.468   4.553  0.00  0.00    +0.115 C 
ATOM      8  C   UNL     1      -3.026   3.934   4.114  0.00  0.00    -0.010 C 
ATOM      9  C   UNL     1      -4.537   3.900   3.868  0.00  0.00    -0.082 C 
ATOM     10  N   UNL     1      -5.246   4.140   5.131  0.00  0.00    +0.379 N 
ATOM     11  C   UNL     1      -4.959   3.057   6.079  0.00  0.00    -0.082 C 
ATOM     12  C   UNL     1      -3.466   3.055   6.419  0.00  0.00    -0.010 C 
ATOM     13  H   UNL     1      -4.942   5.019   5.524  0.00  0.00    -0.086 HD
ATOM     14  H   UNL     1      -6.239   4.178   4.956  0.00  0.00    -0.086 HD
ENDROOT
BRANCH   5  15
ATOM     15  C   UNL     1      -0.922   3.141   6.918  0.00  0.00    +0.218 C 
ATOM     16  O   UNL     1      -0.990   2.210   7.692  0.00  0.00    -0.275 OA
ATOM     17  N   UNL     1      -0.641   4.378   7.375  0.00  0.00    -0.312 N 
ATOM     18  H   UNL     1      -0.587   5.123   6.756  0.00  0.00    +0.149 HD
BRANCH  17  19
ATOM     19  C   UNL     1      -0.417   4.596   8.806  0.00  0.00    +0.148 C 
BRANCH  19  20
ATOM     20  C   UNL     1      -0.119   6.076   9.056  0.00  0.00    +0.187 C 
ATOM     21  C   UNL     1       0.115   6.304  10.551  0.00  0.00    +0.053 C 
BRANCH  20  22
ATOM     22  O   UNL     1       1.050   6.455   8.328  0.00  0.00    -0.488 OA
BRANCH  22  23
ATOM     23  C   UNL     1       1.174   7.769   8.000  0.00  0.00    +0.121 A 
ATOM     24  C   UNL     1       2.221   8.187   7.191  0.00  0.00    +0.048 A 
ATOM     25  C   UNL     1       2.346   9.522   6.860  0.00  0.00    +0.042 A 
ATOM     26  C   UNL     1       1.427  10.443   7.334  0.00  0.00    +0.124 A 
ATOM     27  C   UNL     1       0.382  10.027   8.142  0.00  0.00    +0.042 A 
ATOM     28  C   UNL     1       0.251   8.691   8.470  0.00  0.00    +0.048 A 
ATOM     29  F   UNL     1       1.550  11.749   7.010  0.00  0.00    -0.205 F 
ENDBRANCH  22  23
ENDBRANCH  20  22
ENDBRANCH  19  20
ENDBRANCH  17  19
ENDBRANCH   5  15
BRANCH   1  30
ATOM     30  C   UNL     1       0.077   0.017   2.512  0.00  0.00    +0.131 C 
BRANCH  30  37
ATOM     31  C   UNL     1       0.069   1.467   0.013  0.00  0.00    +0.044 C 
ATOM     32  C   UNL     1       0.081  -0.040   0.010  0.00  0.00    -0.047 A 
ATOM     33  C   UNL     1       0.093  -0.728  -1.189  0.00  0.00    +0.003 A 
ATOM     34  C   UNL     1       0.104  -2.110  -1.192  0.00  0.00    +0.000 A 
ATOM     35  C   UNL     1       0.103  -2.804   0.004  0.00  0.00    +0.000 A 
ATOM     36  C   UNL     1       0.091  -2.116   1.202  0.00  0.00    +0.004 A 
ATOM     37  C   UNL     1       0.085  -0.733   1.205  0.00  0.00    -0.036 A 
ENDBRANCH  30  37
ENDBRANCH   1  30
TORSDOF 7
