REMARK  Name = ZINC04176597
REMARK  7 active torsions:
REMARK  status: ('A' for Active; 'I' for Inactive)
REMARK    1  A    between atoms: C_1  and  C_2
REMARK    2  A    between atoms: C_5  and  C_8
REMARK    3  A    between atoms: C_10  and  C_28
REMARK    4  A    between atoms: C_11  and  C_27
REMARK    5  A    between atoms: C_16  and  S_18
REMARK    6  A    between atoms: S_18  and  C_19
REMARK    7  A    between atoms: C_19  and  C_20
REMARK                            x       y       z     vdW  Elec       q    Type
REMARK                         _______ _______ _______ _____ _____    ______ ____
ROOT
ATOM      1  C   UNL     1       0.251  -4.004   0.201  0.00  0.00    +0.166 C 
ATOM      2  C   UNL     1       1.577  -4.740   0.116  0.00  0.00    +0.059 C 
ATOM      3  C   UNL     1       1.801  -5.731   1.032  0.00  0.00    +0.026 C 
ATOM      4  N   UNL     1       0.910  -6.045   1.958  0.00  0.00    -0.330 N 
ATOM      5  C   UNL     1      -0.269  -5.455   2.104  0.00  0.00    +0.217 C 
ATOM      6  N   UNL     1      -0.656  -4.437   1.270  0.00  0.00    -0.187 N 
ATOM      7  N   UNL     1      -1.929  -4.036   1.684  0.00  0.00    -0.118 NA
ATOM      8  C   UNL     1      -2.252  -4.829   2.751  0.00  0.00    +0.197 C 
ATOM      9  N   UNL     1      -1.262  -5.659   2.980  0.00  0.00    -0.190 NA
ATOM     10  C   UNL     1       3.103  -6.488   0.984  0.00  0.00    +0.064 C 
ATOM     11  H   UNL     1       1.135  -6.758   2.576  0.00  0.00    +0.168 HD
ENDROOT
BRANCH   1  16
ATOM     12  C   UNL     1       1.355   1.619   0.947  0.00  0.00    +0.044 C 
ATOM     13  C   UNL     1       1.067   0.152   0.752  0.00  0.00    -0.050 A 
ATOM     14  C   UNL     1       0.820  -0.341  -0.515  0.00  0.00    +0.004 A 
ATOM     15  C   UNL     1       0.556  -1.687  -0.694  0.00  0.00    +0.006 A 
ATOM     16  C   UNL     1       0.540  -2.538   0.395  0.00  0.00    -0.021 A 
ATOM     17  C   UNL     1       0.788  -2.045   1.663  0.00  0.00    +0.006 A 
ATOM     18  C   UNL     1       1.056  -0.700   1.840  0.00  0.00    +0.004 A 
ENDBRANCH   1  16
BRANCH   2  19
ATOM     19  C   UNL     1       2.532  -4.418  -0.863  0.00  0.00    +0.241 C 
ATOM     20  O   UNL     1       2.403  -4.834  -2.002  0.00  0.00    -0.271 OA
ATOM     21  N   UNL     1       3.591  -3.648  -0.543  0.00  0.00    -0.325 N 
ATOM     22  H   UNL     1       3.658  -3.259   0.343  0.00  0.00    +0.145 HD
ATOM     23  H   UNL     1       4.287  -3.483  -1.199  0.00  0.00    +0.145 HD
ENDBRANCH   2  19
BRANCH   8  24
ATOM     24  S   UNL     1      -3.755  -4.751   3.667  0.00  0.00    -0.082 S 
BRANCH  24  25
ATOM     25  C   UNL     1      -3.567  -6.040   4.929  0.00  0.00    +0.113 C 
BRANCH  25  26
ATOM     26  C   UNL     1      -4.801  -6.081   5.794  0.00  0.00    -0.019 A 
ATOM     27  C   UNL     1      -4.876  -5.297   6.929  0.00  0.00    +0.006 A 
ATOM     28  C   UNL     1      -6.007  -5.335   7.722  0.00  0.00    +0.000 A 
ATOM     29  C   UNL     1      -7.065  -6.156   7.380  0.00  0.00    +0.001 A 
ATOM     30  C   UNL     1      -6.991  -6.941   6.245  0.00  0.00    +0.020 A 
ATOM     31  C   UNL     1      -5.861  -6.899   5.447  0.00  0.00    +0.045 A 
ATOM     32 CL   UNL     1      -5.771  -7.880   4.018  0.00  0.00    -0.083 Cl
ENDBRANCH  25  26
ENDBRANCH  24  25
ENDBRANCH   8  24
TORSDOF 5
