REMARK  Name = ZINC04146336
REMARK  15 active torsions:
REMARK  status: ('A' for Active; 'I' for Inactive)
REMARK    1  A    between atoms: C_1  and  C_2
REMARK    2  A    between atoms: C_2  and  C_3
REMARK    3  A    between atoms: C_3  and  C_4
REMARK    4  A    between atoms: C_4  and  N_5
REMARK    5  A    between atoms: N_5  and  C_6
REMARK    6  A    between atoms: N_5  and  C_12
REMARK    7  A    between atoms: C_6  and  C_7
REMARK    8  A    between atoms: C_15  and  N_25
REMARK    9  A    between atoms: C_17  and  C_18
REMARK   10  A    between atoms: N_25  and  S_26
REMARK   11  A    between atoms: S_26  and  C_29
REMARK   12  A    between atoms: C_32  and  C_35
REMARK   13  A    between atoms: C_35  and  C_36
REMARK   14  A    between atoms: C_35  and  C_37
REMARK   15  A    between atoms: C_35  and  C_38
REMARK                            x       y       z     vdW  Elec       q    Type
REMARK                         _______ _______ _______ _____ _____    ______ ____
ROOT
ATOM      1  C   UNL     1      -3.703  -2.941   1.117  0.00  0.00    +0.042 A 
ATOM      2  C   UNL     1      -4.433  -1.939   1.745  0.00  0.00    +0.026 A 
ATOM      3  C   UNL     1      -4.775  -2.061   3.075  0.00  0.00    +0.026 A 
ATOM      4  C   UNL     1      -4.394  -3.187   3.799  0.00  0.00    +0.049 A 
ATOM      5  C   UNL     1      -3.668  -4.194   3.188  0.00  0.00    +0.039 A 
ATOM      6  C   UNL     1      -3.321  -4.081   1.839  0.00  0.00    +0.060 A 
ENDROOT
BRANCH   6   7
ATOM      7  C   UNL     1      -2.553  -5.153   1.180  0.00  0.00    +0.248 C 
ATOM      8  O   UNL     1      -1.662  -4.872   0.401  0.00  0.00    -0.270 OA
ATOM      9  N   UNL     1      -2.838  -6.444   1.440  0.00  0.00    -0.297 N 
ATOM     10  C   UNL     1      -3.962  -6.926   2.256  0.00  0.00    +0.108 C 
ATOM     11  C   UNL     1      -3.872  -8.466   2.295  0.00  0.00    +0.020 C 
ATOM     12  C   UNL     1      -2.379  -8.736   1.969  0.00  0.00    +0.020 C 
ATOM     13  C   UNL     1      -2.077  -7.608   0.948  0.00  0.00    +0.108 C 
ENDBRANCH   6   7
BRANCH   4  14
ATOM     14  N   UNL     1      -4.747  -3.301   5.149  0.00  0.00    -0.216 N 
ATOM     15  H   UNL     1      -4.090  -3.596   5.799  0.00  0.00    +0.174 HD
BRANCH  14  16
ATOM     16  S   UNL     1      -6.286  -2.932   5.637  0.00  0.00    +0.072 S 
ATOM     17  O   UNL     1      -6.336  -3.170   7.037  0.00  0.00    -0.150 OA
ATOM     18  O   UNL     1      -6.600  -1.668   5.068  0.00  0.00    -0.150 OA
BRANCH  16  19
ATOM     19  C   UNL     1      -7.366  -4.104   4.887  0.00  0.00    +0.109 A 
ATOM     20  C   UNL     1      -7.912  -3.845   3.644  0.00  0.00    +0.029 A 
ATOM     21  C   UNL     1      -8.759  -4.765   3.056  0.00  0.00    +0.006 A 
ATOM     22  C   UNL     1      -9.060  -5.945   3.710  0.00  0.00    -0.042 A 
ATOM     23  C   UNL     1      -8.513  -6.205   4.953  0.00  0.00    +0.006 A 
ATOM     24  C   UNL     1      -7.663  -5.287   5.540  0.00  0.00    +0.029 A 
BRANCH  22  25
ATOM     25  C   UNL     1      -9.985  -6.948   3.070  0.00  0.00    -0.013 C 
ATOM     26  C   UNL     1      -9.393  -7.406   1.735  0.00  0.00    +0.015 C 
ATOM     27  C   UNL     1     -10.149  -8.155   3.996  0.00  0.00    +0.015 C 
ATOM     28  C   UNL     1     -11.350  -6.301   2.827  0.00  0.00    +0.015 C 
ENDBRANCH  22  25
ENDBRANCH  16  19
ENDBRANCH  14  16
ENDBRANCH   4  14
BRANCH   1  29
ATOM     29  N   UNL     1      -3.358  -2.816  -0.225  0.00  0.00    -0.322 N 
BRANCH  29  30
ATOM     30  C   UNL     1      -2.093  -2.178  -0.599  0.00  0.00    +0.105 C 
BRANCH  30  31
ATOM     31  C   UNL     1      -2.315  -0.675  -0.781  0.00  0.00    +0.019 C 
BRANCH  31  33
ATOM     32  C   UNL     1      -1.216   1.494  -1.355  0.00  0.00    +0.004 C 
ATOM     33  C   UNL     1      -0.994  -0.009  -1.173  0.00  0.00    -0.002 C 
ENDBRANCH  31  33
ENDBRANCH  30  31
ENDBRANCH  29  30
BRANCH  29  34
ATOM     34  C   UNL     1      -4.258  -3.323  -1.263  0.00  0.00    +0.179 C 
BRANCH  34  35
ATOM     35  C   UNL     1      -3.915  -4.759  -1.569  0.00  0.00    +0.122 A 
ATOM     36  C   UNL     1      -4.440  -5.839  -0.963  0.00  0.00    +0.046 A 
ATOM     37  C   UNL     1      -3.839  -6.973  -1.556  0.00  0.00    +0.041 A 
ATOM     38  C   UNL     1      -2.983  -6.518  -2.488  0.00  0.00    +0.195 A 
ATOM     39  O   UNL     1      -3.038  -5.176  -2.495  0.00  0.00    -0.466 OA
ENDBRANCH  34  35
ENDBRANCH  29  34
ENDBRANCH   1  29
TORSDOF 11
