REMARK  Name = ZINC09266201
REMARK  12 active torsions:
REMARK  status: ('A' for Active; 'I' for Inactive)
REMARK    1  A    between atoms: C_1  and  C_2
REMARK    2  A    between atoms: C_2  and  O_3
REMARK    3  A    between atoms: O_3  and  C_4
REMARK    4  A    between atoms: C_6  and  C_25
REMARK    5  A    between atoms: N_9  and  C_10
REMARK    6  A    between atoms: C_12  and  C_17
REMARK    7  A    between atoms: C_14  and  C_16
REMARK    8  A    between atoms: C_20  and  C_24
REMARK    9  A    between atoms: C_22  and  C_23
REMARK   10  A    between atoms: C_28  and  O_33
REMARK   11  A    between atoms: C_29  and  O_31
REMARK   12  A    between atoms: O_31  and  C_32
REMARK                            x       y       z     vdW  Elec       q    Type
REMARK                         _______ _______ _______ _____ _____    ______ ____
ROOT
ATOM      1  C   UNL     1      -0.600   1.431   3.693  0.00  0.00    +0.132 A 
ATOM      2  C   UNL     1      -0.241   2.583   4.329  0.00  0.00    +0.055 A 
ATOM      3  C   UNL     1      -0.726   3.143   5.525  0.00  0.00    -0.012 A 
ATOM      4  C   UNL     1      -1.687   2.708   6.414  0.00  0.00    +0.037 A 
ATOM      5  C   UNL     1      -2.483   1.542   6.368  0.00  0.00    +0.076 A 
ATOM      6  N   UNL     1      -3.341   1.366   7.366  0.00  0.00    -0.247 NA
ATOM      7  C   UNL     1      -2.458   0.499   5.326  0.00  0.00    +0.052 A 
ATOM      8  C   UNL     1      -1.606   0.453   4.119  0.00  0.00    +0.067 A 
ATOM      9  C   UNL     1      -1.945  -0.690   3.473  0.00  0.00    +0.113 A 
ATOM     10  O   UNL     1      -2.903  -1.309   4.180  0.00  0.00    -0.464 OA
ATOM     11  C   UNL     1      -3.220  -0.616   5.284  0.00  0.00    +0.112 A 
ATOM     12  C   UNL     1      -4.253  -1.014   6.307  0.00  0.00    +0.087 C 
ATOM     13  C   UNL     1      -1.346  -1.182   2.181  0.00  0.00    +0.087 C 
ENDROOT
BRANCH   6  14
ATOM     14  C   UNL     1      -3.335   2.221   8.428  0.00  0.00    +0.065 A 
ATOM     15  C   UNL     1      -2.462   2.005   9.499  0.00  0.00    +0.031 A 
ATOM     16  C   UNL     1      -2.458   2.878  10.567  0.00  0.00    -0.048 A 
ATOM     17  C   UNL     1      -3.323   3.958  10.586  0.00  0.00    +0.006 A 
ATOM     18  C   UNL     1      -4.194   4.175   9.532  0.00  0.00    -0.048 A 
ATOM     19  C   UNL     1      -4.206   3.315   8.454  0.00  0.00    +0.031 A 
ATOM     20  C   UNL     1      -5.131   5.355   9.563  0.00  0.00    +0.044 C 
ATOM     21  C   UNL     1      -1.513   2.651  11.719  0.00  0.00    +0.044 C 
ENDBRANCH   6  14
BRANCH   3  22
ATOM     22  C   UNL     1      -0.089   4.426   5.898  0.00  0.00    -0.014 A 
ATOM     23  C   UNL     1      -0.017   4.808   7.238  0.00  0.00    +0.012 A 
ATOM     24  C   UNL     1       0.582   6.000   7.585  0.00  0.00    +0.050 A 
ATOM     25  C   UNL     1       1.104   6.829   6.602  0.00  0.00    +0.158 A 
ATOM     26  C   UNL     1       1.031   6.457   5.261  0.00  0.00    +0.162 A 
ATOM     27  C   UNL     1       0.436   5.259   4.909  0.00  0.00    +0.058 A 
BRANCH  26  28
ATOM     28  O   UNL     1       1.544   7.270   4.300  0.00  0.00    -0.491 OA
ATOM     29  C   UNL     1       1.337   6.880   2.941  0.00  0.00    +0.277 C 
ENDBRANCH  26  28
BRANCH  25  30
ATOM     30  O   UNL     1       1.689   8.006   6.948  0.00  0.00    -0.503 OA
ATOM     31  H   UNL     1       1.078   8.755   6.977  0.00  0.00    +0.292 HD
ENDBRANCH  25  30
ENDBRANCH   3  22
BRANCH   1  32
ATOM     32  O   UNL     1       0.052   1.156   2.538  0.00  0.00    -0.491 OA
BRANCH  32  34
ATOM     33  C   UNL     1       0.343   1.249   0.141  0.00  0.00    +0.048 C 
ATOM     34  C   UNL     1      -0.527   1.657   1.331  0.00  0.00    +0.226 C 
ENDBRANCH  32  34
ENDBRANCH   1  32
TORSDOF 6
