REMARK  Name = ZINC41048202
REMARK  5 active torsions:
REMARK  status: ('A' for Active; 'I' for Inactive)
REMARK    1  A    between atoms: C_4  and  C_7
REMARK    2  A    between atoms: C_5  and  N_6
REMARK    3  A    between atoms: C_7  and  O_9
REMARK    4  A    between atoms: O_9  and  C_10
REMARK    5  A    between atoms: C_10  and  C_11
REMARK                            x       y       z     vdW  Elec       q    Type
REMARK                         _______ _______ _______ _____ _____    ______ ____
ROOT
ATOM      1  C   UNL     1      -0.017   1.377   0.010  0.00  0.00    +0.031 A 
ATOM      2  C   UNL     1       1.157   2.051   0.002  0.00  0.00    +0.048 A 
ATOM      3  S   UNL     1       2.330   0.849  -0.016  0.00  0.00    -0.088 S 
ATOM      4  C   UNL     1       1.272  -0.585  -0.013  0.00  0.00    +0.117 A 
ATOM      5  C   UNL     1       0.002  -0.004   0.002  0.00  0.00    +0.046 A 
ENDROOT
BRANCH   5   6
ATOM      6  N   UNL     1      -1.164  -0.764   0.009  0.00  0.00    -0.357 N 
ATOM      7  H   UNL     1      -2.029  -0.325   0.020  0.00  0.00    +0.142 HD
ATOM      8  H   UNL     1      -1.111  -1.732   0.004  0.00  0.00    +0.142 HD
ENDBRANCH   5   6
BRANCH   4   9
ATOM      9  C   UNL     1       1.625  -1.953  -0.025  0.00  0.00    +0.348 C 
ATOM     10  O   UNL     1       0.756  -2.806  -0.021  0.00  0.00    -0.244 OA
BRANCH   9  11
ATOM     11  O   UNL     1       2.926  -2.313  -0.039  0.00  0.00    -0.449 OA
BRANCH  11  12
ATOM     12  C   UNL     1       3.210  -3.714  -0.050  0.00  0.00    +0.357 C 
BRANCH  12  13
ATOM     13  C   UNL     1       4.703  -3.923  -0.066  0.00  0.00    +0.393 C 
ATOM     14  O   UNL     1       5.453  -2.962  -0.067  0.00  0.00    -0.243 OA
ATOM     15  O   UNL     1       5.160  -5.053  -0.077  0.00  0.00    -0.243 OA
ENDBRANCH  12  13
ENDBRANCH  11  12
ENDBRANCH   9  11
ENDBRANCH   4   9
TORSDOF 5
