REMARK  Name = ZINC60275718
REMARK  10 active torsions:
REMARK  status: ('A' for Active; 'I' for Inactive)
REMARK    1  A    between atoms: C_1  and  C_2
REMARK    2  A    between atoms: C_2  and  O_3
REMARK    3  A    between atoms: O_3  and  C_4
REMARK    4  A    between atoms: C_6  and  C_30
REMARK    5  A    between atoms: C_9  and  O_10
REMARK    6  A    between atoms: O_10  and  C_11
REMARK    7  A    between atoms: C_11  and  C_12
REMARK    8  A    between atoms: C_18  and  C_21
REMARK    9  A    between atoms: C_21  and  N_22
REMARK   10  A    between atoms: C_25  and  C_28
REMARK                            x       y       z     vdW  Elec       q    Type
REMARK                         _______ _______ _______ _____ _____    ______ ____
ROOT
ATOM      1  C   UNL     1       2.022   0.112   5.220  0.00  0.00    +0.253 C 
ATOM      2  O   UNL     1       3.200   0.341   5.044  0.00  0.00    -0.272 OA
ATOM      3  N   UNL     1       1.405   0.571   6.327  0.00  0.00    -0.298 N 
ATOM      4  C   UNL     1      -0.020   0.296   6.558  0.00  0.00    +0.108 C 
ATOM      5  C   UNL     1      -0.181  -0.344   7.940  0.00  0.00    +0.019 C 
ATOM      6  C   UNL     1       0.463   0.560   8.994  0.00  0.00    +0.005 C 
ATOM      7  C   UNL     1       1.958   0.704   8.700  0.00  0.00    -0.010 C 
ATOM      8  C   UNL     1       2.145   1.350   7.329  0.00  0.00    +0.109 C 
ENDROOT
BRANCH   1   9
ATOM      9  C   UNL     1       1.249  -0.686   4.202  0.00  0.00    +0.325 C 
BRANCH   9  10
ATOM     10  O   UNL     1       2.117  -1.056   3.128  0.00  0.00    -0.478 OA
BRANCH  10  16
ATOM     11  C   UNL     1       1.009  -1.138   1.020  0.00  0.00    +0.164 A 
ATOM     12  C   UNL     1       0.460  -1.877  -0.010  0.00  0.00    +0.068 A 
ATOM     13  C   UNL     1       0.467  -3.273   0.055  0.00  0.00    +0.057 A 
ATOM     14  C   UNL     1       1.029  -3.915   1.161  0.00  0.00    +0.038 A 
ATOM     15  C   UNL     1       1.575  -3.171   2.186  0.00  0.00    +0.064 A 
ATOM     16  C   UNL     1       1.573  -1.784   2.119  0.00  0.00    +0.177 A 
ATOM     17 BR   UNL     1       2.335  -4.042   3.683  0.00  0.00    -0.046 Br
BRANCH  13  18
ATOM     18  C   UNL     1      -0.101  -4.044  -1.010  0.00  0.00    +0.099 C 
ATOM     19  N   UNL     1      -0.552  -4.655  -1.855  0.00  0.00    -0.191 NA
ENDBRANCH  13  18
BRANCH  11  20
ATOM     20  O   UNL     1       1.003   0.221   0.960  0.00  0.00    -0.488 OA
BRANCH  20  22
ATOM     21  C   UNL     1       0.496   2.340  -0.085  0.00  0.00    +0.048 C 
ATOM     22  C   UNL     1       0.409   0.817  -0.195  0.00  0.00    +0.226 C 
ENDBRANCH  20  22
ENDBRANCH  11  20
ENDBRANCH  10  16
ENDBRANCH   9  10
ENDBRANCH   1   9
BRANCH   7  23
ATOM     23  C   UNL     1       2.608   1.580   9.773  0.00  0.00    -0.074 C 
BRANCH  23  24
ATOM     24  N   UNL     1       4.061   1.618   9.560  0.00  0.00    +0.380 N 
ATOM     25  C   UNL     1       4.666   2.575  10.495  0.00  0.00    -0.079 C 
ATOM     26  C   UNL     1       6.168   2.679  10.223  0.00  0.00    -0.016 C 
ATOM     27  C   UNL     1       6.812   1.303  10.411  0.00  0.00    -0.018 C 
ATOM     28  C   UNL     1       6.123   0.297   9.484  0.00  0.00    -0.016 C 
ATOM     29  C   UNL     1       4.622   0.281   9.783  0.00  0.00    -0.079 C 
ATOM     30  C   UNL     1       8.300   1.382  10.063  0.00  0.00    +0.007 C 
ATOM     31  H   UNL     1       4.253   1.909   8.613  0.00  0.00    -0.082 HD
ENDBRANCH  23  24
ENDBRANCH   7  23
TORSDOF 8
