REMARK  Name = ZINC01229151
REMARK  4 active torsions:
REMARK  status: ('A' for Active; 'I' for Inactive)
REMARK    1  A    between atoms: C_1  and  C_2
REMARK    2  A    between atoms: C_13  and  C_26
REMARK    3  A    between atoms: C_14  and  N_25
REMARK    4  A    between atoms: C_21  and  C_24
REMARK                            x       y       z     vdW  Elec       q    Type
REMARK                         _______ _______ _______ _____ _____    ______ ____
ROOT
ATOM      1  C   UNL     1      -2.458   7.210   4.475  0.00  0.00    +0.045 C 
ATOM      2  C   UNL     1      -3.200   5.909   4.643  0.00  0.00    -0.036 A 
ATOM      3  C   UNL     1      -2.481   4.720   4.722  0.00  0.00    +0.011 A 
ATOM      4  C   UNL     1      -3.208   3.559   4.874  0.00  0.00    -0.001 A 
ATOM      5  C   UNL     1      -4.607   3.557   4.948  0.00  0.00    +0.039 A 
ATOM      6  C   UNL     1      -5.316   4.756   4.869  0.00  0.00    +0.039 A 
ATOM      7  C   UNL     1      -4.579   5.921   4.716  0.00  0.00    +0.023 A 
ATOM      8 BR   UNL     1      -5.489   7.575   4.604  0.00  0.00    -0.050 Br
ATOM      9  N   UNL     1      -5.078   2.265   5.099  0.00  0.00    -0.284 N 
ATOM     10  C   UNL     1      -4.076   1.362   5.134  0.00  0.00    +0.238 C 
ATOM     11  O   UNL     1      -4.192   0.161   5.257  0.00  0.00    -0.274 OA
ATOM     12  C   UNL     1      -2.779   2.130   4.990  0.00  0.00    +0.144 C 
ATOM     13  C   UNL     1      -1.919   1.922   6.202  0.00  0.00    +0.110 C 
ATOM     14  C   UNL     1      -0.580   1.753   6.066  0.00  0.00    +0.199 C 
ATOM     15  O   UNL     1       0.006   1.771   4.858  0.00  0.00    -0.445 OA
ATOM     16  C   UNL     1      -0.720   1.529   3.752  0.00  0.00    +0.116 C 
ATOM     17  C   UNL     1      -2.058   1.686   3.744  0.00  0.00    +0.058 C 
ATOM     18  C   UNL     1      -2.816   1.448   2.582  0.00  0.00    +0.164 C 
ATOM     19  O   UNL     1      -4.022   1.582   2.619  0.00  0.00    -0.292 OA
ATOM     20  C   UNL     1      -2.159   1.030   1.294  0.00  0.00    +0.083 C 
ATOM     21  C   UNL     1      -0.729   1.579   1.267  0.00  0.00    +0.001 C 
ATOM     22  C   UNL     1       0.008   1.074   2.509  0.00  0.00    +0.078 C 
ATOM     23  C   UNL     1      -0.013   1.086   0.008  0.00  0.00    +0.008 C 
ATOM     24  H   UNL     1      -6.018   2.035   5.170  0.00  0.00    +0.155 HD
ENDROOT
BRANCH  14  25
ATOM     25  N   UNL     1       0.192   1.558   7.185  0.00  0.00    -0.328 N 
ATOM     26  H   UNL     1       1.150   1.436   7.098  0.00  0.00    +0.145 HD
ATOM     27  H   UNL     1      -0.222   1.544   8.062  0.00  0.00    +0.145 HD
ENDBRANCH  14  25
BRANCH  13  28
ATOM     28  C   UNL     1      -2.512   1.903   7.505  0.00  0.00    +0.102 C 
ATOM     29  N   UNL     1      -2.983   1.887   8.539  0.00  0.00    -0.191 NA
ENDBRANCH  13  28
TORSDOF 2
