REMARK  Name = ZINC03346161
REMARK  11 active torsions:
REMARK  status: ('A' for Active; 'I' for Inactive)
REMARK    1  A    between atoms: C_1  and  C_2
REMARK    2  A    between atoms: C_2  and  C_4
REMARK    3  A    between atoms: C_2  and  S_18
REMARK    4  A    between atoms: C_9  and  C_12
REMARK    5  A    between atoms: S_18  and  C_19
REMARK    6  A    between atoms: C_22  and  C_25
REMARK    7  A    between atoms: N_23  and  C_24
REMARK    8  A    between atoms: C_28  and  C_31
REMARK    9  A    between atoms: C_31  and  C_32
REMARK   10  A    between atoms: C_31  and  C_33
REMARK   11  A    between atoms: C_31  and  C_34
REMARK                            x       y       z     vdW  Elec       q    Type
REMARK                         _______ _______ _______ _____ _____    ______ ____
ROOT
ATOM      1  C   UNL     1      -0.798   1.492  -1.268  0.00  0.00    +0.029 C 
ATOM      2  C   UNL     1       0.008   1.191  -0.003  0.00  0.00    +0.137 C 
ENDROOT
BRANCH   2   3
ATOM      3  C   UNL     1      -0.696   1.778   1.194  0.00  0.00    +0.232 C 
ATOM      4  O   UNL     1      -0.382   2.876   1.603  0.00  0.00    -0.274 OA
ATOM      5  N   UNL     1      -1.674   1.084   1.808  0.00  0.00    -0.264 N 
ATOM      6  C   UNL     1      -2.322   1.625   2.911  0.00  0.00    +0.165 A 
ATOM      7  N   UNL     1      -3.293   1.113   3.643  0.00  0.00    -0.225 NA
ATOM      8  C   UNL     1      -3.801   1.774   4.673  0.00  0.00    +0.080 A 
ATOM      9  C   UNL     1      -3.310   3.012   4.982  0.00  0.00    +0.076 A 
ATOM     10  S   UNL     1      -2.059   3.197   3.719  0.00  0.00    -0.060 S 
ATOM     11  H   UNL     1      -1.958   0.088   1.436  0.00  0.00    +0.157 HD
BRANCH   8  12
ATOM     12  C   UNL     1      -4.892   1.177   5.481  0.00  0.00    +0.001 A 
ATOM     13  C   UNL     1      -5.420   1.875   6.566  0.00  0.00    +0.010 A 
ATOM     14  C   UNL     1      -6.439   1.317   7.312  0.00  0.00    +0.001 A 
ATOM     15  C   UNL     1      -6.929   0.064   6.990  0.00  0.00    +0.000 A 
ATOM     16  C   UNL     1      -6.405  -0.635   5.917  0.00  0.00    +0.001 A 
ATOM     17  C   UNL     1      -5.390  -0.085   5.161  0.00  0.00    +0.010 A 
ENDBRANCH   8  12
ENDBRANCH   2   3
BRANCH   2  18
ATOM     18  S   UNL     1       1.658   1.922  -0.151  0.00  0.00    -0.074 S 
BRANCH  18  19
ATOM     19  C   UNL     1       2.292   0.975  -1.494  0.00  0.00    +0.192 A 
ATOM     20  N   UNL     1       1.661   0.022  -2.143  0.00  0.00    -0.122 NA
ATOM     21  N   UNL     1       2.416  -0.460  -3.065  0.00  0.00    -0.128 NA
ATOM     22  C   UNL     1       3.575   0.156  -3.061  0.00  0.00    +0.165 A 
ATOM     23  N   UNL     1       3.530   1.098  -2.059  0.00  0.00    -0.305 N 
ATOM     24  C   UNL     1       4.588   2.035  -1.675  0.00  0.00    +0.153 C 
BRANCH  22  25
ATOM     25  C   UNL     1       4.713  -0.108  -3.967  0.00  0.00    +0.019 A 
ATOM     26  C   UNL     1       4.514  -0.808  -5.158  0.00  0.00    +0.012 A 
ATOM     27  C   UNL     1       5.579  -1.047  -6.002  0.00  0.00    +0.005 A 
ATOM     28  C   UNL     1       6.845  -0.603  -5.664  0.00  0.00    -0.042 A 
ATOM     29  C   UNL     1       7.051   0.087  -4.483  0.00  0.00    +0.005 A 
ATOM     30  C   UNL     1       5.994   0.337  -3.633  0.00  0.00    +0.012 A 
BRANCH  28  31
ATOM     31  C   UNL     1       8.005  -0.872  -6.588  0.00  0.00    -0.013 C 
ATOM     32  C   UNL     1       9.061  -1.700  -5.853  0.00  0.00    +0.015 C 
ATOM     33  C   UNL     1       7.513  -1.644  -7.813  0.00  0.00    +0.015 C 
ATOM     34  C   UNL     1       8.620   0.456  -7.035  0.00  0.00    +0.015 C 
ENDBRANCH  28  31
ENDBRANCH  22  25
ENDBRANCH  18  19
ENDBRANCH   2  18
TORSDOF 6
