REMARK  Name = ZINC16396518
REMARK  7 active torsions:
REMARK  status: ('A' for Active; 'I' for Inactive)
REMARK    1  A    between atoms: C_4  and  C_7
REMARK    2  A    between atoms: C_7  and  N_8
REMARK    3  A    between atoms: C_9  and  C_11
REMARK    4  A    between atoms: C_16  and  C_17
REMARK    5  A    between atoms: C_16  and  N_62
REMARK    6  A    between atoms: C_20  and  C_30
REMARK    7  A    between atoms: C_23  and  C_25
REMARK                            x       y       z     vdW  Elec       q    Type
REMARK                         _______ _______ _______ _____ _____    ______ ____
ROOT
ATOM      1  C   UNL     1       0.002  -0.004   0.002  0.00  0.00    +0.021 C 
ENDROOT
BRANCH   1   7
ATOM      2  C   UNL     1      -3.609  -2.096   0.931  0.00  0.00    +0.071 C 
ATOM      3  C   UNL     1      -2.856  -2.429  -0.360  0.00  0.00    -0.006 C 
ATOM      4  C   UNL     1      -1.405  -1.960  -0.233  0.00  0.00    -0.077 C 
ATOM      5  C   UNL     1      -2.052  -0.174   1.271  0.00  0.00    -0.077 C 
ATOM      6  C   UNL     1      -3.523  -0.589   1.189  0.00  0.00    -0.006 C 
ATOM      7  N   UNL     1      -1.390  -0.498  -0.010  0.00  0.00    +0.385 N 
ATOM      8  H   UNL     1      -1.900  -0.040  -0.774  0.00  0.00    -0.081 HD
BRANCH   2  10
ATOM      9  N   UNL     1      -5.912  -2.303   1.810  0.00  0.00    -0.311 N 
ATOM     10  C   UNL     1      -5.054  -2.502   0.790  0.00  0.00    +0.216 C 
ATOM     11  O   UNL     1      -5.444  -3.008  -0.241  0.00  0.00    -0.276 OA
ATOM     12  H   UNL     1      -5.600  -1.899   2.635  0.00  0.00    +0.149 HD
BRANCH   9  13
ATOM     13  C   UNL     1      -7.316  -2.698   1.673  0.00  0.00    +0.139 C 
BRANCH  13  17
ATOM     14  C   UNL     1      -9.415  -1.769   5.276  0.00  0.00    +0.000 A 
ATOM     15  C   UNL     1      -9.338  -0.835   4.260  0.00  0.00    +0.000 A 
ATOM     16  C   UNL     1      -8.659  -1.135   3.095  0.00  0.00    +0.005 A 
ATOM     17  C   UNL     1      -8.056  -2.370   2.945  0.00  0.00    -0.030 A 
ATOM     18  C   UNL     1      -8.138  -3.307   3.958  0.00  0.00    +0.005 A 
ATOM     19  C   UNL     1      -8.812  -3.004   5.126  0.00  0.00    +0.000 A 
ENDBRANCH  13  17
ENDBRANCH   9  13
ENDBRANCH   2  10
ENDBRANCH   1   7
BRANCH   1  20
ATOM     20  C   UNL     1      -0.018   1.503   0.010  0.00  0.00    +0.219 C 
ATOM     21  O   UNL     1      -1.077   2.095   0.018  0.00  0.00    -0.276 OA
ATOM     22  N   UNL     1       1.139   2.192   0.003  0.00  0.00    -0.186 N 
ATOM     23  C   UNL     1       1.262   3.659   0.004  0.00  0.00    +0.143 C 
ATOM     24  C   UNL     1       2.785   3.896  -0.003  0.00  0.00    +0.088 C 
ATOM     25  C   UNL     1       3.371   2.502  -0.017  0.00  0.00    +0.075 C 
ATOM     26  N   UNL     1       2.416   1.633  -0.013  0.00  0.00    -0.180 NA
BRANCH  25  27
ATOM     27  C   UNL     1       4.803   2.185  -0.033  0.00  0.00    +0.035 A 
ATOM     28  C   UNL     1       5.423   0.948  -0.046  0.00  0.00    +0.017 A 
ATOM     29  C   UNL     1       6.798   0.906  -0.060  0.00  0.00    +0.008 A 
ATOM     30  C   UNL     1       7.499   2.070  -0.060  0.00  0.00    +0.046 A 
ATOM     31  S   UNL     1       6.201   3.296  -0.047  0.00  0.00    -0.095 S 
ENDBRANCH  25  27
BRANCH  23  32
ATOM     32  C   UNL     1       0.643   4.242   1.248  0.00  0.00    +0.013 A 
ATOM     33  C   UNL     1      -0.083   5.377   1.389  0.00  0.00    +0.013 A 
ATOM     34  C   UNL     1      -0.557   5.719   2.642  0.00  0.00    +0.008 A 
ATOM     35  C   UNL     1      -0.280   4.909   3.692  0.00  0.00    +0.045 A 
ATOM     36  S   UNL     1       0.671   3.612   2.918  0.00  0.00    -0.100 S 
ENDBRANCH  23  32
ENDBRANCH   1  20
TORSDOF 7
