REMARK  Name = ZINC35664431
REMARK  13 active torsions:
REMARK  status: ('A' for Active; 'I' for Inactive)
REMARK    1  A    between atoms: C_1  and  C_2
REMARK    2  A    between atoms: C_2  and  N_3
REMARK    3  A    between atoms: C_4  and  C_21
REMARK    4  A    between atoms: C_5  and  C_16
REMARK    5  A    between atoms: C_6  and  C_11
REMARK    6  A    between atoms: C_16  and  O_18
REMARK    7  A    between atoms: O_18  and  C_19
REMARK    8  A    between atoms: C_19  and  C_20
REMARK    9  A    between atoms: C_21  and  N_22
REMARK   10  A    between atoms: N_31  and  C_32
REMARK   11  A    between atoms: C_32  and  C_33
REMARK   12  A    between atoms: C_32  and  C_34
REMARK   13  A    between atoms: C_32  and  C_35
REMARK                            x       y       z     vdW  Elec       q    Type
REMARK                         _______ _______ _______ _____ _____    ______ ____
ROOT
ATOM      1  N   UNL     1       1.489  -0.197  -2.379  0.00  0.00    -0.261 N 
ATOM      2  C   UNL     1       0.462  -0.929  -2.903  0.00  0.00    +0.010 C 
ATOM      3  C   UNL     1       0.700  -2.048  -3.622  0.00  0.00    +0.076 C 
ATOM      4  C   UNL     1       2.143  -2.462  -3.826  0.00  0.00    +0.144 C 
ATOM      5  N   UNL     1       3.175  -1.604  -3.220  0.00  0.00    -0.288 N 
ATOM      6  C   UNL     1       2.781  -0.513  -2.532  0.00  0.00    +0.307 C 
ATOM      7  O   UNL     1       3.625   0.203  -2.031  0.00  0.00    -0.252 OA
ATOM      8  H   UNL     1       4.117  -1.816  -3.315  0.00  0.00    +0.151 HD
ENDROOT
BRANCH   4   9
ATOM      9  C   UNL     1       2.311  -3.852  -3.270  0.00  0.00    -0.015 A 
ATOM     10  C   UNL     1       2.316  -4.948  -4.112  0.00  0.00    +0.013 A 
ATOM     11  C   UNL     1       2.469  -6.186  -3.579  0.00  0.00    +0.045 A 
ATOM     12  S   UNL     1       2.612  -5.823  -1.837  0.00  0.00    -0.105 S 
ATOM     13  C   UNL     1       2.464  -4.046  -1.937  0.00  0.00    +0.051 A 
ENDBRANCH   4   9
BRANCH   1  15
ATOM     14  C   UNL     1       1.072   2.206  -2.554  0.00  0.00    +0.025 C 
ATOM     15  C   UNL     1       1.158   1.006  -1.610  0.00  0.00    +0.111 C 
ENDBRANCH   1  15
BRANCH   3  16
ATOM     16  C   UNL     1      -0.362  -2.808  -4.165  0.00  0.00    +0.339 C 
ATOM     17  O   UNL     1      -1.511  -2.430  -4.031  0.00  0.00    -0.245 OA
BRANCH  16  18
ATOM     18  O   UNL     1      -0.102  -3.952  -4.831  0.00  0.00    -0.462 OA
BRANCH  18  19
ATOM     19  C   UNL     1      -1.223  -4.668  -5.353  0.00  0.00    +0.229 C 
ATOM     20  C   UNL     1      -0.734  -5.928  -6.070  0.00  0.00    +0.048 C 
ENDBRANCH  18  19
ENDBRANCH  16  18
ENDBRANCH   3  16
BRANCH   2  21
ATOM     21  C   UNL     1      -0.959  -0.482  -2.676  0.00  0.00    -0.026 C 
BRANCH  21  22
ATOM     22  N   UNL     1      -1.555  -1.276  -1.594  0.00  0.00    +0.384 N 
ATOM     23  C   UNL     1      -2.993  -1.017  -1.571  0.00  0.00    -0.077 C 
ATOM     24  C   UNL     1      -3.712  -2.240  -1.047  0.00  0.00    +0.000 C 
ATOM     25  C   UNL     1      -3.919  -2.102   0.473  0.00  0.00    +0.107 C 
ATOM     26  N   UNL     1      -2.730  -1.509   1.118  0.00  0.00    -0.287 N 
ATOM     27  C   UNL     1      -1.380  -1.883   0.751  0.00  0.00    +0.091 C 
ATOM     28  C   UNL     1      -0.876  -0.973  -0.393  0.00  0.00    -0.059 C 
ATOM     29  C   UNL     1      -2.909  -0.585   2.084  0.00  0.00    +0.303 C 
ATOM     30  O   UNL     1      -4.030  -0.319   2.471  0.00  0.00    -0.253 OA
ATOM     31  N   UNL     1      -1.844   0.043   2.620  0.00  0.00    -0.294 N 
ATOM     32  H   UNL     1      -0.956  -0.116   2.263  0.00  0.00    +0.151 HD
ATOM     33  H   UNL     1      -1.413  -2.253  -1.802  0.00  0.00    -0.081 HD
BRANCH  31  34
ATOM     34  C   UNL     1      -2.027   0.965   3.744  0.00  0.00    +0.028 C 
ATOM     35  C   UNL     1      -2.646   0.214   4.924  0.00  0.00    +0.031 C 
ATOM     36  C   UNL     1      -0.670   1.538   4.159  0.00  0.00    +0.031 C 
ATOM     37  C   UNL     1      -2.954   2.106   3.321  0.00  0.00    +0.031 C 
ENDBRANCH  31  34
ENDBRANCH  21  22
ENDBRANCH   2  21
TORSDOF 8
