REMARK  Name = ZINC43758386
REMARK  11 active torsions:
REMARK  status: ('A' for Active; 'I' for Inactive)
REMARK    1  A    between atoms: C_1  and  C_2
REMARK    2  A    between atoms: C_2  and  C_4
REMARK    3  A    between atoms: C_2  and  C_10
REMARK    4  A    between atoms: C_4  and  C_5
REMARK    5  A    between atoms: C_5  and  C_6
REMARK    6  A    between atoms: C_6  and  C_7
REMARK    7  A    between atoms: C_7  and  C_8
REMARK    8  A    between atoms: C_7  and  C_9
REMARK    9  A    between atoms: C_16  and  C_34
REMARK   10  A    between atoms: C_25  and  O_33
REMARK   11  A    between atoms: C_26  and  C_32
REMARK                            x       y       z     vdW  Elec       q    Type
REMARK                         _______ _______ _______ _____ _____    ______ ____
ROOT
ATOM      1  C   UNL     1       0.694  -0.613  -1.163  0.00  0.00    -0.002 C 
ATOM      2  C   UNL     1      -0.065  -0.099  -2.416  0.00  0.00    +0.004 C 
ATOM      3  C   UNL     1      -0.857  -1.314  -2.978  0.00  0.00    +0.004 C 
ATOM      4  C   UNL     1      -0.899  -2.264  -1.769  0.00  0.00    -0.001 C 
ATOM      5  C   UNL     1       0.547  -2.144  -1.245  0.00  0.00    -0.026 C 
ATOM      6  C   UNL     1       0.714  -2.918   0.030  0.00  0.00    +0.007 C 
ATOM      7  C   UNL     1       0.140  -4.339  -0.075  0.00  0.00    +0.005 C 
ATOM      8  C   UNL     1      -0.332  -4.699  -1.470  0.00  0.00    +0.001 C 
ATOM      9  C   UNL     1      -1.320  -3.675  -2.024  0.00  0.00    -0.004 C 
ATOM     10  C   UNL     1      -1.554  -3.981  -3.506  0.00  0.00    +0.007 C 
ATOM     11  C   UNL     1      -2.224  -5.356  -3.597  0.00  0.00    +0.043 C 
ATOM     12  C   UNL     1      -1.336  -6.427  -2.968  0.00  0.00    +0.129 C 
ATOM     13  C   UNL     1      -0.989  -6.086  -1.515  0.00  0.00    +0.007 C 
ATOM     14  C   UNL     1      -2.237  -6.120  -0.647  0.00  0.00    +0.010 C 
ATOM     15  C   UNL     1      -2.893  -7.500  -0.654  0.00  0.00    +0.008 C 
ATOM     16  C   UNL     1      -3.288  -7.890  -2.080  0.00  0.00    +0.077 C 
ATOM     17  C   UNL     1      -2.082  -7.746  -2.980  0.00  0.00    +0.165 C 
ATOM     18  O   UNL     1      -1.723  -8.655  -3.689  0.00  0.00    -0.294 OA
ATOM     19  C   UNL     1       0.025  -7.119  -1.008  0.00  0.00    +0.015 C 
ATOM     20  C   UNL     1       1.581  -2.598  -2.287  0.00  0.00    +0.012 C 
ENDROOT
BRANCH   1  22
ATOM     21  C   UNL     1      -1.449  -0.219   0.048  0.00  0.00    +0.008 C 
ATOM     22  C   UNL     1       0.070  -0.041   0.103  0.00  0.00    -0.010 C 
BRANCH  22  23
ATOM     23  C   UNL     1       0.405   1.448   0.209  0.00  0.00    +0.003 C 
BRANCH  23  24
ATOM     24  C   UNL     1      -0.157   2.005   1.519  0.00  0.00    +0.001 C 
BRANCH  24  25
ATOM     25  C   UNL     1       0.178   3.494   1.626  0.00  0.00    +0.003 C 
BRANCH  25  26
ATOM     26  C   UNL     1      -0.383   4.051   2.935  0.00  0.00    -0.017 C 
ATOM     27  C   UNL     1       0.329   3.390   4.117  0.00  0.00    +0.007 C 
ATOM     28  C   UNL     1      -0.158   5.563   2.985  0.00  0.00    +0.007 C 
ENDBRANCH  25  26
ENDBRANCH  24  25
ENDBRANCH  23  24
ENDBRANCH  22  23
ENDBRANCH   1  22
BRANCH  12  29
ATOM     29  O   UNL     1      -0.132  -6.560  -3.730  0.00  0.00    -0.381 OA
ATOM     30  H   UNL     1      -0.275  -6.815  -4.651  0.00  0.00    +0.211 HD
ENDBRANCH  12  29
TORSDOF 6
