REMARK  Name = ZINC13495841
REMARK  12 active torsions:
REMARK  status: ('A' for Active; 'I' for Inactive)
REMARK    1  A    between atoms: C_1  and  C_2
REMARK    2  A    between atoms: C_2  and  C_3
REMARK    3  A    between atoms: C_3  and  C_5
REMARK    4  A    between atoms: C_3  and  N_75
REMARK    5  A    between atoms: N_9  and  C_10
REMARK    6  A    between atoms: C_16  and  C_17
REMARK    7  A    between atoms: C_16  and  N_75
REMARK    8  A    between atoms: C_17  and  C_18
REMARK    9  A    between atoms: C_24  and  C_25
REMARK   10  A    between atoms: C_24  and  N_75
REMARK   11  A    between atoms: C_29  and  C_38
REMARK   12  A    between atoms: C_31  and  C_37
REMARK                            x       y       z     vdW  Elec       q    Type
REMARK                         _______ _______ _______ _____ _____    ______ ____
ROOT
ATOM      1  N   UNL     1      -1.770  -1.055   1.707  0.00  0.00    +0.389 N 
ATOM      2  H   UNL     1      -1.147  -1.450   2.421  0.00  0.00    -0.080 HD
ENDROOT
BRANCH   1   3
ATOM      3  C   UNL     1      -3.024  -1.837   1.679  0.00  0.00    +0.003 C 
BRANCH   3   4
ATOM      4  C   UNL     1      -2.699  -3.277   1.981  0.00  0.00    +0.138 A 
ATOM      5  N   UNL     1      -1.687  -3.966   1.512  0.00  0.00    -0.115 NA
ATOM      6  N   UNL     1      -1.753  -5.155   2.004  0.00  0.00    -0.023 NA
ATOM      7  N   UNL     1      -2.785  -5.245   2.768  0.00  0.00    -0.044 NA
ATOM      8  N   UNL     1      -3.394  -4.108   2.780  0.00  0.00    -0.228 N 
BRANCH   8   9
ATOM      9  C   UNL     1      -4.614  -3.782   3.524  0.00  0.00    +0.111 C 
ATOM     10  C   UNL     1      -4.367  -3.980   5.021  0.00  0.00    +0.027 C 
ATOM     11  C   UNL     1      -5.640  -3.639   5.797  0.00  0.00    +0.002 C 
ATOM     12  C   UNL     1      -6.776  -4.557   5.342  0.00  0.00    +0.000 C 
ATOM     13  C   UNL     1      -7.023  -4.359   3.845  0.00  0.00    +0.002 C 
ATOM     14  C   UNL     1      -5.750  -4.699   3.068  0.00  0.00    +0.027 C 
ENDBRANCH   8   9
ENDBRANCH   3   4
BRANCH   3  16
ATOM     15  C   UNL     1      -4.142  -0.302   0.056  0.00  0.00    +0.002 C 
ATOM     16  C   UNL     1      -3.683  -1.741   0.302  0.00  0.00    -0.011 C 
ENDBRANCH   3  16
ENDBRANCH   1   3
BRANCH   1  17
ATOM     17  C   UNL     1      -2.061   0.353   2.048  0.00  0.00    -0.073 C 
BRANCH  17  18
ATOM     18  C   UNL     1      -2.544   0.420   3.498  0.00  0.00    +0.016 C 
BRANCH  18  19
ATOM     19  C   UNL     1      -2.708   1.862   3.907  0.00  0.00    -0.049 A 
ATOM     20  C   UNL     1      -1.649   2.543   4.477  0.00  0.00    +0.003 A 
ATOM     21  C   UNL     1      -1.797   3.867   4.847  0.00  0.00    +0.000 A 
ATOM     22  C   UNL     1      -3.008   4.506   4.657  0.00  0.00    +0.000 A 
ATOM     23  C   UNL     1      -4.069   3.823   4.092  0.00  0.00    +0.000 A 
ATOM     24  C   UNL     1      -3.919   2.501   3.717  0.00  0.00    +0.003 A 
ENDBRANCH  18  19
ENDBRANCH  17  18
ENDBRANCH   1  17
BRANCH   1  25
ATOM     25  C   UNL     1      -1.100  -1.129   0.392  0.00  0.00    -0.037 C 
BRANCH  25  26
ATOM     26  C   UNL     1       0.312  -0.623   0.539  0.00  0.00    +0.001 A 
ATOM     27  C   UNL     1       1.323  -1.497   0.768  0.00  0.00    +0.017 A 
ATOM     28  C   UNL     1       2.683  -0.973   0.906  0.00  0.00    -0.001 A 
ATOM     29  C   UNL     1       3.766  -1.826   1.143  0.00  0.00    +0.013 A 
ATOM     30  C   UNL     1       5.023  -1.306   1.267  0.00  0.00    -0.050 A 
ATOM     31  C   UNL     1       5.235   0.062   1.160  0.00  0.00    +0.008 A 
ATOM     32  C   UNL     1       4.183   0.921   0.926  0.00  0.00    -0.026 A 
ATOM     33  C   UNL     1       2.894   0.414   0.797  0.00  0.00    +0.052 A 
ATOM     34  N   UNL     1       1.823   1.250   0.564  0.00  0.00    -0.322 N 
ATOM     35  H   UNL     1       1.970   2.206   0.488  0.00  0.00    +0.169 HD
ATOM     36  C   UNL     1       0.578   0.760   0.438  0.00  0.00    +0.251 A 
ATOM     37  O   UNL     1      -0.345   1.528   0.226  0.00  0.00    -0.268 OA
ATOM     38  C   UNL     1       4.428   2.404   0.812  0.00  0.00    +0.046 C 
ATOM     39  C   UNL     1       6.190  -2.225   1.522  0.00  0.00    +0.044 C 
ENDBRANCH  25  26
ENDBRANCH   1  25
TORSDOF 9
