REMARK  Name = ZINC06135275
REMARK  12 active torsions:
REMARK  status: ('A' for Active; 'I' for Inactive)
REMARK    1  A    between atoms: C_1  and  C_2
REMARK    2  A    between atoms: C_2  and  C_3
REMARK    3  A    between atoms: C_10  and  C_15
REMARK    4  A    between atoms: C_15  and  C_17
REMARK    5  A    between atoms: C_15  and  N_74
REMARK    6  A    between atoms: N_21  and  C_22
REMARK    7  A    between atoms: C_22  and  C_23
REMARK    8  A    between atoms: C_22  and  C_24
REMARK    9  A    between atoms: C_22  and  C_25
REMARK   10  A    between atoms: N_28  and  C_31
REMARK   11  A    between atoms: C_35  and  C_38
REMARK   12  A    between atoms: C_36  and  C_37
REMARK                            x       y       z     vdW  Elec       q    Type
REMARK                         _______ _______ _______ _____ _____    ______ ____
ROOT
ATOM      1  C   UNL     1       3.493   0.618  -0.307  0.00  0.00    +0.039 C 
ENDROOT
BRANCH   1   9
ATOM      2  C   UNL     1       5.690   0.269  -6.081  0.00  0.00    -0.047 A 
ATOM      3  C   UNL     1       5.381   1.573  -6.444  0.00  0.00    +0.005 A 
ATOM      4  C   UNL     1       4.769   2.425  -5.550  0.00  0.00    +0.026 A 
ATOM      5  C   UNL     1       4.460   1.978  -4.270  0.00  0.00    +0.049 A 
ATOM      6  C   UNL     1       4.775   0.655  -3.906  0.00  0.00    -0.001 A 
ATOM      7  C   UNL     1       5.394  -0.193  -4.829  0.00  0.00    +0.013 A 
ATOM      8  C   UNL     1       4.450   0.195  -2.554  0.00  0.00    +0.017 A 
ATOM      9  C   UNL     1       3.845   1.061  -1.703  0.00  0.00    +0.011 A 
ATOM     10  C   UNL     1       3.551   2.377  -2.119  0.00  0.00    +0.251 A 
ATOM     11  O   UNL     1       3.011   3.140  -1.336  0.00  0.00    -0.268 OA
ATOM     12  N   UNL     1       3.850   2.810  -3.356  0.00  0.00    -0.322 N 
ATOM     13  H   UNL     1       3.626   3.749  -3.617  0.00  0.00    +0.169 HD
BRANCH   2  15
ATOM     14  C   UNL     1       5.290  -1.391  -7.879  0.00  0.00    +0.009 C 
ATOM     15  C   UNL     1       6.357  -0.645  -7.075  0.00  0.00    +0.032 C 
ENDBRANCH   2  15
ENDBRANCH   1   9
BRANCH   1  21
ATOM     16  C   UNL     1       5.552   1.625   0.474  0.00  0.00    -0.058 C 
ATOM     17  C   UNL     1       6.132   2.650   1.452  0.00  0.00    +0.086 C 
ATOM     18  N   UNL     1       5.809   2.248   2.828  0.00  0.00    -0.333 N 
ATOM     19  C   UNL     1       4.355   2.160   3.020  0.00  0.00    +0.086 C 
ATOM     20  C   UNL     1       3.775   1.135   2.042  0.00  0.00    -0.058 C 
ATOM     21  N   UNL     1       4.088   1.563   0.662  0.00  0.00    +0.391 N 
ATOM     22  H   UNL     1       3.691   2.496   0.504  0.00  0.00    -0.080 HD
BRANCH  18  23
ATOM     23  C   UNL     1       6.385   3.122   3.752  0.00  0.00    +0.033 A 
ATOM     24  C   UNL     1       5.994   4.455   3.787  0.00  0.00    +0.023 A 
ATOM     25  C   UNL     1       6.564   5.317   4.703  0.00  0.00    +0.002 A 
ATOM     26  C   UNL     1       7.524   4.854   5.585  0.00  0.00    +0.004 A 
ATOM     27  C   UNL     1       7.915   3.529   5.553  0.00  0.00    -0.046 A 
ATOM     28  C   UNL     1       7.344   2.660   4.644  0.00  0.00    -0.027 A 
ATOM     29  C   UNL     1       7.767   1.214   4.614  0.00  0.00    +0.046 C 
ATOM     30  C   UNL     1       8.961   3.029   6.516  0.00  0.00    +0.044 C 
ENDBRANCH  18  23
ENDBRANCH   1  21
BRANCH   1  31
ATOM     31  C   UNL     1       1.995   0.625  -0.140  0.00  0.00    +0.143 A 
ATOM     32  N   UNL     1       1.217   1.679  -0.098  0.00  0.00    -0.115 NA
ATOM     33  N   UNL     1       0.004   1.272   0.055  0.00  0.00    -0.023 NA
ATOM     34  N   UNL     1      -0.012  -0.014   0.111  0.00  0.00    -0.043 NA
ATOM     35  N   UNL     1       1.196  -0.451  -0.006  0.00  0.00    -0.225 N 
BRANCH  35  36
ATOM     36  C   UNL     1       1.620  -1.853   0.006  0.00  0.00    +0.059 C 
ATOM     37  C   UNL     1       0.390  -2.756   0.117  0.00  0.00    +0.036 C 
ATOM     38  C   UNL     1       2.370  -2.170  -1.289  0.00  0.00    +0.036 C 
ATOM     39  C   UNL     1       2.542  -2.097   1.203  0.00  0.00    +0.036 C 
ENDBRANCH  35  36
ENDBRANCH   1  31
TORSDOF 6
