REMARK  Name = ZINC03268884
REMARK  4 active torsions:
REMARK  status: ('A' for Active; 'I' for Inactive)
REMARK    1  A    between atoms: C_4  and  N_9
REMARK    2  A    between atoms: C_5  and  C_6
REMARK    3  A    between atoms: C_10  and  C_12
REMARK    4  A    between atoms: C_12  and  N_13
REMARK                            x       y       z     vdW  Elec       q    Type
REMARK                         _______ _______ _______ _____ _____    ______ ____
ROOT
ATOM      1  C   UNL     1       2.326   5.787   0.010  0.00  0.00    +0.214 C 
ENDROOT
BRANCH   1   2
ATOM      2  N   UNL     1       1.336   6.867   0.026  0.00  0.00    -0.215 N 
ATOM      3  C   UNL     1       0.816   7.436  -1.079  0.00  0.00    +0.247 C 
ATOM      4  O   UNL     1       1.085   7.188  -2.234  0.00  0.00    -0.273 OA
ATOM      5  C   UNL     1      -0.186   8.464  -0.582  0.00  0.00    +0.113 C 
ATOM      6  C   UNL     1       0.114   9.861  -1.098  0.00  0.00    +0.035 C 
ATOM      7  C   UNL     1      -1.094  10.774  -0.848  0.00  0.00    +0.003 C 
ATOM      8  C   UNL     1      -1.276  11.019   0.640  0.00  0.00    +0.000 C 
ATOM      9  C   UNL     1      -2.417  10.256   1.284  0.00  0.00    +0.000 C 
ATOM     10  C   UNL     1      -3.188   9.340   0.352  0.00  0.00    +0.000 C 
ATOM     11  C   UNL     1      -2.499   7.981   0.208  0.00  0.00    +0.003 C 
ATOM     12  C   UNL     1      -1.589   8.023  -1.032  0.00  0.00    +0.035 C 
ATOM     13  N   UNL     1      -0.049   8.395   0.874  0.00  0.00    -0.285 N 
ATOM     14  C   UNL     1       0.839   7.415   1.139  0.00  0.00    +0.310 C 
ATOM     15  O   UNL     1       1.151   7.073   2.263  0.00  0.00    -0.252 OA
ATOM     16  H   UNL     1      -0.492   8.944   1.538  0.00  0.00    +0.151 HD
ENDBRANCH   1   2
BRANCH   1  18
ATOM     17  N   UNL     1       2.332   3.313  -0.003  0.00  0.00    -0.278 N 
ATOM     18  C   UNL     1       1.618   4.456   0.010  0.00  0.00    +0.236 C 
ATOM     19  O   UNL     1       0.406   4.414   0.022  0.00  0.00    -0.274 OA
ATOM     20  H   UNL     1       3.302   3.347  -0.012  0.00  0.00    +0.155 HD
BRANCH  17  24
ATOM     21  C   UNL     1       1.315  -0.296  -0.012  0.00  0.00    +0.022 A 
ATOM     22  C   UNL     1       0.002  -0.004   0.002  0.00  0.00    +0.048 A 
ATOM     23  S   UNL     1      -0.022   1.776   0.012  0.00  0.00    -0.081 S 
ATOM     24  C   UNL     1       1.681   2.089  -0.003  0.00  0.00    +0.084 A 
ATOM     25  C   UNL     1       2.237   0.815  -0.015  0.00  0.00    +0.065 A 
BRANCH  25  26
ATOM     26  C   UNL     1       3.689   0.610  -0.030  0.00  0.00    +0.244 C 
ATOM     27  O   UNL     1       4.439   1.568  -0.033  0.00  0.00    -0.270 OA
ATOM     28  N   UNL     1       4.192  -0.640  -0.042  0.00  0.00    -0.325 N 
ATOM     29  H   UNL     1       3.595  -1.404  -0.040  0.00  0.00    +0.145 HD
ATOM     30  H   UNL     1       5.153  -0.776  -0.052  0.00  0.00    +0.145 HD
ENDBRANCH  25  26
ENDBRANCH  17  24
ENDBRANCH   1  18
TORSDOF 4
