REMARK  Name = ZINC15968452
REMARK  4 active torsions:
REMARK  status: ('A' for Active; 'I' for Inactive)
REMARK    1  A    between atoms: C_1  and  C_2
REMARK    2  A    between atoms: C_16  and  C_19
REMARK    3  A    between atoms: C_19  and  C_20
REMARK    4  A    between atoms: N_32  and  C_35
REMARK                            x       y       z     vdW  Elec       q    Type
REMARK                         _______ _______ _______ _____ _____    ______ ____
ROOT
ATOM      1  C   UNL     1       1.077   1.298   0.158  0.00  0.00    +0.046 C 
ATOM      2  C   UNL     1       0.783  -0.179   0.104  0.00  0.00    -0.028 A 
ATOM      3  C   UNL     1       0.617  -0.802  -1.116  0.00  0.00    +0.025 A 
ATOM      4  C   UNL     1       0.347  -2.158  -1.176  0.00  0.00    +0.042 A 
ATOM      5  C   UNL     1       0.242  -2.892  -0.006  0.00  0.00    +0.027 A 
ATOM      6  C   UNL     1       0.406  -2.273   1.212  0.00  0.00    +0.005 A 
ATOM      7  C   UNL     1       0.684  -0.910   1.284  0.00  0.00    +0.042 A 
ATOM      8  N   UNL     1       0.813  -0.514   2.618  0.00  0.00    -0.283 N 
ATOM      9  C   UNL     1       0.643  -1.542   3.472  0.00  0.00    +0.243 C 
ATOM     10  O   UNL     1       0.698  -1.494   4.683  0.00  0.00    -0.273 OA
ATOM     11  C   UNL     1       0.359  -2.758   2.633  0.00  0.00    +0.136 C 
ATOM     12  C   UNL     1      -1.000  -3.384   2.969  0.00  0.00    +0.123 C 
ATOM     13  C   UNL     1      -0.773  -4.914   2.817  0.00  0.00    +0.108 C 
ATOM     14  C   UNL     1       0.700  -5.055   2.380  0.00  0.00    +0.072 C 
ATOM     15  N   UNL     1       1.361  -3.812   2.878  0.00  0.00    -0.295 NA
ATOM     16  C   UNL     1      -0.943  -5.435   4.226  0.00  0.00    +0.232 C 
ATOM     17  O   UNL     1      -0.839  -6.595   4.561  0.00  0.00    -0.274 OA
ATOM     18  N   UNL     1      -1.225  -4.416   5.045  0.00  0.00    -0.210 N 
ATOM     19  C   UNL     1      -1.291  -3.206   4.443  0.00  0.00    +0.233 C 
ATOM     20  O   UNL     1      -1.539  -2.150   4.985  0.00  0.00    -0.274 OA
ATOM     21 CL   UNL     1       0.139  -2.937  -2.714  0.00  0.00    -0.084 Cl
ATOM     22  H   UNL     1       1.004   0.395   2.896  0.00  0.00    +0.155 HD
ATOM     23  H   UNL     1       2.211  -3.629   2.365  0.00  0.00    +0.124 HD
ENDROOT
BRANCH  18  24
ATOM     24  C   UNL     1      -1.442  -4.586   6.420  0.00  0.00    +0.044 A 
ATOM     25  C   UNL     1      -0.396  -4.974   7.246  0.00  0.00    +0.024 A 
ATOM     26  C   UNL     1      -0.613  -5.141   8.600  0.00  0.00    +0.002 A 
ATOM     27  C   UNL     1      -1.870  -4.922   9.132  0.00  0.00    +0.000 A 
ATOM     28  C   UNL     1      -2.914  -4.535   8.312  0.00  0.00    +0.002 A 
ATOM     29  C   UNL     1      -2.702  -4.361   6.958  0.00  0.00    +0.024 A 
ENDBRANCH  18  24
BRANCH  14  30
ATOM     30  C   UNL     1       1.336  -6.280   3.038  0.00  0.00    +0.056 C 
BRANCH  30  31
ATOM     31  C   UNL     1       2.733  -6.470   2.505  0.00  0.00    -0.021 A 
ATOM     32  C   UNL     1       3.098  -7.264   1.486  0.00  0.00    +0.087 A 
ATOM     33  N   UNL     1       4.449  -7.178   1.288  0.00  0.00    -0.360 N 
ATOM     34  H   UNL     1       4.944  -7.661   0.608  0.00  0.00    +0.165 HD
ATOM     35  C   UNL     1       5.001  -6.304   2.197  0.00  0.00    +0.047 A 
ATOM     36  C   UNL     1       3.949  -5.817   2.995  0.00  0.00    +0.003 A 
ATOM     37  C   UNL     1       4.214  -4.897   4.011  0.00  0.00    +0.010 A 
ATOM     38  C   UNL     1       5.495  -4.471   4.223  0.00  0.00    +0.001 A 
ATOM     39  C   UNL     1       6.535  -4.945   3.436  0.00  0.00    +0.002 A 
ATOM     40  C   UNL     1       6.297  -5.860   2.434  0.00  0.00    +0.026 A 
ENDBRANCH  30  31
ENDBRANCH  14  30
TORSDOF 3
