REMARK  Name = ZINC33933475
REMARK  8 active torsions:
REMARK  status: ('A' for Active; 'I' for Inactive)
REMARK    1  A    between atoms: C_1  and  C_2
REMARK    2  A    between atoms: C_2  and  C_4
REMARK    3  A    between atoms: C_2  and  O_39
REMARK    4  A    between atoms: C_4  and  C_36
REMARK    5  A    between atoms: C_9  and  C_12
REMARK    6  A    between atoms: C_16  and  C_18
REMARK    7  A    between atoms: N_24  and  C_27
REMARK    8  A    between atoms: C_31  and  N_33
REMARK                            x       y       z     vdW  Elec       q    Type
REMARK                         _______ _______ _______ _____ _____    ______ ____
ROOT
ATOM      1  C   UNL     1      -1.433  -0.534   0.013  0.00  0.00    +0.074 C 
ATOM      2  C   UNL     1      -1.435  -2.043   0.189  0.00  0.00    +0.089 C 
ATOM      3  C   UNL     1      -1.381  -2.095   1.763  0.00  0.00    +0.077 C 
ATOM      4  C   UNL     1      -2.441  -1.143   2.137  0.00  0.00    -0.027 C 
ATOM      5  N   UNL     1      -2.175   0.008   1.191  0.00  0.00    +0.397 N 
ATOM      6  C   UNL     1      -0.989  -3.462   1.998  0.00  0.00    +0.229 C 
ATOM      7  O   UNL     1      -1.322  -4.177   2.919  0.00  0.00    -0.275 OA
ATOM      8  N   UNL     1      -0.158  -3.780   0.953  0.00  0.00    -0.210 N 
ATOM      9  C   UNL     1      -0.210  -2.862  -0.073  0.00  0.00    +0.229 C 
ATOM     10  O   UNL     1       0.571  -2.735  -0.992  0.00  0.00    -0.275 OA
ATOM     11  H   UNL     1      -1.619   0.714   1.651  0.00  0.00    -0.083 HD
ATOM     12  H   UNL     1      -3.052   0.406   0.890  0.00  0.00    -0.083 HD
ENDROOT
BRANCH   4  13
ATOM     13  C   UNL     1      -3.804  -1.745   1.913  0.00  0.00    -0.060 A 
ATOM     14  C   UNL     1      -4.345  -1.778   0.640  0.00  0.00    +0.002 A 
ATOM     15  C   UNL     1      -5.596  -2.330   0.435  0.00  0.00    +0.001 A 
ATOM     16  C   UNL     1      -6.305  -2.851   1.501  0.00  0.00    +0.012 A 
ATOM     17  C   UNL     1      -5.764  -2.819   2.773  0.00  0.00    +0.055 A 
ATOM     18  C   UNL     1      -4.512  -2.271   2.978  0.00  0.00    +0.014 A 
BRANCH  17  19
ATOM     19  C   UNL     1      -6.538  -3.386   3.935  0.00  0.00    +0.417 C 
ATOM     20  F   UNL     1      -7.764  -3.883   3.481  0.00  0.00    -0.166 F 
ATOM     21  F   UNL     1      -5.804  -4.422   4.523  0.00  0.00    -0.166 F 
ATOM     22  F   UNL     1      -6.763  -2.380   4.880  0.00  0.00    -0.166 F 
ENDBRANCH  17  19
ENDBRANCH   4  13
BRANCH   8  23
ATOM     23  C   UNL     1       0.652  -4.923   0.924  0.00  0.00    +0.046 A 
ATOM     24  C   UNL     1       1.471  -5.169  -0.170  0.00  0.00    +0.024 A 
ATOM     25  C   UNL     1       2.268  -6.296  -0.195  0.00  0.00    +0.004 A 
ATOM     26  C   UNL     1       2.252  -7.180   0.869  0.00  0.00    +0.033 A 
ATOM     27  C   UNL     1       1.438  -6.938   1.960  0.00  0.00    +0.128 A 
ATOM     28  C   UNL     1       0.643  -5.809   1.993  0.00  0.00    +0.056 A 
BRANCH  27  29
ATOM     29  N   UNL     1       1.423  -7.887   3.096  0.00  0.00    +0.056 N 
ATOM     30  O   UNL     1       2.123  -8.872   3.070  0.00  0.00    -0.126 OA
ATOM     31  O   UNL     1       0.711  -7.676   4.050  0.00  0.00    -0.126 OA
ENDBRANCH  27  29
ENDBRANCH   8  23
BRANCH   1  32
ATOM     32  C   UNL     1      -2.137  -0.155  -1.265  0.00  0.00    +0.349 C 
ATOM     33  O   UNL     1      -1.708  -0.547  -2.336  0.00  0.00    -0.248 OA
ATOM     34  O   UNL     1      -3.136   0.543  -1.227  0.00  0.00    -0.248 OA
ENDBRANCH   1  32
BRANCH   1  36
ATOM     35  C   UNL     1      -0.019   1.526   0.010  0.00  0.00    +0.037 C 
ATOM     36  C   UNL     1       0.002  -0.004   0.002  0.00  0.00    +0.112 C 
BRANCH  36  37
ATOM     37  O   UNL     1       0.671  -0.465  -1.174  0.00  0.00    -0.393 OA
ATOM     38  H   UNL     1       1.588  -0.167  -1.247  0.00  0.00    +0.210 HD
ENDBRANCH  36  37
ENDBRANCH   1  36
TORSDOF 7
