REMARK  Name = ZINC03340738
REMARK  7 active torsions:
REMARK  status: ('A' for Active; 'I' for Inactive)
REMARK    1  A    between atoms: C_1  and  C_2
REMARK    2  A    between atoms: C_5  and  C_7
REMARK    3  A    between atoms: N_8  and  N_9
REMARK    4  A    between atoms: C_10  and  C_23
REMARK    5  A    between atoms: N_14  and  C_15
REMARK    6  A    between atoms: C_26  and  O_29
REMARK    7  A    between atoms: O_29  and  C_30
REMARK                            x       y       z     vdW  Elec       q    Type
REMARK                         _______ _______ _______ _____ _____    ______ ____
ROOT
ATOM      1  N   UNL     1       1.245   3.546  -0.752  0.00  0.00    -0.209 N 
ATOM      2  C   UNL     1       2.375   4.278  -0.995  0.00  0.00    +0.082 A 
ATOM      3  C   UNL     1       2.274   5.603  -1.231  0.00  0.00    +0.077 A 
ATOM      4  S   UNL     1       0.514   5.875  -1.100  0.00  0.00    -0.058 S 
ATOM      5  C   UNL     1       0.029   4.193  -0.745  0.00  0.00    +0.173 A 
ATOM      6  N   UNL     1      -1.176   3.701  -0.532  0.00  0.00    -0.332 N 
ATOM      7  H   UNL     1      -1.314   2.615  -0.417  0.00  0.00    +0.168 HD
ENDROOT
BRANCH   6   8
ATOM      8  C   UNL     1      -2.254   4.540  -0.453  0.00  0.00    +0.077 A 
ATOM      9  C   UNL     1      -2.264   5.584   0.474  0.00  0.00    +0.031 A 
ATOM     10  C   UNL     1      -3.352   6.430   0.545  0.00  0.00    +0.040 A 
ATOM     11  C   UNL     1      -4.438   6.239  -0.293  0.00  0.00    +0.126 A 
ATOM     12  C   UNL     1      -4.438   5.202  -1.212  0.00  0.00    +0.078 A 
ATOM     13  C   UNL     1      -3.353   4.352  -1.297  0.00  0.00    +0.149 A 
ATOM     14  F   UNL     1      -3.354   3.341  -2.194  0.00  0.00    -0.203 F 
ATOM     15  F   UNL     1      -5.502   7.068  -0.214  0.00  0.00    -0.205 F 
ENDBRANCH   6   8
BRANCH   2  16
ATOM     16  C   UNL     1       3.700   3.620  -1.005  0.00  0.00    +0.001 A 
ATOM     17  C   UNL     1       3.958   2.554  -0.142  0.00  0.00    +0.013 A 
ATOM     18  C   UNL     1       5.193   1.940  -0.158  0.00  0.00    +0.046 A 
ATOM     19  C   UNL     1       6.181   2.388  -1.024  0.00  0.00    +0.127 A 
ATOM     20  C   UNL     1       5.930   3.451  -1.880  0.00  0.00    +0.046 A 
ATOM     21  C   UNL     1       4.696   4.067  -1.874  0.00  0.00    +0.013 A 
BRANCH  19  22
ATOM     22  O   UNL     1       7.399   1.784  -1.033  0.00  0.00    -0.434 OA
BRANCH  22  23
ATOM     23  C   UNL     1       7.590   0.696  -0.126  0.00  0.00    +0.541 C 
ATOM     24  F   UNL     1       7.402   1.144   1.186  0.00  0.00    -0.166 F 
ATOM     25  F   UNL     1       6.666  -0.316  -0.410  0.00  0.00    -0.166 F 
ENDBRANCH  22  23
ENDBRANCH  19  22
ENDBRANCH   2  16
BRANCH   1  27
ATOM     26  C   UNL     1       0.702   1.333  -1.292  0.00  0.00    +0.179 C 
ATOM     27  N   UNL     1       1.324   2.168  -0.510  0.00  0.00    -0.169 NA
BRANCH  26  32
ATOM     28  C   UNL     1      -0.688   4.362  -5.031  0.00  0.00    +0.086 C 
ATOM     29  C   UNL     1      -0.547   3.137  -4.164  0.00  0.00    +0.103 A 
ATOM     30  C   UNL     1      -1.118   1.938  -4.400  0.00  0.00    +0.045 A 
ATOM     31  C   UNL     1      -0.731   1.083  -3.352  0.00  0.00    +0.051 A 
ATOM     32  C   UNL     1       0.067   1.815  -2.521  0.00  0.00    +0.148 A 
ATOM     33  O   UNL     1       0.163   3.061  -3.027  0.00  0.00    -0.459 OA
ENDBRANCH  26  32
ENDBRANCH   1  27
TORSDOF 6
