REMARK  Name = ZINC32539077
REMARK  17 active torsions:
REMARK  status: ('A' for Active; 'I' for Inactive)
REMARK    1  A    between atoms: C_1  and  C_2
REMARK    2  A    between atoms: C_2  and  C_3
REMARK    3  A    between atoms: C_2  and  C_4
REMARK    4  A    between atoms: C_4  and  N_5
REMARK    5  A    between atoms: C_6  and  N_34
REMARK    6  A    between atoms: C_7  and  N_14
REMARK    7  A    between atoms: N_14  and  C_15
REMARK    8  A    between atoms: C_15  and  C_16
REMARK    9  A    between atoms: C_16  and  C_17
REMARK   10  A    between atoms: C_16  and  C_18
REMARK   11  A    between atoms: C_19  and  C_21
REMARK   12  A    between atoms: C_21  and  N_22
REMARK   13  A    between atoms: N_22  and  C_23
REMARK   14  A    between atoms: N_22  and  C_24
REMARK   15  A    between atoms: C_24  and  C_25
REMARK   16  A    between atoms: C_28  and  O_32
REMARK   17  A    between atoms: O_32  and  C_33
REMARK                            x       y       z     vdW  Elec       q    Type
REMARK                         _______ _______ _______ _____ _____    ______ ____
ROOT
ATOM      1  N   UNL     1       1.091   1.964   0.070  0.00  0.00    -0.266 N 
ATOM      2  C   UNL     1      -0.106   1.345   0.021  0.00  0.00    +0.203 C 
ATOM      3  O   UNL     1      -0.162   0.143  -0.136  0.00  0.00    -0.277 OA
ENDROOT
BRANCH   1   6
ATOM      4  N   UNL     1       4.305   0.482   1.058  0.00  0.00    -0.280 N 
ATOM      5  C   UNL     1       3.154   1.233   1.112  0.00  0.00    +0.127 A 
ATOM      6  C   UNL     1       2.280   1.205   0.044  0.00  0.00    +0.140 A 
ATOM      7  C   UNL     1       2.592   0.401  -1.068  0.00  0.00    +0.277 A 
ATOM      8  O   UNL     1       1.835   0.354  -2.023  0.00  0.00    -0.266 OA
ATOM      9  N   UNL     1       3.736  -0.311  -1.073  0.00  0.00    -0.273 N 
ATOM     10  H   UNL     1       3.991  -0.935  -1.943  0.00  0.00    +0.173 HD
ATOM     11  C   UNL     1       4.575  -0.272  -0.023  0.00  0.00    +0.331 A 
ATOM     12  O   UNL     1       5.598  -0.929  -0.052  0.00  0.00    -0.246 OA
BRANCH   5  13
ATOM     13  N   UNL     1       2.878   2.004   2.216  0.00  0.00    -0.343 N 
ATOM     14  H   UNL     1       1.956   2.602   2.253  0.00  0.00    +0.144 HD
ATOM     15  H   UNL     1       3.579   2.022   3.063  0.00  0.00    +0.144 HD
ENDBRANCH   5  13
BRANCH   4  16
ATOM     16  C   UNL     1       5.241   0.502   2.184  0.00  0.00    +0.131 C 
BRANCH  16  18
ATOM     17  C   UNL     1       5.062  -1.968   2.514  0.00  0.00    +0.009 C 
ATOM     18  C   UNL     1       4.870  -0.602   3.176  0.00  0.00    +0.003 C 
ATOM     19  C   UNL     1       5.769  -0.503   4.410  0.00  0.00    +0.009 C 
ENDBRANCH  16  18
ENDBRANCH   4  16
ENDBRANCH   1   6
BRANCH   1  20
ATOM     20  C   UNL     1       1.157   3.426   0.150  0.00  0.00    +0.117 C 
BRANCH  20  21
ATOM     21  C   UNL     1       1.214   4.012  -1.262  0.00  0.00    +0.001 C 
ATOM     22  C   UNL     1       1.106   5.536  -1.186  0.00  0.00    +0.009 C 
ATOM     23  C   UNL     1       2.540   3.627  -1.921  0.00  0.00    +0.009 C 
ENDBRANCH  20  21
ENDBRANCH   1  20
BRANCH   2  24
ATOM     24  C   UNL     1      -1.376   2.146   0.155  0.00  0.00    +0.019 C 
BRANCH  24  25
ATOM     25  N   UNL     1      -2.526   1.235   0.212  0.00  0.00    +0.386 N 
ATOM     26  C   UNL     1      -2.495   0.422   1.435  0.00  0.00    -0.095 C 
ATOM     27  H   UNL     1      -2.460   0.553  -0.649  0.00  0.00    -0.081 HD
BRANCH  25  28
ATOM     28  C   UNL     1      -3.790   1.976   0.104  0.00  0.00    -0.043 C 
BRANCH  28  29
ATOM     29  C   UNL     1      -4.928   1.004  -0.081  0.00  0.00    -0.061 A 
ATOM     30  C   UNL     1      -5.313   0.628  -1.355  0.00  0.00    +0.005 A 
ATOM     31  C   UNL     1      -6.352  -0.266  -1.528  0.00  0.00    +0.049 A 
ATOM     32  C   UNL     1      -7.017  -0.778  -0.424  0.00  0.00    +0.155 A 
ATOM     33  C   UNL     1      -6.632  -0.395   0.854  0.00  0.00    +0.165 A 
ATOM     34  C   UNL     1      -5.587   0.495   1.022  0.00  0.00    +0.044 A 
ATOM     35  F   UNL     1      -7.277  -0.893   1.932  0.00  0.00    -0.202 F 
BRANCH  32  36
ATOM     36  O   UNL     1      -8.043  -1.654  -0.593  0.00  0.00    -0.492 OA
ATOM     37  C   UNL     1      -8.384  -2.002  -1.937  0.00  0.00    +0.277 C 
ENDBRANCH  32  36
ENDBRANCH  28  29
ENDBRANCH  25  28
ENDBRANCH  24  25
ENDBRANCH   2  24
TORSDOF 11
