REMARK  Name = ZINC36637381
REMARK  9 active torsions:
REMARK  status: ('A' for Active; 'I' for Inactive)
REMARK    1  A    between atoms: C_1  and  C_2
REMARK    2  A    between atoms: C_2  and  C_3
REMARK    3  A    between atoms: N_12  and  C_13
REMARK    4  A    between atoms: C_13  and  C_14
REMARK    5  A    between atoms: C_14  and  N_15
REMARK    6  A    between atoms: N_15  and  C_16
REMARK    7  A    between atoms: N_15  and  C_17
REMARK    8  A    between atoms: C_18  and  C_20
REMARK    9  A    between atoms: C_22  and  C_30
REMARK                            x       y       z     vdW  Elec       q    Type
REMARK                         _______ _______ _______ _____ _____    ______ ____
ROOT
ATOM      1  C   UNL     1      -1.114  -1.533  -2.104  0.00  0.00    -0.046 A 
ATOM      2  C   UNL     1      -1.372  -1.609  -0.743  0.00  0.00    +0.006 A 
ATOM      3  C   UNL     1      -2.638  -1.824  -0.265  0.00  0.00    +0.029 A 
ATOM      4  C   UNL     1      -3.729  -1.977  -1.152  0.00  0.00    +0.080 A 
ATOM      5  C   UNL     1      -3.429  -1.894  -2.531  0.00  0.00    +0.041 A 
ATOM      6  C   UNL     1      -2.158  -1.673  -3.000  0.00  0.00    +0.021 A 
ATOM      7  S   UNL     1      -5.022  -2.131  -3.280  0.00  0.00    -0.052 S 
ATOM      8  C   UNL     1      -5.956  -2.319  -1.767  0.00  0.00    +0.168 A 
ATOM      9  N   UNL     1      -5.027  -2.193  -0.848  0.00  0.00    -0.224 NA
ATOM     10  N   UNL     1      -7.312  -2.540  -1.606  0.00  0.00    -0.248 N 
ATOM     11  C   UNL     1      -8.112  -2.641  -2.686  0.00  0.00    +0.253 C 
ATOM     12  O   UNL     1      -7.630  -2.627  -3.802  0.00  0.00    -0.270 OA
ENDROOT
BRANCH  11  13
ATOM     13  C   UNL     1      -9.575  -2.768  -2.514  0.00  0.00    +0.048 A 
ATOM     14  C   UNL     1     -10.129  -3.829  -1.815  0.00  0.00    +0.042 A 
ATOM     15  C   UNL     1     -11.525  -3.910  -1.676  0.00  0.00    +0.079 A 
ATOM     16  N   UNL     1     -12.337  -3.005  -2.190  0.00  0.00    -0.246 NA
ATOM     17  C   UNL     1     -11.888  -1.953  -2.876  0.00  0.00    +0.072 A 
ATOM     18  C   UNL     1     -10.495  -1.774  -3.070  0.00  0.00    +0.013 A 
ATOM     19  C   UNL     1     -10.029  -0.666  -3.785  0.00  0.00    +0.011 A 
ATOM     20  C   UNL     1     -10.920   0.236  -4.286  0.00  0.00    +0.001 A 
ATOM     21  C   UNL     1     -12.290   0.069  -4.095  0.00  0.00    +0.002 A 
ATOM     22  C   UNL     1     -12.778  -1.004  -3.413  0.00  0.00    +0.028 A 
BRANCH  15  23
ATOM     23  C   UNL     1     -12.103  -5.044  -0.931  0.00  0.00    +0.038 A 
ATOM     24  C   UNL     1     -13.420  -5.386  -0.762  0.00  0.00    +0.017 A 
ATOM     25  C   UNL     1     -13.724  -6.502  -0.017  0.00  0.00    +0.008 A 
ATOM     26  C   UNL     1     -12.713  -7.229   0.529  0.00  0.00    +0.046 A 
ATOM     27  S   UNL     1     -11.269  -6.334  -0.021  0.00  0.00    -0.095 S 
ENDBRANCH  15  23
ENDBRANCH  11  13
BRANCH   1  29
ATOM     28  C   UNL     1       0.537   0.209  -2.728  0.00  0.00    +0.009 C 
ATOM     29  C   UNL     1       0.289  -1.296  -2.602  0.00  0.00    +0.032 C 
ENDBRANCH   1  29
BRANCH  10  30
ATOM     30  C   UNL     1      -7.880  -2.666  -0.261  0.00  0.00    +0.097 C 
BRANCH  30  31
ATOM     31  C   UNL     1      -8.436  -1.312   0.186  0.00  0.00    -0.060 C 
BRANCH  31  32
ATOM     32  N   UNL     1      -9.039  -1.446   1.518  0.00  0.00    +0.377 N 
ATOM     33  C   UNL     1      -7.997  -1.787   2.496  0.00  0.00    -0.097 C 
ATOM     34  C   UNL     1      -9.672  -0.177   1.900  0.00  0.00    -0.097 C 
ATOM     35  H   UNL     1      -9.735  -2.177   1.500  0.00  0.00    -0.083 HD
ENDBRANCH  31  32
ENDBRANCH  30  31
ENDBRANCH  10  30
TORSDOF 6
