REMARK  Name = ZINC64363766
REMARK  5 active torsions:
REMARK  status: ('A' for Active; 'I' for Inactive)
REMARK    1  A    between atoms: C_1  and  C_2
REMARK    2  A    between atoms: C_2  and  C_3
REMARK    3  A    between atoms: C_6  and  C_30
REMARK    4  A    between atoms: C_9  and  C_11
REMARK    5  A    between atoms: C_13  and  C_24
REMARK                            x       y       z     vdW  Elec       q    Type
REMARK                         _______ _______ _______ _____ _____    ______ ____
ROOT
ATOM      1  C   UNL     1       0.212  -4.949  -0.216  0.00  0.00    +0.152 C 
ATOM      2  C   UNL     1      -0.093  -4.642   1.238  0.00  0.00    -0.014 C 
ATOM      3  C   UNL     1      -1.315  -5.099   1.740  0.00  0.00    +0.002 A 
ATOM      4  C   UNL     1      -1.679  -4.857   3.081  0.00  0.00    +0.025 A 
ATOM      5  C   UNL     1      -2.874  -5.313   3.545  0.00  0.00    +0.019 A 
ATOM      6  C   UNL     1      -3.750  -6.017   2.720  0.00  0.00    +0.017 A 
ATOM      7  C   UNL     1      -3.454  -6.281   1.417  0.00  0.00    +0.025 A 
ATOM      8  C   UNL     1      -2.236  -5.840   0.870  0.00  0.00    +0.041 A 
ATOM      9  N   UNL     1      -1.946  -6.101  -0.409  0.00  0.00    -0.284 N 
ATOM     10  C   UNL     1      -0.829  -5.721  -0.995  0.00  0.00    +0.230 C 
ATOM     11  O   UNL     1      -0.634  -5.994  -2.165  0.00  0.00    -0.274 OA
ATOM     12 BR   UNL     1      -3.357  -4.986   5.343  0.00  0.00    -0.050 Br
ATOM     13  H   UNL     1      -2.595  -6.596  -0.934  0.00  0.00    +0.155 HD
ENDROOT
BRANCH   1  19
ATOM     14  C   UNL     1       0.389  -0.123  -0.985  0.00  0.00    +0.235 C 
ATOM     15  O   UNL     1       0.755   0.721  -1.777  0.00  0.00    -0.274 OA
ATOM     16  N   UNL     1       0.527  -1.430  -1.282  0.00  0.00    -0.186 N 
ATOM     17  C   UNL     1       1.010  -1.973  -2.563  0.00  0.00    +0.147 C 
ATOM     18  C   UNL     1       0.962  -3.498  -2.340  0.00  0.00    +0.082 C 
ATOM     19  C   UNL     1       0.445  -3.641  -0.926  0.00  0.00    +0.055 C 
ATOM     20  N   UNL     1       0.242  -2.492  -0.426  0.00  0.00    -0.185 NA
BRANCH  17  21
ATOM     21  C   UNL     1       0.082  -1.561  -3.708  0.00  0.00    +0.199 C 
ATOM     22  C   UNL     1      -1.345  -2.124  -3.494  0.00  0.00    +0.076 C 
ATOM     23  C   UNL     1      -1.745  -2.494  -4.913  0.00  0.00    +0.014 C 
ATOM     24  C   UNL     1      -0.649  -2.502  -5.640  0.00  0.00    +0.183 C 
ATOM     25  O   UNL     1       0.469  -2.200  -4.940  0.00  0.00    -0.494 OA
ENDBRANCH  17  21
BRANCH  14  27
ATOM     26  C   UNL     1      -0.260   1.819   0.415  0.00  0.00    +0.013 C 
ATOM     27  C   UNL     1      -0.220   0.292   0.330  0.00  0.00    +0.094 C 
ENDBRANCH  14  27
ENDBRANCH   1  19
BRANCH   2  28
ATOM     28  C   UNL     1       0.820  -3.924   2.050  0.00  0.00    -0.020 A 
ATOM     29  C   UNL     1       0.453  -2.684   2.600  0.00  0.00    +0.008 A 
ATOM     30  C   UNL     1       1.347  -1.995   3.388  0.00  0.00    +0.001 A 
ATOM     31  C   UNL     1       2.604  -2.520   3.640  0.00  0.00    +0.000 A 
ATOM     32  C   UNL     1       2.976  -3.742   3.103  0.00  0.00    +0.001 A 
ATOM     33  C   UNL     1       2.095  -4.450   2.317  0.00  0.00    +0.008 A 
ENDBRANCH   2  28
TORSDOF 4
