REMARK  Name = ZINC40118513
REMARK  7 active torsions:
REMARK  status: ('A' for Active; 'I' for Inactive)
REMARK    1  A    between atoms: C_3  and  C_8
REMARK    2  A    between atoms: C_8  and  C_10
REMARK    3  A    between atoms: C_8  and  N_28
REMARK    4  A    between atoms: C_10  and  C_11
REMARK    5  A    between atoms: N_13  and  C_14
REMARK    6  A    between atoms: C_14  and  C_16
REMARK    7  A    between atoms: C_14  and  C_23
REMARK                            x       y       z     vdW  Elec       q    Type
REMARK                         _______ _______ _______ _____ _____    ______ ____
ROOT
ATOM      1  C   UNL     1       4.681   3.856  -2.478  0.00  0.00    +0.216 C 
ATOM      2  O   UNL     1       4.443   5.023  -2.249  0.00  0.00    -0.276 OA
ATOM      3  N   UNL     1       5.956   3.420  -2.501  0.00  0.00    -0.308 N 
ATOM      4  H   UNL     1       6.150   2.502  -2.749  0.00  0.00    +0.149 HD
ENDROOT
BRANCH   1   5
ATOM      5  C   UNL     1       3.550   2.893  -2.737  0.00  0.00    +0.123 C 
BRANCH   5   6
ATOM      6  C   UNL     1       2.217   3.638  -2.654  0.00  0.00    +0.113 C 
BRANCH   6   9
ATOM      7  C   UNL     1      -0.347   0.871  -2.496  0.00  0.00    +0.001 A 
ATOM      8  C   UNL     1       0.682   1.726  -2.149  0.00  0.00    +0.005 A 
ATOM      9  C   UNL     1       1.095   2.705  -3.033  0.00  0.00    -0.026 A 
ATOM     10  C   UNL     1       0.480   2.829  -4.264  0.00  0.00    +0.020 A 
ATOM     11  C   UNL     1      -0.549   1.973  -4.612  0.00  0.00    +0.018 A 
ATOM     12  C   UNL     1      -0.962   0.994  -3.727  0.00  0.00    +0.015 A 
ATOM     13 BR   UNL     1      -1.392   2.143  -6.297  0.00  0.00    -0.050 Br
ENDBRANCH   6   9
BRANCH   6  14
ATOM     14  N   UNL     1       2.011   4.118  -1.285  0.00  0.00    -0.292 N 
ATOM     15  C   UNL     1       1.173   5.147  -1.051  0.00  0.00    +0.298 C 
ATOM     16  O   UNL     1       0.519   5.618  -1.961  0.00  0.00    -0.253 OA
ATOM     17  N   UNL     1       1.059   5.655   0.193  0.00  0.00    -0.313 N 
ATOM     18  H   UNL     1       2.478   3.696  -0.547  0.00  0.00    +0.151 HD
ATOM     19  H   UNL     1       1.581   5.279   0.919  0.00  0.00    +0.146 HD
ATOM     20  H   UNL     1       0.456   6.395   0.361  0.00  0.00    +0.146 HD
ENDBRANCH   6  14
ENDBRANCH   5   6
ENDBRANCH   1   5
BRANCH   3  21
ATOM     21  C   UNL     1       7.048   4.332  -2.153  0.00  0.00    +0.106 C 
BRANCH  21  22
ATOM     22  C   UNL     1       7.492   5.077  -3.385  0.00  0.00    -0.027 A 
ATOM     23  C   UNL     1       7.572   4.420  -4.599  0.00  0.00    +0.008 A 
ATOM     24  C   UNL     1       7.979   5.103  -5.729  0.00  0.00    +0.038 A 
ATOM     25  C   UNL     1       8.306   6.446  -5.646  0.00  0.00    +0.123 A 
ATOM     26  C   UNL     1       8.226   7.103  -4.430  0.00  0.00    +0.038 A 
ATOM     27  C   UNL     1       7.814   6.419  -3.302  0.00  0.00    +0.008 A 
ATOM     28  F   UNL     1       8.704   7.114  -6.751  0.00  0.00    -0.205 F 
ENDBRANCH  21  22
BRANCH  21  29
ATOM     29  C   UNL     1       8.223   3.529  -1.591  0.00  0.00    +0.014 C 
ATOM     30  C   UNL     1       8.643   2.435  -2.595  0.00  0.00    +0.006 C 
ATOM     31  C   UNL     1       9.027   1.228  -1.703  0.00  0.00    +0.000 C 
ATOM     32  C   UNL     1       7.974   1.294  -0.568  0.00  0.00    +0.000 C 
ATOM     33  C   UNL     1       7.798   2.803  -0.303  0.00  0.00    +0.006 C 
ENDBRANCH  21  29
ENDBRANCH   3  21
TORSDOF 7
