REMARK  Name = ZINC33429006
REMARK  6 active torsions:
REMARK  status: ('A' for Active; 'I' for Inactive)
REMARK    1  A    between atoms: C_1  and  C_2
REMARK    2  A    between atoms: C_5  and  N_8
REMARK    3  A    between atoms: C_15  and  C_33
REMARK    4  A    between atoms: N_23  and  C_26
REMARK    5  A    between atoms: C_26  and  C_27
REMARK    6  A    between atoms: C_37  and  C_39
REMARK                            x       y       z     vdW  Elec       q    Type
REMARK                         _______ _______ _______ _____ _____    ______ ____
ROOT
ATOM      1  N   UNL     1       2.036   0.130   2.494  0.00  0.00    -0.160 N 
ATOM      2  C   UNL     1       1.444   1.345   2.463  0.00  0.00    +0.253 C 
ATOM      3  O   UNL     1       1.982   2.430   2.408  0.00  0.00    -0.272 OA
ATOM      4  C   UNL     1      -0.037   1.052   2.513  0.00  0.00    +0.109 C 
ATOM      5  C   UNL     1      -0.670   1.676   3.750  0.00  0.00    +0.061 C 
ATOM      6  C   UNL     1      -2.174   1.637   3.631  0.00  0.00    -0.024 A 
ATOM      7  C   UNL     1      -2.925   1.886   4.769  0.00  0.00    +0.017 A 
ATOM      8  C   UNL     1      -4.305   1.883   4.712  0.00  0.00    +0.055 A 
ATOM      9  C   UNL     1      -4.944   1.630   3.512  0.00  0.00    +0.014 A 
ATOM     10  C   UNL     1      -4.204   1.377   2.377  0.00  0.00    +0.024 A 
ATOM     11  C   UNL     1      -2.808   1.375   2.429  0.00  0.00    +0.033 A 
ATOM     12  N   UNL     1      -2.118   1.103   1.252  0.00  0.00    -0.329 N 
ATOM     13  C   UNL     1      -0.732   1.581   1.265  0.00  0.00    +0.078 C 
ATOM     14  C   UNL     1      -0.013   1.086   0.008  0.00  0.00    -0.054 C 
ATOM     15  N   UNL     1      -0.727   1.574  -1.181  0.00  0.00    +0.385 N 
ATOM     16  C   UNL     1      -2.118   1.102  -1.192  0.00  0.00    -0.059 C 
ATOM     17  C   UNL     1      -2.835   1.593   0.068  0.00  0.00    +0.087 C 
ATOM     18  C   UNL     1      -0.114  -0.454   2.572  0.00  0.00    +0.051 C 
ATOM     19  N   UNL     1       1.088  -0.888   2.558  0.00  0.00    -0.181 NA
ATOM     20  C   UNL     1      -1.368  -1.287   2.636  0.00  0.00    +0.063 C 
ATOM     21  H   UNL     1      -0.744   2.673  -1.137  0.00  0.00    -0.081 HD
ENDROOT
BRANCH   1  26
ATOM     22  C   UNL     1       7.646  -0.710   2.379  0.00  0.00    +0.044 C 
ATOM     23  C   UNL     1       6.156  -0.487   2.410  0.00  0.00    -0.050 A 
ATOM     24  C   UNL     1       5.298  -1.569   2.475  0.00  0.00    +0.005 A 
ATOM     25  C   UNL     1       3.932  -1.368   2.503  0.00  0.00    +0.026 A 
ATOM     26  C   UNL     1       3.420  -0.077   2.467  0.00  0.00    +0.060 A 
ATOM     27  C   UNL     1       4.285   1.008   2.397  0.00  0.00    +0.026 A 
ATOM     28  C   UNL     1       5.650   0.800   2.373  0.00  0.00    +0.005 A 
ENDBRANCH   1  26
BRANCH   8  29
ATOM     29  C   UNL     1      -5.112   2.155   5.955  0.00  0.00    +0.417 C 
ATOM     30  F   UNL     1      -6.476   2.099   5.647  0.00  0.00    -0.166 F 
ATOM     31  F   UNL     1      -4.813   1.193   6.926  0.00  0.00    -0.166 F 
ATOM     32  F   UNL     1      -4.797   3.426   6.446  0.00  0.00    -0.166 F 
ENDBRANCH   8  29
BRANCH  15  33
ATOM     33  C   UNL     1      -0.028   1.183  -2.412  0.00  0.00    -0.043 C 
BRANCH  33  34
ATOM     34  C   UNL     1      -0.641   1.899  -3.588  0.00  0.00    -0.064 A 
ATOM     35  C   UNL     1      -1.689   1.321  -4.280  0.00  0.00    +0.002 A 
ATOM     36  C   UNL     1      -2.255   1.980  -5.354  0.00  0.00    +0.000 A 
ATOM     37  C   UNL     1      -1.767   3.213  -5.744  0.00  0.00    +0.000 A 
ATOM     38  C   UNL     1      -0.716   3.789  -5.056  0.00  0.00    +0.000 A 
ATOM     39  C   UNL     1      -0.153   3.132  -3.977  0.00  0.00    +0.002 A 
ENDBRANCH  33  34
ENDBRANCH  15  33
TORSDOF 4
