REMARK  Name = ZINC62953289
REMARK  7 active torsions:
REMARK  status: ('A' for Active; 'I' for Inactive)
REMARK    1  A    between atoms: C_1  and  C_2
REMARK    2  A    between atoms: C_2  and  C_3
REMARK    3  A    between atoms: C_3  and  C_17
REMARK    4  A    between atoms: N_6  and  C_9
REMARK    5  A    between atoms: C_10  and  N_16
REMARK    6  A    between atoms: C_11  and  C_15
REMARK    7  A    between atoms: N_13  and  C_14
REMARK                            x       y       z     vdW  Elec       q    Type
REMARK                         _______ _______ _______ _____ _____    ______ ____
ROOT
ATOM      1  C   UNL     1       0.451  -2.752  -4.739  0.00  0.00    +0.140 A 
ATOM      2  C   UNL     1      -0.769  -3.352  -4.849  0.00  0.00    +0.088 A 
ATOM      3  C   UNL     1      -0.813  -4.009  -6.084  0.00  0.00    +0.082 A 
ATOM      4  N   UNL     1       0.329  -3.817  -6.697  0.00  0.00    -0.173 NA
ATOM      5  N   UNL     1       1.144  -3.025  -5.878  0.00  0.00    -0.252 N 
ATOM      6  C   UNL     1       2.502  -2.572  -6.192  0.00  0.00    +0.174 C 
ATOM      7  C   UNL     1      -1.977  -4.803  -6.619  0.00  0.00    +0.069 C 
ENDROOT
BRANCH   1  11
ATOM      8  C   UNL     1       0.821  -0.730  -1.128  0.00  0.00    -0.029 C 
ATOM      9  C   UNL     1      -0.013  -0.190  -2.292  0.00  0.00    +0.025 C 
ATOM     10  C   UNL     1       0.676  -0.541  -3.615  0.00  0.00    +0.107 C 
ATOM     11  N   UNL     1       0.904  -1.992  -3.658  0.00  0.00    -0.314 N 
ATOM     12  C   UNL     1       1.618  -2.629  -2.542  0.00  0.00    +0.107 C 
ATOM     13  C   UNL     1       0.918  -2.254  -1.232  0.00  0.00    +0.025 C 
ATOM     14  C   UNL     1       2.225  -0.125  -1.183  0.00  0.00    +0.011 C 
BRANCH   8  16
ATOM     15  C   UNL     1       0.057   1.173   0.300  0.00  0.00    +0.004 C 
ATOM     16  C   UNL     1       0.154  -0.351   0.196  0.00  0.00    +0.003 C 
ENDBRANCH   8  16
ENDBRANCH   1  11
BRANCH   2  17
ATOM     17  N   UNL     1      -1.804  -3.317  -3.887  0.00  0.00    -0.354 N 
ATOM     18  H   UNL     1      -1.712  -2.764  -3.095  0.00  0.00    +0.142 HD
ATOM     19  H   UNL     1      -2.607  -3.845  -4.019  0.00  0.00    +0.142 HD
ENDBRANCH   2  17
TORSDOF 3
