REMARK  Name = ZINC38670072
REMARK  10 active torsions:
REMARK  status: ('A' for Active; 'I' for Inactive)
REMARK    1  A    between atoms: C_1  and  N_2
REMARK    2  A    between atoms: C_9  and  C_11
REMARK    3  A    between atoms: C_11  and  C_13
REMARK    4  A    between atoms: C_11  and  N_32
REMARK    5  A    between atoms: C_13  and  N_14
REMARK    6  A    between atoms: C_15  and  C_17
REMARK    7  A    between atoms: C_20  and  S_23
REMARK    8  A    between atoms: S_23  and  N_26
REMARK    9  A    between atoms: N_32  and  C_33
REMARK   10  A    between atoms: N_32  and  C_34
REMARK                            x       y       z     vdW  Elec       q    Type
REMARK                         _______ _______ _______ _____ _____    ______ ____
ROOT
ATOM      1  N   UNL     1      -1.077  -4.961   5.990  0.00  0.00    -0.313 N 
ATOM      2  C   UNL     1      -2.158  -5.347   6.697  0.00  0.00    +0.244 C 
ATOM      3  O   UNL     1      -3.244  -4.853   6.465  0.00  0.00    -0.270 OA
ATOM      4  H   UNL     1      -0.211  -5.356   6.175  0.00  0.00    +0.149 HD
ENDROOT
BRANCH   2   5
ATOM      5  C   UNL     1      -2.023  -6.372   7.754  0.00  0.00    +0.037 A 
ATOM      6  C   UNL     1      -0.777  -6.939   8.026  0.00  0.00    +0.015 A 
ATOM      7  C   UNL     1      -0.658  -7.894   9.014  0.00  0.00    +0.029 A 
ATOM      8  C   UNL     1      -1.770  -8.292   9.733  0.00  0.00    +0.106 A 
ATOM      9  C   UNL     1      -3.009  -7.736   9.468  0.00  0.00    +0.029 A 
ATOM     10  C   UNL     1      -3.141  -6.774   8.487  0.00  0.00    +0.015 A 
BRANCH   8  11
ATOM     11  S   UNL     1      -1.610  -9.514  10.992  0.00  0.00    +0.061 S 
ATOM     12  O   UNL     1      -2.891 -10.109  11.148  0.00  0.00    -0.153 OA
ATOM     13  O   UNL     1      -0.451 -10.274  10.676  0.00  0.00    -0.153 OA
BRANCH  11  14
ATOM     14  N   UNL     1      -1.282  -8.719  12.408  0.00  0.00    -0.177 NA
ATOM     15  C   UNL     1       0.104  -8.438  12.805  0.00  0.00    +0.109 C 
ATOM     16  C   UNL     1       0.240  -6.939  13.091  0.00  0.00    +0.017 C 
ATOM     17  C   UNL     1      -0.807  -6.524  14.127  0.00  0.00    +0.003 C 
ATOM     18  C   UNL     1      -2.208  -6.784  13.571  0.00  0.00    +0.017 C 
ATOM     19  C   UNL     1      -2.373  -8.275  13.287  0.00  0.00    +0.109 C 
ENDBRANCH  11  14
ENDBRANCH   8  11
ENDBRANCH   2   5
BRANCH   1  20
ATOM     20  C   UNL     1      -1.211  -3.946   4.943  0.00  0.00    +0.094 C 
BRANCH  20  21
ATOM     21  C   UNL     1       0.124  -3.788   4.213  0.00  0.00    -0.021 C 
BRANCH  21  30
ATOM     22  C   UNL     1       1.065  -9.237   0.373  0.00  0.00    +0.129 C 
ATOM     23  N   UNL     1       1.500  -8.650   1.643  0.00  0.00    -0.332 N 
ATOM     24  C   UNL     1       2.462  -9.261   2.564  0.00  0.00    +0.109 C 
ATOM     25  C   UNL     1       2.584  -8.271   3.734  0.00  0.00    +0.056 C 
ATOM     26  C   UNL     1       1.650  -7.138   3.372  0.00  0.00    -0.025 A 
ATOM     27  C   UNL     1       1.064  -7.424   2.149  0.00  0.00    +0.033 A 
ATOM     28  C   UNL     1       0.160  -6.512   1.601  0.00  0.00    +0.023 A 
ATOM     29  C   UNL     1      -0.140  -5.344   2.269  0.00  0.00    +0.004 A 
ATOM     30  C   UNL     1       0.453  -5.066   3.486  0.00  0.00    -0.059 A 
ATOM     31  C   UNL     1       1.343  -5.968   4.039  0.00  0.00    +0.007 A 
ENDBRANCH  21  30
BRANCH  21  32
ATOM     32  N   UNL     1       0.026  -2.686   3.246  0.00  0.00    +0.382 N 
ATOM     33  C   UNL     1      -0.278  -1.437   3.956  0.00  0.00    -0.096 C 
ATOM     34  C   UNL     1       1.302  -2.546   2.531  0.00  0.00    -0.096 C 
ATOM     35  H   UNL     1      -0.710  -2.884   2.584  0.00  0.00    -0.082 HD
ENDBRANCH  21  32
ENDBRANCH  20  21
ENDBRANCH   1  20
TORSDOF 7
