REMARK  Name = ZINC13405007
REMARK  9 active torsions:
REMARK  status: ('A' for Active; 'I' for Inactive)
REMARK    1  A    between atoms: C_1  and  C_2
REMARK    2  A    between atoms: C_3  and  C_32
REMARK    3  A    between atoms: C_4  and  C_31
REMARK    4  A    between atoms: C_9  and  S_11
REMARK    5  A    between atoms: S_11  and  C_12
REMARK    6  A    between atoms: C_12  and  C_13
REMARK    7  A    between atoms: C_16  and  C_26
REMARK    8  A    between atoms: C_19  and  C_21
REMARK    9  A    between atoms: C_32  and  C_33
REMARK                            x       y       z     vdW  Elec       q    Type
REMARK                         _______ _______ _______ _____ _____    ______ ____
ROOT
ATOM      1  C   UNL     1      -6.839   3.140   3.217  0.00  0.00    +0.175 C 
ENDROOT
BRANCH   1   2
ATOM      2  C   UNL     1      -8.208   3.511   3.725  0.00  0.00    +0.246 C 
ATOM      3  O   UNL     1      -8.351   3.878   4.872  0.00  0.00    -0.273 OA
ATOM      4  N   UNL     1      -9.275   3.434   2.904  0.00  0.00    -0.181 N 
ATOM      5  C   UNL     1     -10.662   3.759   3.272  0.00  0.00    +0.173 C 
ATOM      6  C   UNL     1     -11.451   3.500   1.973  0.00  0.00    +0.090 C 
ATOM      7  C   UNL     1     -10.398   3.037   0.992  0.00  0.00    +0.075 C 
ATOM      8  N   UNL     1      -9.245   3.028   1.572  0.00  0.00    -0.180 NA
BRANCH   7   9
ATOM      9  C   UNL     1     -10.649   2.657  -0.402  0.00  0.00    +0.035 A 
ATOM     10  C   UNL     1      -9.751   2.225  -1.363  0.00  0.00    +0.017 A 
ATOM     11  C   UNL     1     -10.231   1.924  -2.617  0.00  0.00    +0.008 A 
ATOM     12  C   UNL     1     -11.559   2.060  -2.871  0.00  0.00    +0.046 A 
ATOM     13  S   UNL     1     -12.191   2.625  -1.300  0.00  0.00    -0.095 S 
ENDBRANCH   7   9
BRANCH   5  14
ATOM     14  C   UNL     1     -11.144   2.854   4.377  0.00  0.00    +0.128 A 
ATOM     15  C   UNL     1     -11.925   3.220   5.408  0.00  0.00    +0.046 A 
ATOM     16  C   UNL     1     -12.130   2.065   6.197  0.00  0.00    +0.041 A 
ATOM     17  C   UNL     1     -11.460   1.062   5.601  0.00  0.00    +0.195 A 
ATOM     18  O   UNL     1     -10.870   1.545   4.495  0.00  0.00    -0.466 OA
ENDBRANCH   5  14
ENDBRANCH   1   2
BRANCH   1  19
ATOM     19  S   UNL     1      -5.624   3.347   4.548  0.00  0.00    -0.075 S 
BRANCH  19  28
ATOM     20  C   UNL     1      -0.013   1.086   0.008  0.00  0.00    +0.066 C 
ATOM     21  C   UNL     1      -0.718   1.572   1.248  0.00  0.00    +0.047 A 
ATOM     22  C   UNL     1       0.013   1.808   2.418  0.00  0.00    +0.006 A 
ATOM     23  C   UNL     1      -0.636   2.246   3.529  0.00  0.00    +0.049 A 
ATOM     24  N   UNL     1      -1.979   2.443   3.473  0.00  0.00    -0.200 N 
ATOM     25  C   UNL     1      -2.663   2.204   2.315  0.00  0.00    +0.254 A 
ATOM     26  N   UNL     1      -2.016   1.778   1.224  0.00  0.00    -0.216 NA
ATOM     27  N   UNL     1      -3.943   2.477   2.546  0.00  0.00    -0.183 NA
ATOM     28  C   UNL     1      -4.095   2.881   3.806  0.00  0.00    +0.211 A 
ATOM     29  N   UNL     1      -2.925   2.876   4.412  0.00  0.00    -0.137 NA
ATOM     30  C   UNL     1       0.123   2.509   4.803  0.00  0.00    +0.066 C 
BRANCH  22  31
ATOM     31  C   UNL     1       1.502   1.579   2.446  0.00  0.00    +0.163 C 
BRANCH  31  32
ATOM     32  C   UNL     1       2.212   2.847   2.050  0.00  0.00    +0.360 C 
ATOM     33  O   UNL     1       1.575   3.836   1.774  0.00  0.00    -0.246 OA
ATOM     34  O   UNL     1       3.554   2.879   2.005  0.00  0.00    -0.246 OA
ENDBRANCH  31  32
ENDBRANCH  22  31
ENDBRANCH  19  28
ENDBRANCH   1  19
TORSDOF 7
