REMARK  Name = ZINC39665827
REMARK  13 active torsions:
REMARK  status: ('A' for Active; 'I' for Inactive)
REMARK    1  A    between atoms: C_1  and  C_2
REMARK    2  A    between atoms: C_2  and  C_4
REMARK    3  A    between atoms: C_2  and  O_31
REMARK    4  A    between atoms: C_4  and  N_5
REMARK    5  A    between atoms: C_6  and  C_8
REMARK    6  A    between atoms: C_19  and  C_21
REMARK    7  A    between atoms: C_21  and  C_22
REMARK    8  A    between atoms: C_22  and  C_23
REMARK    9  A    between atoms: C_26  and  O_29
REMARK   10  A    between atoms: O_29  and  C_30
REMARK   11  A    between atoms: O_31  and  C_32
REMARK   12  A    between atoms: C_35  and  O_38
REMARK   13  A    between atoms: O_38  and  C_39
REMARK                            x       y       z     vdW  Elec       q    Type
REMARK                         _______ _______ _______ _____ _____    ______ ____
ROOT
ATOM      1  C   UNL     1       1.473  -3.685   1.339  0.00  0.00    +0.100 C 
ATOM      2  C   UNL     1       2.305  -3.909   0.057  0.00  0.00    +0.121 C 
ATOM      3  N   UNL     1       3.678  -4.179   0.543  0.00  0.00    -0.300 N 
ATOM      4  C   UNL     1       3.483  -5.022   1.747  0.00  0.00    +0.115 C 
ATOM      5  C   UNL     1       2.248  -4.421   2.446  0.00  0.00    -0.004 C 
ATOM      6  C   UNL     1       1.388  -5.530   3.045  0.00  0.00    -0.010 C 
ATOM      7  C   UNL     1       2.158  -6.208   4.182  0.00  0.00    -0.082 C 
ATOM      8  N   UNL     1       2.496  -5.214   5.208  0.00  0.00    +0.379 N 
ATOM      9  C   UNL     1       3.398  -4.202   4.647  0.00  0.00    -0.082 C 
ATOM     10  C   UNL     1       2.681  -3.438   3.530  0.00  0.00    -0.010 C 
ATOM     11  C   UNL     1       4.841  -3.754   0.012  0.00  0.00    +0.216 C 
ATOM     12  O   UNL     1       5.893  -4.062   0.530  0.00  0.00    -0.276 OA
ATOM     13  H   UNL     1       1.651  -4.767   5.532  0.00  0.00    -0.086 HD
ATOM     14  H   UNL     1       2.949  -5.674   5.984  0.00  0.00    -0.086 HD
ENDROOT
BRANCH   1  16
ATOM     15  N   UNL     1       0.310  -1.736   2.322  0.00  0.00    -0.312 N 
ATOM     16  C   UNL     1       1.378  -2.215   1.654  0.00  0.00    +0.218 C 
ATOM     17  O   UNL     1       2.263  -1.462   1.306  0.00  0.00    -0.275 OA
ATOM     18  H   UNL     1      -0.398  -2.338   2.601  0.00  0.00    +0.149 HD
BRANCH  15  19
ATOM     19  C   UNL     1       0.218  -0.306   2.628  0.00  0.00    +0.148 C 
BRANCH  19  21
ATOM     20  C   UNL     1      -1.178   1.464   3.706  0.00  0.00    +0.053 C 
ATOM     21  C   UNL     1      -1.082  -0.030   3.387  0.00  0.00    +0.187 C 
BRANCH  21  22
ATOM     22  O   UNL     1      -2.196  -0.417   2.580  0.00  0.00    -0.488 OA
BRANCH  22  23
ATOM     23  C   UNL     1      -3.346  -0.741   3.230  0.00  0.00    +0.121 A 
ATOM     24  C   UNL     1      -4.429  -1.234   2.518  0.00  0.00    +0.049 A 
ATOM     25  C   UNL     1      -5.597  -1.563   3.178  0.00  0.00    +0.049 A 
ATOM     26  C   UNL     1      -5.687  -1.400   4.553  0.00  0.00    +0.120 A 
ATOM     27  C   UNL     1      -4.603  -0.907   5.264  0.00  0.00    +0.049 A 
ATOM     28  C   UNL     1      -3.433  -0.583   4.605  0.00  0.00    +0.049 A 
BRANCH  26  29
ATOM     29  O   UNL     1      -6.837  -1.723   5.202  0.00  0.00    -0.495 OA
ATOM     30  C   UNL     1      -6.858  -1.530   6.618  0.00  0.00    +0.277 C 
ENDBRANCH  26  29
ENDBRANCH  22  23
ENDBRANCH  21  22
ENDBRANCH  19  21
ENDBRANCH  15  19
ENDBRANCH   1  16
BRANCH  11  31
ATOM     31  C   UNL     1       4.835  -2.896  -1.227  0.00  0.00    +0.100 C 
BRANCH  31  32
ATOM     32  C   UNL     1       6.274  -2.555  -1.619  0.00  0.00    +0.044 C 
BRANCH  32  33
ATOM     33  C   UNL     1       6.267  -1.697  -2.858  0.00  0.00    -0.047 A 
ATOM     34  C   UNL     1       6.306  -2.288  -4.107  0.00  0.00    +0.007 A 
ATOM     35  C   UNL     1       6.301  -1.504  -5.244  0.00  0.00    +0.046 A 
ATOM     36  C   UNL     1       6.256  -0.121  -5.132  0.00  0.00    +0.120 A 
ATOM     37  C   UNL     1       6.216   0.469  -3.877  0.00  0.00    +0.046 A 
ATOM     38  C   UNL     1       6.217  -0.320  -2.743  0.00  0.00    +0.007 A 
BRANCH  36  39
ATOM     39  O   UNL     1       6.251   0.652  -6.249  0.00  0.00    -0.495 OA
ATOM     40  C   UNL     1       6.203   2.068  -6.058  0.00  0.00    +0.277 C 
ENDBRANCH  36  39
ENDBRANCH  32  33
ENDBRANCH  31  32
ENDBRANCH  11  31
TORSDOF 10
