REMARK  Name = ZINC17819404
REMARK  7 active torsions:
REMARK  status: ('A' for Active; 'I' for Inactive)
REMARK    1  A    between atoms: C_1  and  C_2
REMARK    2  A    between atoms: C_5  and  N_9
REMARK    3  A    between atoms: C_6  and  C_8
REMARK    4  A    between atoms: C_13  and  C_22
REMARK    5  A    between atoms: C_14  and  C_15
REMARK    6  A    between atoms: C_14  and  O_21
REMARK    7  A    between atoms: C_22  and  C_24
REMARK                            x       y       z     vdW  Elec       q    Type
REMARK                         _______ _______ _______ _____ _____    ______ ____
ROOT
ATOM      1  N   UNL     1       2.498   0.688   0.274  0.00  0.00    -0.227 N 
ATOM      2  C   UNL     1       1.826  -0.450   0.022  0.00  0.00    +0.294 C 
ATOM      3  O   UNL     1       2.326  -1.556  -0.044  0.00  0.00    -0.266 OA
ATOM      4  C   UNL     1       0.390  -0.158  -0.163  0.00  0.00    +0.252 C 
ATOM      5  C   UNL     1       0.185   1.174  -0.023  0.00  0.00    +0.106 C 
ATOM      6  C   UNL     1       1.533   1.793   0.267  0.00  0.00    +0.200 C 
ATOM      7  O   UNL     1      -0.569  -1.074  -0.431  0.00  0.00    -0.282 OA
ENDROOT
BRANCH   1  12
ATOM      8  C   UNL     1       8.076   1.137   1.196  0.00  0.00    +0.044 C 
ATOM      9  C   UNL     1       6.594   1.017   0.951  0.00  0.00    -0.050 A 
ATOM     10  C   UNL     1       6.095   1.134  -0.334  0.00  0.00    +0.005 A 
ATOM     11  C   UNL     1       4.738   1.025  -0.562  0.00  0.00    +0.024 A 
ATOM     12  C   UNL     1       3.873   0.798   0.501  0.00  0.00    +0.043 A 
ATOM     13  C   UNL     1       4.376   0.686   1.790  0.00  0.00    -0.029 A 
ATOM     14  C   UNL     1       5.736   0.791   2.011  0.00  0.00    +0.008 A 
ATOM     15  C   UNL     1       3.441   0.446   2.947  0.00  0.00    +0.045 C 
ENDBRANCH   1  12
BRANCH   6  16
ATOM     16  C   UNL     1       1.889   2.785  -0.810  0.00  0.00    +0.008 A 
ATOM     17  C   UNL     1       1.660   4.134  -0.610  0.00  0.00    +0.008 A 
ATOM     18  C   UNL     1       1.991   5.045  -1.596  0.00  0.00    +0.000 A 
ATOM     19  C   UNL     1       2.542   4.606  -2.786  0.00  0.00    +0.000 A 
ATOM     20  C   UNL     1       2.766   3.256  -2.988  0.00  0.00    +0.000 A 
ATOM     21  C   UNL     1       2.439   2.346  -2.000  0.00  0.00    +0.008 A 
ENDBRANCH   6  16
BRANCH   6  22
ATOM     22  O   UNL     1       1.514   2.437   1.542  0.00  0.00    -0.363 OA
ATOM     23  H   UNL     1       0.844   3.292   1.717  0.00  0.00    +0.213 HD
ENDBRANCH   6  22
BRANCH   5  24
ATOM     24  C   UNL     1      -1.095   1.878  -0.136  0.00  0.00    +0.198 C 
ATOM     25  O   UNL     1      -1.351   2.518  -1.139  0.00  0.00    -0.287 OA
BRANCH  24  26
ATOM     26  C   UNL     1      -2.075   1.812   0.969  0.00  0.00    +0.022 A 
ATOM     27  C   UNL     1      -1.750   1.155   2.157  0.00  0.00    +0.012 A 
ATOM     28  C   UNL     1      -2.667   1.102   3.185  0.00  0.00    +0.001 A 
ATOM     29  C   UNL     1      -3.912   1.689   3.038  0.00  0.00    +0.000 A 
ATOM     30  C   UNL     1      -4.242   2.338   1.861  0.00  0.00    +0.001 A 
ATOM     31  C   UNL     1      -3.333   2.403   0.827  0.00  0.00    +0.012 A 
ENDBRANCH  24  26
ENDBRANCH   5  24
TORSDOF 5
