REMARK  Name = ZINC33257055
REMARK  10 active torsions:
REMARK  status: ('A' for Active; 'I' for Inactive)
REMARK    1  A    between atoms: C_1  and  C_2
REMARK    2  A    between atoms: C_7  and  O_8
REMARK    3  A    between atoms: O_8  and  C_9
REMARK    4  A    between atoms: C_9  and  C_10
REMARK    5  A    between atoms: N_12  and  C_13
REMARK    6  A    between atoms: C_18  and  S_19
REMARK    7  A    between atoms: S_19  and  C_20
REMARK    8  A    between atoms: C_21  and  C_36
REMARK    9  A    between atoms: C_22  and  C_35
REMARK   10  A    between atoms: C_27  and  C_29
REMARK                            x       y       z     vdW  Elec       q    Type
REMARK                         _______ _______ _______ _____ _____    ______ ____
ROOT
ATOM      1  C   UNL     1      -3.912  -4.568   0.106  0.00  0.00    +0.047 A 
ATOM      2  C   UNL     1      -4.996  -3.703   0.119  0.00  0.00    +0.024 A 
ATOM      3  C   UNL     1      -6.280  -4.206   0.215  0.00  0.00    +0.002 A 
ATOM      4  C   UNL     1      -6.489  -5.570   0.309  0.00  0.00    +0.001 A 
ATOM      5  C   UNL     1      -5.415  -6.439   0.303  0.00  0.00    +0.017 A 
ATOM      6  C   UNL     1      -4.122  -5.944   0.201  0.00  0.00    +0.035 A 
ENDROOT
BRANCH   1   9
ATOM      7  C   UNL     1      -2.398  -2.859  -0.567  0.00  0.00    +0.255 C 
ATOM      8  O   UNL     1      -3.319  -2.261  -1.082  0.00  0.00    -0.272 OA
ATOM      9  N   UNL     1      -2.610  -4.061   0.004  0.00  0.00    -0.282 N 
ATOM     10  H   UNL     1      -1.761  -4.644   0.390  0.00  0.00    +0.155 HD
BRANCH   7  11
ATOM     11  C   UNL     1      -1.016  -2.258  -0.566  0.00  0.00    +0.324 C 
BRANCH  11  12
ATOM     12  O   UNL     1      -1.048  -0.990  -1.225  0.00  0.00    -0.483 OA
BRANCH  12  19
ATOM     13  C   UNL     1      -1.087   1.515  -2.530  0.00  0.00    +0.047 C 
ATOM     14  C   UNL     1       0.168   0.926  -1.938  0.00  0.00    -0.009 A 
ATOM     15  C   UNL     1       1.362   1.615  -2.025  0.00  0.00    +0.007 A 
ATOM     16  C   UNL     1       2.515   1.073  -1.487  0.00  0.00    +0.000 A 
ATOM     17  C   UNL     1       2.475  -0.159  -0.862  0.00  0.00    +0.004 A 
ATOM     18  C   UNL     1       1.284  -0.852  -0.772  0.00  0.00    +0.046 A 
ATOM     19  C   UNL     1       0.126  -0.310  -1.311  0.00  0.00    +0.124 A 
ENDBRANCH  12  19
ENDBRANCH  11  12
ENDBRANCH   7  11
ENDBRANCH   1   9
BRANCH   6  20
ATOM     20  S   UNL     1      -2.750  -7.050   0.193  0.00  0.00    -0.068 S 
BRANCH  20  21
ATOM     21  C   UNL     1      -3.597  -8.589   0.333  0.00  0.00    +0.112 A 
ATOM     22  C   UNL     1      -3.914  -9.323  -0.795  0.00  0.00    +0.003 A 
ATOM     23  C   UNL     1      -4.579 -10.537  -0.645  0.00  0.00    +0.048 A 
ATOM     24  N   UNL     1      -4.909 -10.974   0.553  0.00  0.00    -0.216 NA
ATOM     25  C   UNL     1      -4.614 -10.272   1.654  0.00  0.00    +0.255 A 
ATOM     26  N   UNL     1      -3.957  -9.077   1.557  0.00  0.00    -0.189 N 
ATOM     27  N   UNL     1      -3.800  -8.600   2.865  0.00  0.00    -0.143 NA
ATOM     28  C   UNL     1      -4.346  -9.491   3.668  0.00  0.00    +0.184 A 
ATOM     29  N   UNL     1      -4.836 -10.498   2.943  0.00  0.00    -0.189 NA
ATOM     30  C   UNL     1      -4.927 -11.355  -1.862  0.00  0.00    +0.066 C 
ATOM     31  C   UNL     1      -3.542  -8.820  -2.166  0.00  0.00    +0.048 C 
BRANCH  28  32
ATOM     32  C   UNL     1      -4.406  -9.389   5.147  0.00  0.00    +0.021 A 
ATOM     33  C   UNL     1      -3.852  -8.287   5.796  0.00  0.00    +0.011 A 
ATOM     34  C   UNL     1      -3.916  -8.196   7.172  0.00  0.00    +0.001 A 
ATOM     35  C   UNL     1      -4.518  -9.200   7.907  0.00  0.00    +0.000 A 
ATOM     36  C   UNL     1      -5.065 -10.299   7.269  0.00  0.00    +0.001 A 
ATOM     37  C   UNL     1      -5.012 -10.398   5.893  0.00  0.00    +0.011 A 
ENDBRANCH  28  32
ENDBRANCH  20  21
ENDBRANCH   6  20
TORSDOF 7
