REMARK  Name = ZINC38610799
REMARK  8 active torsions:
REMARK  status: ('A' for Active; 'I' for Inactive)
REMARK    1  A    between atoms: C_1  and  C_2
REMARK    2  A    between atoms: C_2  and  C_3
REMARK    3  A    between atoms: C_3  and  C_5
REMARK    4  A    between atoms: C_3  and  C_11
REMARK    5  A    between atoms: N_13  and  C_14
REMARK    6  A    between atoms: C_22  and  C_24
REMARK    7  A    between atoms: C_24  and  O_26
REMARK    8  A    between atoms: O_26  and  C_27
REMARK                            x       y       z     vdW  Elec       q    Type
REMARK                         _______ _______ _______ _____ _____    ______ ____
ROOT
ATOM      1  C   UNL     1      -2.862   1.287  -2.834  0.00  0.00    +0.053 C 
ATOM      2  C   UNL     1      -2.969   2.483  -3.522  0.00  0.00    +0.019 A 
ATOM      3  C   UNL     1      -2.492   3.788  -3.248  0.00  0.00    +0.031 A 
ATOM      4  C   UNL     1      -2.753   4.795  -4.119  0.00  0.00    +0.042 A 
ATOM      5  C   UNL     1      -3.486   4.580  -5.290  0.00  0.00    +0.022 A 
ATOM      6  C   UNL     1      -3.974   3.358  -5.615  0.00  0.00    +0.027 A 
ATOM      7  C   UNL     1      -3.742   2.253  -4.755  0.00  0.00    +0.045 A 
ATOM      8  N   UNL     1      -4.102   0.989  -4.843  0.00  0.00    -0.367 N 
ATOM      9  C   UNL     1      -3.593   0.263  -3.674  0.00  0.00    +0.234 C 
ATOM     10 CL   UNL     1      -2.162   6.390  -3.771  0.00  0.00    -0.084 Cl
ATOM     11  H   UNL     1      -4.617   0.599  -5.566  0.00  0.00    +0.161 HD
ENDROOT
BRANCH   1  14
ATOM     12  C   UNL     1      -2.336  -0.118  -1.029  0.00  0.00    +0.224 C 
ATOM     13  O   UNL     1      -3.078  -0.967  -1.475  0.00  0.00    -0.275 OA
ATOM     14  N   UNL     1      -2.225   1.074  -1.649  0.00  0.00    -0.286 N 
ATOM     15  H   UNL     1      -1.692   1.780  -1.251  0.00  0.00    +0.155 HD
BRANCH  12  16
ATOM     16  C   UNL     1      -1.537  -0.395   0.219  0.00  0.00    +0.105 C 
BRANCH  16  17
ATOM     17  C   UNL     1      -2.050  -1.651   0.875  0.00  0.00    -0.036 A 
ATOM     18  C   UNL     1      -2.018  -2.851   0.190  0.00  0.00    +0.004 A 
ATOM     19  C   UNL     1      -2.489  -4.003   0.792  0.00  0.00    +0.000 A 
ATOM     20  C   UNL     1      -2.991  -3.955   2.079  0.00  0.00    +0.000 A 
ATOM     21  C   UNL     1      -3.022  -2.755   2.764  0.00  0.00    +0.000 A 
ATOM     22  C   UNL     1      -2.548  -1.604   2.164  0.00  0.00    +0.004 A 
ENDBRANCH  16  17
BRANCH  16  24
ATOM     23  C   UNL     1       0.497   0.743  -0.680  0.00  0.00    +0.005 C 
ATOM     24  C   UNL     1      -0.063  -0.577  -0.149  0.00  0.00    +0.014 C 
ENDBRANCH  16  24
ENDBRANCH  12  16
ENDBRANCH   1  14
BRANCH   9  25
ATOM     25  C   UNL     1      -2.645  -0.825  -4.108  0.00  0.00    +0.335 C 
ATOM     26  O   UNL     1      -2.075  -0.742  -5.170  0.00  0.00    -0.248 OA
BRANCH  25  27
ATOM     27  O   UNL     1      -2.433  -1.886  -3.314  0.00  0.00    -0.466 OA
ATOM     28  C   UNL     1      -1.522  -2.880  -3.788  0.00  0.00    +0.280 C 
ENDBRANCH  25  27
ENDBRANCH   9  25
TORSDOF 6
