REMARK  Name = ZINC34788783
REMARK  4 active torsions:
REMARK  status: ('A' for Active; 'I' for Inactive)
REMARK    1  A    between atoms: C_4  and  C_7
REMARK    2  A    between atoms: N_16  and  C_17
REMARK    3  A    between atoms: C_17  and  C_18
REMARK    4  A    between atoms: N_28  and  C_29
REMARK                            x       y       z     vdW  Elec       q    Type
REMARK                         _______ _______ _______ _____ _____    ______ ____
ROOT
ATOM      1  C   UNL     1       2.806  -3.049  -3.204  0.00  0.00    +0.199 C 
ATOM      2  O   UNL     1       3.358  -4.039  -2.775  0.00  0.00    -0.278 OA
ATOM      3  N   UNL     1       2.553  -2.936  -4.523  0.00  0.00    -0.300 N 
ATOM      4  C   UNL     1       1.890  -1.739  -5.058  0.00  0.00    +0.126 C 
ATOM      5  C   UNL     1       2.774  -1.141  -6.160  0.00  0.00    +0.128 C 
ATOM      6  N   UNL     1       3.157  -2.213  -7.089  0.00  0.00    -0.282 N 
ATOM      7  C   UNL     1       3.820  -3.411  -6.554  0.00  0.00    +0.128 C 
ATOM      8  C   UNL     1       2.942  -4.006  -5.453  0.00  0.00    +0.126 C 
ATOM      9  C   UNL     1       2.904  -2.101  -8.408  0.00  0.00    +0.307 C 
ATOM     10  O   UNL     1       2.268  -1.153  -8.827  0.00  0.00    -0.252 OA
ATOM     11  N   UNL     1       3.356  -3.040  -9.263  0.00  0.00    -0.269 N 
ATOM     12  H   UNL     1       3.773  -3.846  -8.922  0.00  0.00    +0.156 HD
ENDROOT
BRANCH  11  13
ATOM     13  C   UNL     1       3.224  -2.851 -10.643  0.00  0.00    +0.036 A 
ATOM     14  C   UNL     1       3.312  -1.574 -11.182  0.00  0.00    +0.023 A 
ATOM     15  C   UNL     1       3.181  -1.390 -12.545  0.00  0.00    +0.003 A 
ATOM     16  C   UNL     1       2.963  -2.475 -13.373  0.00  0.00    +0.020 A 
ATOM     17  C   UNL     1       2.875  -3.749 -12.840  0.00  0.00    +0.043 A 
ATOM     18  C   UNL     1       3.011  -3.940 -11.477  0.00  0.00    +0.043 A 
ATOM     19 CL   UNL     1       2.600  -5.109 -13.883  0.00  0.00    -0.083 Cl
ENDBRANCH  11  13
BRANCH   1  20
ATOM     20  C   UNL     1       2.402  -1.943  -2.263  0.00  0.00    +0.020 C 
BRANCH  20  29
ATOM     21  C   UNL     1       2.284  -1.281   0.035  0.00  0.00    -0.005 C 
ATOM     22  C   UNL     1       2.773  -1.608   1.442  0.00  0.00    -0.047 A 
ATOM     23  C   UNL     1       2.195  -1.104   2.605  0.00  0.00    +0.010 A 
ATOM     24  C   UNL     1       2.695  -1.451   3.814  0.00  0.00    +0.045 A 
ATOM     25  S   UNL     1       4.042  -2.534   3.360  0.00  0.00    -0.101 S 
ATOM     26  C   UNL     1       3.839  -2.442   1.605  0.00  0.00    -0.010 A 
ATOM     27  C   UNL     1       4.624  -3.099   0.517  0.00  0.00    +0.024 C 
ATOM     28  C   UNL     1       4.248  -2.412  -0.807  0.00  0.00    -0.072 C 
ATOM     29  N   UNL     1       2.785  -2.304  -0.891  0.00  0.00    +0.393 N 
ATOM     30  H   UNL     1       2.374  -3.195  -0.656  0.00  0.00    -0.080 HD
BRANCH  21  34
ATOM     31  C   UNL     1      -1.987  -1.261  -0.031  0.00  0.00    +0.000 A 
ATOM     32  C   UNL     1      -1.292  -0.069   0.038  0.00  0.00    +0.000 A 
ATOM     33  C   UNL     1       0.091  -0.075   0.060  0.00  0.00    +0.002 A 
ATOM     34  C   UNL     1       0.777  -1.274   0.013  0.00  0.00    -0.057 A 
ATOM     35  C   UNL     1       0.081  -2.467  -0.056  0.00  0.00    +0.002 A 
ATOM     36  C   UNL     1      -1.301  -2.460  -0.078  0.00  0.00    +0.000 A 
ENDBRANCH  21  34
ENDBRANCH  20  29
ENDBRANCH   1  20
TORSDOF 4
