REMARK  Name = ZINC36633807
REMARK  4 active torsions:
REMARK  status: ('A' for Active; 'I' for Inactive)
REMARK    1  A    between atoms: C_4  and  C_7
REMARK    2  A    between atoms: C_10  and  C_13
REMARK    3  A    between atoms: C_26  and  N_27
REMARK    4  A    between atoms: N_27  and  C_28
REMARK                            x       y       z     vdW  Elec       q    Type
REMARK                         _______ _______ _______ _____ _____    ______ ____
ROOT
ATOM      1  C   UNL     1       3.693  -0.682  -0.037  0.00  0.00    +0.069 C 
ATOM      2  N   UNL     1       4.854  -0.123  -0.040  0.00  0.00    -0.182 NA
ATOM      3  N   UNL     1       5.918  -1.022  -0.057  0.00  0.00    -0.200 N 
ATOM      4  C   UNL     1       5.383  -2.393  -0.067  0.00  0.00    +0.135 C 
ATOM      5  C   UNL     1       3.856  -2.185  -0.047  0.00  0.00    +0.087 C 
ATOM      6  C   UNL     1       7.253  -0.684  -0.064  0.00  0.00    +0.150 C 
ATOM      7  N   UNL     1       8.175  -1.603  -0.086  0.00  0.00    -0.153 NA
ATOM      8  C   UNL     1       9.478  -1.293  -0.093  0.00  0.00    +0.302 C 
ATOM      9  O   UNL     1      10.445  -2.038  -0.113  0.00  0.00    -0.260 OA
ATOM     10  S   UNL     1       9.438   0.494  -0.067  0.00  0.00    -0.025 S 
ATOM     11  C   UNL     1       7.659   0.680  -0.053  0.00  0.00    +0.070 C 
ATOM     12  C   UNL     1       6.904   1.812  -0.036  0.00  0.00    +0.090 C 
ENDROOT
BRANCH   4  13
ATOM     13  C   UNL     1       5.830  -3.146   1.160  0.00  0.00    -0.025 A 
ATOM     14  C   UNL     1       5.890  -2.502   2.382  0.00  0.00    +0.007 A 
ATOM     15  C   UNL     1       6.300  -3.191   3.507  0.00  0.00    +0.020 A 
ATOM     16  C   UNL     1       6.649  -4.526   3.411  0.00  0.00    +0.041 A 
ATOM     17  C   UNL     1       6.588  -5.170   2.188  0.00  0.00    +0.020 A 
ATOM     18  C   UNL     1       6.173  -4.481   1.065  0.00  0.00    +0.007 A 
ATOM     19 CL   UNL     1       7.164  -5.393   4.825  0.00  0.00    -0.084 Cl
ENDBRANCH   4  13
BRANCH   1  23
ATOM     20  C   UNL     1      -0.017   1.379   0.010  0.00  0.00    +0.000 A 
ATOM     21  C   UNL     1       1.168   2.094   0.002  0.00  0.00    +0.001 A 
ATOM     22  C   UNL     1       2.377   1.431  -0.013  0.00  0.00    +0.010 A 
ATOM     23  C   UNL     1       2.404   0.034  -0.021  0.00  0.00    -0.002 A 
ATOM     24  C   UNL     1       1.204  -0.681  -0.013  0.00  0.00    +0.010 A 
ATOM     25  C   UNL     1       0.002  -0.004   0.002  0.00  0.00    +0.001 A 
ENDBRANCH   1  23
BRANCH  12  26
ATOM     26  N   UNL     1       7.509   3.035  -0.028  0.00  0.00    -0.319 N 
ATOM     27  H   UNL     1       8.476   3.098  -0.035  0.00  0.00    +0.152 HD
BRANCH  26  28
ATOM     28  C   UNL     1       6.733   4.198  -0.011  0.00  0.00    +0.031 A 
ATOM     29  C   UNL     1       5.347   4.109   0.004  0.00  0.00    +0.024 A 
ATOM     30  C   UNL     1       4.583   5.259   0.022  0.00  0.00    +0.022 A 
ATOM     31  C   UNL     1       5.197   6.500   0.023  0.00  0.00    +0.041 A 
ATOM     32  C   UNL     1       6.578   6.591   0.008  0.00  0.00    +0.022 A 
ATOM     33  C   UNL     1       7.347   5.444  -0.003  0.00  0.00    +0.024 A 
ATOM     34 CL   UNL     1       4.233   7.943   0.044  0.00  0.00    -0.084 Cl
ENDBRANCH  26  28
ENDBRANCH  12  26
TORSDOF 4
