REMARK  Name = ZINC38597733
REMARK  7 active torsions:
REMARK  status: ('A' for Active; 'I' for Inactive)
REMARK    1  A    between atoms: C_3  and  C_6
REMARK    2  A    between atoms: C_6  and  C_8
REMARK    3  A    between atoms: C_6  and  N_24
REMARK    4  A    between atoms: C_8  and  N_9
REMARK    5  A    between atoms: C_10  and  C_12
REMARK    6  A    between atoms: C_12  and  C_17
REMARK    7  A    between atoms: N_27  and  C_30
REMARK                            x       y       z     vdW  Elec       q    Type
REMARK                         _______ _______ _______ _____ _____    ______ ____
ROOT
ATOM      1  C   UNL     1       3.383   1.294  -0.709  0.00  0.00    +0.017 C 
ENDROOT
BRANCH   1   2
ATOM      2  N   UNL     1       3.784   0.365  -1.774  0.00  0.00    +0.389 N 
ATOM      3  C   UNL     1       3.277   0.851  -3.063  0.00  0.00    -0.059 C 
ATOM      4  C   UNL     1       3.596  -0.174  -4.156  0.00  0.00    +0.086 C 
ATOM      5  N   UNL     1       5.042  -0.443  -4.136  0.00  0.00    -0.333 N 
ATOM      6  C   UNL     1       5.666  -0.779  -2.847  0.00  0.00    +0.086 C 
ATOM      7  C   UNL     1       5.249   0.274  -1.815  0.00  0.00    -0.059 C 
ATOM      8  H   UNL     1       3.397  -0.548  -1.586  0.00  0.00    -0.081 HD
BRANCH   5   9
ATOM      9  C   UNL     1       5.802  -0.380  -5.308  0.00  0.00    +0.030 A 
ATOM     10  C   UNL     1       7.138  -0.758  -5.292  0.00  0.00    +0.026 A 
ATOM     11  C   UNL     1       7.886  -0.695  -6.451  0.00  0.00    +0.040 A 
ATOM     12  C   UNL     1       7.306  -0.256  -7.628  0.00  0.00    +0.124 A 
ATOM     13  C   UNL     1       5.973   0.122  -7.647  0.00  0.00    +0.040 A 
ATOM     14  C   UNL     1       5.220   0.056  -6.491  0.00  0.00    +0.026 A 
ATOM     15  F   UNL     1       8.040  -0.195  -8.761  0.00  0.00    -0.205 F 
ENDBRANCH   5   9
ENDBRANCH   1   2
BRANCH   1  18
ATOM     16  C   UNL     1      -0.221   1.995  -0.381  0.00  0.00    +0.041 A 
ATOM     17  C   UNL     1       1.127   2.421  -0.402  0.00  0.00    +0.043 A 
ATOM     18  C   UNL     1       1.879   1.325  -0.611  0.00  0.00    +0.093 A 
ATOM     19  O   UNL     1       1.063   0.265  -0.718  0.00  0.00    -0.469 OA
ATOM     20  C   UNL     1      -0.212   0.665  -0.580  0.00  0.00    +0.195 A 
ENDBRANCH   1  18
BRANCH   1  21
ATOM     21  C   UNL     1       3.971   0.827   0.624  0.00  0.00    +0.096 C 
BRANCH  21  22
ATOM     22  N   UNL     1       3.581  -0.564   0.869  0.00  0.00    -0.316 N 
ATOM     23  C   UNL     1       3.901  -1.157   2.037  0.00  0.00    +0.224 C 
ATOM     24  O   UNL     1       4.587  -0.571   2.847  0.00  0.00    -0.275 OA
ATOM     25  H   UNL     1       3.094  -1.058   0.192  0.00  0.00    +0.149 HD
BRANCH  23  26
ATOM     26  C   UNL     1       3.405  -2.548   2.335  0.00  0.00    +0.072 C 
ATOM     27  C   UNL     1       1.870  -2.594   2.233  0.00  0.00    +0.021 C 
ATOM     28  C   UNL     1       1.347  -3.008   3.624  0.00  0.00    +0.001 C 
ATOM     29  C   UNL     1       2.484  -2.599   4.594  0.00  0.00    +0.001 C 
ATOM     30  C   UNL     1       3.761  -2.936   3.785  0.00  0.00    +0.021 C 
BRANCH  26  31
ATOM     31  C   UNL     1       4.017  -3.532   1.372  0.00  0.00    -0.032 A 
ATOM     32  C   UNL     1       4.995  -3.116   0.489  0.00  0.00    +0.006 A 
ATOM     33  C   UNL     1       5.557  -4.018  -0.395  0.00  0.00    +0.020 A 
ATOM     34  C   UNL     1       5.140  -5.337  -0.396  0.00  0.00    +0.041 A 
ATOM     35  C   UNL     1       4.160  -5.753   0.488  0.00  0.00    +0.020 A 
ATOM     36  C   UNL     1       3.603  -4.851   1.376  0.00  0.00    +0.006 A 
ATOM     37 CL   UNL     1       5.845  -6.471  -1.506  0.00  0.00    -0.084 Cl
ENDBRANCH  26  31
ENDBRANCH  23  26
ENDBRANCH  21  22
ENDBRANCH   1  21
TORSDOF 7
