REMARK  Name = ZINC02106950
REMARK  9 active torsions:
REMARK  status: ('A' for Active; 'I' for Inactive)
REMARK    1  A    between atoms: C_1  and  C_2
REMARK    2  A    between atoms: C_2  and  C_3
REMARK    3  A    between atoms: C_2  and  C_4
REMARK    4  A    between atoms: C_7  and  N_10
REMARK    5  A    between atoms: C_11  and  O_35
REMARK    6  A    between atoms: C_12  and  C_19
REMARK    7  A    between atoms: C_26  and  O_27
REMARK    8  A    between atoms: O_27  and  C_28
REMARK    9  A    between atoms: C_34  and  N_61
REMARK                            x       y       z     vdW  Elec       q    Type
REMARK                         _______ _______ _______ _____ _____    ______ ____
ROOT
ATOM      1  N   UNL     1       1.237  -2.081  -0.024  0.00  0.00    -0.233 N 
ATOM      2  C   UNL     1       2.434  -2.744  -0.140  0.00  0.00    +0.208 A 
ATOM      3  C   UNL     1       2.448  -4.107  -0.145  0.00  0.00    +0.068 A 
ATOM      4  C   UNL     1       1.232  -4.804  -0.030  0.00  0.00    +0.259 A 
ATOM      5  O   UNL     1       1.220  -6.022  -0.032  0.00  0.00    -0.267 OA
ATOM      6  N   UNL     1       0.079  -4.115   0.082  0.00  0.00    -0.274 N 
ATOM      7  H   UNL     1      -0.788  -4.607   0.160  0.00  0.00    +0.173 HD
ATOM      8  C   UNL     1       0.086  -2.769   0.090  0.00  0.00    +0.336 A 
ATOM      9  O   UNL     1      -0.964  -2.166   0.198  0.00  0.00    -0.246 OA
ENDROOT
BRANCH   3  10
ATOM     10  C   UNL     1       3.749  -4.857  -0.272  0.00  0.00    +0.007 C 
ATOM     11  C   UNL     1       3.763  -5.613  -1.575  0.00  0.00    -0.008 A 
ATOM     12  C   UNL     1       4.233  -6.906  -1.662  0.00  0.00    -0.040 A 
ATOM     13  C   UNL     1       4.232  -7.563  -2.883  0.00  0.00    +0.053 A 
ATOM     14  C   UNL     1       3.760  -6.933  -4.021  0.00  0.00    +0.170 A 
ATOM     15  C   UNL     1       3.283  -5.629  -3.938  0.00  0.00    +0.208 A 
ATOM     16  C   UNL     1       3.286  -4.973  -2.715  0.00  0.00    +0.167 A 
ATOM     17  O   UNL     1       2.878  -5.232  -5.181  0.00  0.00    -0.449 OA
ATOM     18  C   UNL     1       3.490  -6.158  -6.098  0.00  0.00    +0.467 C 
ATOM     19  O   UNL     1       3.655  -7.355  -5.315  0.00  0.00    -0.452 OA
ATOM     20  C   UNL     1       4.754  -7.640  -0.453  0.00  0.00    +0.017 C 
ATOM     21  C   UNL     1       5.061  -6.648   0.668  0.00  0.00    -0.073 C 
ATOM     22  C   UNL     1       3.973  -5.049   2.129  0.00  0.00    -0.095 C 
ATOM     23  N   UNL     1       3.868  -5.797   0.856  0.00  0.00    +0.386 N 
ATOM     24  H   UNL     1       3.033  -6.393   0.886  0.00  0.00    -0.081 HD
BRANCH  16  25
ATOM     25  O   UNL     1       2.821  -3.698  -2.630  0.00  0.00    -0.491 OA
ATOM     26  C   UNL     1       3.768  -2.647  -2.830  0.00  0.00    +0.277 C 
ENDBRANCH  16  25
ENDBRANCH   3  10
BRANCH   1  30
ATOM     27  C   UNL     1       1.171   2.086  -0.006  0.00  0.00    -0.045 A 
ATOM     28  C   UNL     1       1.061   1.399  -1.201  0.00  0.00    +0.006 A 
ATOM     29  C   UNL     1       1.082   0.018  -1.210  0.00  0.00    +0.027 A 
ATOM     30  C   UNL     1       1.214  -0.680  -0.018  0.00  0.00    +0.054 A 
ATOM     31  C   UNL     1       1.324   0.012   1.181  0.00  0.00    +0.027 A 
ATOM     32  C   UNL     1       1.302   1.393   1.183  0.00  0.00    +0.006 A 
BRANCH  27  34
ATOM     33  C   UNL     1      -0.032   4.081   0.846  0.00  0.00    +0.012 C 
ATOM     34  C   UNL     1       1.147   3.593   0.000  0.00  0.00    +0.013 C 
ATOM     35  C   UNL     1       2.454   4.121   0.594  0.00  0.00    +0.012 C 
ENDBRANCH  27  34
ENDBRANCH   1  30
BRANCH   2  36
ATOM     36  O   UNL     1       3.588  -2.051  -0.249  0.00  0.00    -0.493 OA
ATOM     37  H   UNL     1       3.482  -1.095  -0.157  0.00  0.00    +0.294 HD
ENDBRANCH   2  36
TORSDOF 5
