REMARK  Name = ZINC09259634
REMARK  6 active torsions:
REMARK  status: ('A' for Active; 'I' for Inactive)
REMARK    1  A    between atoms: C_1  and  C_2
REMARK    2  A    between atoms: C_4  and  C_19
REMARK    3  A    between atoms: C_5  and  C_18
REMARK    4  A    between atoms: N_6  and  C_7
REMARK    5  A    between atoms: C_8  and  C_16
REMARK    6  A    between atoms: N_26  and  C_29
REMARK                            x       y       z     vdW  Elec       q    Type
REMARK                         _______ _______ _______ _____ _____    ______ ____
ROOT
ATOM      1  C   UNL     1       6.188   1.163  -0.467  0.00  0.00    +0.064 C 
ATOM      2  C   UNL     1       5.385   2.433  -0.587  0.00  0.00    +0.022 A 
ATOM      3  C   UNL     1       4.130   2.604  -0.143  0.00  0.00    +0.031 A 
ATOM      4  C   UNL     1       3.755   3.987  -0.477  0.00  0.00    -0.003 A 
ATOM      5  C   UNL     1       4.863   4.539  -1.105  0.00  0.00    +0.029 A 
ATOM      6  N   UNL     1       5.824   3.596  -1.160  0.00  0.00    -0.310 N 
ATOM      7  C   UNL     1       4.972   5.946  -1.632  0.00  0.00    +0.064 C 
ENDROOT
BRANCH   4   8
ATOM      8  C   UNL     1       2.521   4.625  -0.209  0.00  0.00    +0.028 C 
ATOM      9  C   UNL     1       1.331   3.948  -0.422  0.00  0.00    +0.100 C 
ATOM     10  C   UNL     1       1.298   2.650  -1.121  0.00  0.00    +0.257 C 
ATOM     11  O   UNL     1       2.321   2.135  -1.532  0.00  0.00    -0.270 OA
ATOM     12  N   UNL     1       0.103   2.049  -1.293  0.00  0.00    -0.235 N 
ATOM     13  C   UNL     1      -1.032   2.607  -0.850  0.00  0.00    +0.320 C 
ATOM     14  O   UNL     1      -2.077   2.016  -1.041  0.00  0.00    -0.251 OA
ATOM     15  N   UNL     1      -1.077   3.780  -0.203  0.00  0.00    -0.190 N 
ATOM     16  C   UNL     1       0.042   4.494   0.040  0.00  0.00    +0.263 C 
ATOM     17  O   UNL     1      -0.011   5.559   0.625  0.00  0.00    -0.269 OA
ATOM     18  H   UNL     1       0.063   1.195  -1.751  0.00  0.00    +0.159 HD
BRANCH  15  19
ATOM     19  C   UNL     1      -2.314   4.279   0.227  0.00  0.00    +0.047 A 
ATOM     20  C   UNL     1      -2.760   4.016   1.516  0.00  0.00    +0.024 A 
ATOM     21  C   UNL     1      -3.979   4.509   1.937  0.00  0.00    +0.003 A 
ATOM     22  C   UNL     1      -4.756   5.264   1.078  0.00  0.00    +0.020 A 
ATOM     23  C   UNL     1      -4.315   5.527  -0.207  0.00  0.00    +0.043 A 
ATOM     24  C   UNL     1      -3.093   5.040  -0.632  0.00  0.00    +0.044 A 
ATOM     25 CL   UNL     1      -5.293   6.475  -1.283  0.00  0.00    -0.083 Cl
ENDBRANCH  15  19
ENDBRANCH   4   8
BRANCH   6  26
ATOM     26  C   UNL     1       7.083   3.779  -1.722  0.00  0.00    +0.103 A 
ATOM     27  C   UNL     1       8.324   3.595  -1.131  0.00  0.00    +0.086 A 
ATOM     28  C   UNL     1       9.500   3.857  -1.941  0.00  0.00    -0.018 A 
ATOM     29  C   UNL     1       9.248   4.259  -3.208  0.00  0.00    -0.004 A 
ATOM     30  S   UNL     1       7.482   4.285  -3.330  0.00  0.00    -0.074 S 
ATOM     31  C   UNL     1      10.254   4.599  -4.264  0.00  0.00    +0.043 C 
ATOM     32  C   UNL     1      11.620   4.784  -3.588  0.00  0.00    +0.005 C 
ATOM     33  C   UNL     1      11.867   3.606  -2.642  0.00  0.00    +0.005 C 
ATOM     34  C   UNL     1      10.929   3.699  -1.437  0.00  0.00    +0.037 C 
BRANCH  27  35
ATOM     35  C   UNL     1       8.441   3.163   0.229  0.00  0.00    +0.102 C 
ATOM     36  N   UNL     1       8.535   2.820   1.308  0.00  0.00    -0.191 NA
ENDBRANCH  27  35
ENDBRANCH   6  26
TORSDOF 4
