REMARK  Name = ZINC08933300
REMARK  10 active torsions:
REMARK  status: ('A' for Active; 'I' for Inactive)
REMARK    1  A    between atoms: C_1  and  C_2
REMARK    2  A    between atoms: C_4  and  C_39
REMARK    3  A    between atoms: C_5  and  C_9
REMARK    4  A    between atoms: C_6  and  C_8
REMARK    5  A    between atoms: C_9  and  N_10
REMARK    6  A    between atoms: N_21  and  C_24
REMARK    7  A    between atoms: C_24  and  C_25
REMARK    8  A    between atoms: N_27  and  C_28
REMARK    9  A    between atoms: C_33  and  C_38
REMARK   10  A    between atoms: C_35  and  C_37
REMARK                            x       y       z     vdW  Elec       q    Type
REMARK                         _______ _______ _______ _____ _____    ______ ____
ROOT
ATOM      1  N   UNL     1      -4.183   2.616  -0.090  0.00  0.00    -0.331 N 
ATOM      2  C   UNL     1      -5.398   2.159   0.373  0.00  0.00    +0.051 A 
ATOM      3  C   UNL     1      -5.845   0.899   0.765  0.00  0.00    +0.026 A 
ATOM      4  C   UNL     1      -7.140   0.736   1.203  0.00  0.00    +0.002 A 
ATOM      5  C   UNL     1      -8.007   1.818   1.264  0.00  0.00    +0.001 A 
ATOM      6  C   UNL     1      -7.588   3.064   0.891  0.00  0.00    +0.010 A 
ATOM      7  C   UNL     1      -6.279   3.252   0.444  0.00  0.00    +0.009 A 
ATOM      8  C   UNL     1      -5.524   4.423  -0.021  0.00  0.00    +0.033 A 
ATOM      9  C   UNL     1      -4.243   3.970  -0.334  0.00  0.00    +0.119 A 
ATOM     10  C   UNL     1      -3.294   4.905  -0.813  0.00  0.00    +0.292 A 
ATOM     11  O   UNL     1      -2.164   4.545  -1.097  0.00  0.00    -0.264 OA
ATOM     12  N   UNL     1      -3.652   6.198  -0.951  0.00  0.00    -0.219 N 
ATOM     13  N   UNL     1      -4.944   6.623  -0.629  0.00  0.00    -0.175 NA
ATOM     14  C   UNL     1      -5.842   5.788  -0.185  0.00  0.00    +0.143 A 
ENDROOT
BRANCH   1  15
ATOM     15  C   UNL     1      -2.998   1.780  -0.299  0.00  0.00    +0.158 C 
BRANCH  15  20
ATOM     16  C   UNL     1      -0.299   0.969   4.746  0.00  0.00    +0.044 C 
ATOM     17  C   UNL     1      -1.002   1.180   3.430  0.00  0.00    -0.050 A 
ATOM     18  C   UNL     1      -1.654   0.126   2.818  0.00  0.00    +0.007 A 
ATOM     19  C   UNL     1      -2.300   0.320   1.611  0.00  0.00    -0.045 A 
ATOM     20  C   UNL     1      -2.294   1.568   1.017  0.00  0.00    -0.022 A 
ATOM     21  C   UNL     1      -1.638   2.621   1.626  0.00  0.00    -0.045 A 
ATOM     22  C   UNL     1      -0.996   2.428   2.835  0.00  0.00    +0.007 A 
ATOM     23  C   UNL     1      -1.626   3.980   0.975  0.00  0.00    +0.044 C 
ATOM     24  C   UNL     1      -3.010  -0.829   0.944  0.00  0.00    +0.044 C 
ENDBRANCH  15  20
ENDBRANCH   1  15
BRANCH  12  25
ATOM     25  C   UNL     1      -2.674   7.169  -1.445  0.00  0.00    +0.243 C 
BRANCH  25  26
ATOM     26  C   UNL     1      -2.756   7.245  -2.948  0.00  0.00    +0.235 C 
ATOM     27  O   UNL     1      -3.553   6.554  -3.547  0.00  0.00    -0.274 OA
ATOM     28  N   UNL     1      -1.943   8.079  -3.626  0.00  0.00    -0.311 N 
ATOM     29  H   UNL     1      -1.305   8.631  -3.147  0.00  0.00    +0.149 HD
BRANCH  28  30
ATOM     30  C   UNL     1      -2.022   8.152  -5.087  0.00  0.00    +0.076 C 
ATOM     31  C   UNL     1      -1.159   7.048  -5.701  0.00  0.00    +0.022 C 
ATOM     32  C   UNL     1      -1.241   7.124  -7.226  0.00  0.00    +0.002 C 
ATOM     33  C   UNL     1      -0.735   8.489  -7.697  0.00  0.00    +0.003 C 
ATOM     34  C   UNL     1      -1.598   9.593  -7.084  0.00  0.00    -0.009 C 
ATOM     35  C   UNL     1      -1.516   9.517  -5.558  0.00  0.00    +0.009 C 
ATOM     36  C   UNL     1      -0.062   9.701  -5.116  0.00  0.00    +0.009 C 
ATOM     37  C   UNL     1      -1.092  10.957  -7.555  0.00  0.00    +0.008 C 
ENDBRANCH  28  30
ENDBRANCH  25  26
ENDBRANCH  12  25
TORSDOF 5
