REMARK  Name = ZINC38827380
REMARK  8 active torsions:
REMARK  status: ('A' for Active; 'I' for Inactive)
REMARK    1  A    between atoms: C_1  and  C_2
REMARK    2  A    between atoms: C_5  and  O_8
REMARK    3  A    between atoms: O_8  and  C_9
REMARK    4  A    between atoms: C_13  and  C_15
REMARK    5  A    between atoms: C_18  and  O_22
REMARK    6  A    between atoms: C_20  and  O_21
REMARK    7  A    between atoms: O_22  and  C_23
REMARK    8  A    between atoms: C_23  and  C_24
REMARK                            x       y       z     vdW  Elec       q    Type
REMARK                         _______ _______ _______ _____ _____    ______ ____
ROOT
ATOM      1  C   UNL     1       1.363  -6.784   1.108  0.00  0.00    +0.025 A 
ATOM      2  C   UNL     1       2.397  -6.988   2.003  0.00  0.00    +0.013 A 
ATOM      3  C   UNL     1       3.579  -7.562   1.577  0.00  0.00    +0.046 A 
ATOM      4  C   UNL     1       3.732  -7.936   0.249  0.00  0.00    +0.124 A 
ATOM      5  C   UNL     1       2.697  -7.732  -0.650  0.00  0.00    +0.091 A 
ATOM      6  C   UNL     1       1.509  -7.161  -0.219  0.00  0.00    +0.126 A 
ENDROOT
BRANCH   1  11
ATOM      7  C   UNL     1       0.029  -4.684   1.210  0.00  0.00    +0.153 C 
ATOM      8  C   UNL     1      -0.053  -4.062   2.403  0.00  0.00    +0.176 C 
ATOM      9  N   UNL     1      -0.056  -4.952   3.402  0.00  0.00    -0.182 NA
ATOM     10  N   UNL     1       0.015  -6.131   3.047  0.00  0.00    -0.294 N 
ATOM     11  C   UNL     1       0.075  -6.158   1.576  0.00  0.00    +0.199 C 
ATOM     12  H   UNL     1       0.025  -6.904   3.633  0.00  0.00    +0.184 HD
BRANCH   7  13
ATOM     13  O   UNL     1       0.058  -4.129  -0.021  0.00  0.00    -0.456 OA
BRANCH  13  18
ATOM     14  C   UNL     1      -4.346  -5.005  -3.421  0.00  0.00    +0.044 C 
ATOM     15  C   UNL     1      -3.167  -4.771  -2.511  0.00  0.00    -0.050 A 
ATOM     16  C   UNL     1      -2.053  -4.103  -2.984  0.00  0.00    +0.007 A 
ATOM     17  C   UNL     1      -0.971  -3.886  -2.152  0.00  0.00    +0.046 A 
ATOM     18  C   UNL     1      -1.004  -4.340  -0.841  0.00  0.00    +0.128 A 
ATOM     19  C   UNL     1      -2.124  -5.010  -0.369  0.00  0.00    +0.046 A 
ATOM     20  C   UNL     1      -3.205  -5.219  -1.204  0.00  0.00    +0.007 A 
ENDBRANCH  13  18
ENDBRANCH   7  13
ENDBRANCH   1  11
BRANCH   6  21
ATOM     21  O   UNL     1       0.490  -6.966  -1.097  0.00  0.00    -0.506 OA
ATOM     22  H   UNL     1       0.514  -6.109  -1.544  0.00  0.00    +0.292 HD
ENDBRANCH   6  21
BRANCH   4  23
ATOM     23  O   UNL     1       4.895  -8.500  -0.170  0.00  0.00    -0.487 OA
BRANCH  23  24
ATOM     24  C   UNL     1       5.919  -8.679   0.811  0.00  0.00    +0.266 C 
BRANCH  24  25
ATOM     25  C   UNL     1       7.125  -9.313   0.168  0.00  0.00    +0.008 A 
ATOM     26  C   UNL     1       7.110  -9.618  -1.180  0.00  0.00    +0.010 A 
ATOM     27  C   UNL     1       8.216 -10.199  -1.770  0.00  0.00    +0.020 A 
ATOM     28  C   UNL     1       9.340 -10.477  -1.012  0.00  0.00    +0.042 A 
ATOM     29  C   UNL     1       9.356 -10.171   0.337  0.00  0.00    +0.040 A 
ATOM     30  C   UNL     1       8.250  -9.585   0.926  0.00  0.00    +0.049 A 
ATOM     31 CL   UNL     1       8.272  -9.196   2.618  0.00  0.00    -0.083 Cl
ATOM     32 CL   UNL     1      10.729 -11.208  -1.754  0.00  0.00    -0.083 Cl
ENDBRANCH  24  25
ENDBRANCH  23  24
ENDBRANCH   4  23
TORSDOF 7
