REMARK  Name = ZINC05635171
REMARK  2 active torsions:
REMARK  status: ('A' for Active; 'I' for Inactive)
REMARK    1  A    between atoms: C_6  and  N_7
REMARK    2  A    between atoms: C_13  and  N_14
REMARK                            x       y       z     vdW  Elec       q    Type
REMARK                         _______ _______ _______ _____ _____    ______ ____
ROOT
ATOM      1  C   UNL     1      -0.020   1.084  -0.240  0.00  0.00    +0.038 A 
ATOM      2  C   UNL     1       1.181   1.785  -0.252  0.00  0.00    +0.041 A 
ATOM      3  C   UNL     1       1.198   3.149  -0.166  0.00  0.00    +0.136 A 
ATOM      4  C   UNL     1      -0.012   3.848  -0.064  0.00  0.00    +0.077 A 
ATOM      5  C   UNL     1      -1.235   3.134  -0.051  0.00  0.00    +0.111 A 
ATOM      6  C   UNL     1      -1.214   1.737  -0.147  0.00  0.00    +0.152 A 
ATOM      7  N   UNL     1      -2.382   3.821   0.047  0.00  0.00    -0.212 NA
ATOM      8  C   UNL     1      -2.368   5.138   0.130  0.00  0.00    +0.215 A 
ATOM      9  N   UNL     1      -1.242   5.847   0.121  0.00  0.00    -0.199 NA
ATOM     10  C   UNL     1      -0.057   5.261   0.028  0.00  0.00    +0.132 A 
ATOM     11  N   UNL     1      -3.573   5.810   0.229  0.00  0.00    -0.327 N 
ATOM     12  F   UNL     1       2.372   3.818  -0.178  0.00  0.00    -0.205 F 
ATOM     13  H   UNL     1      -4.405   5.313   0.236  0.00  0.00    +0.145 HD
ATOM     14  H   UNL     1      -3.585   6.778   0.291  0.00  0.00    +0.145 HD
ENDROOT
BRANCH   6  15
ATOM     15  N   UNL     1      -2.481   0.972  -0.141  0.00  0.00    +0.059 N 
ATOM     16  O   UNL     1      -2.459  -0.244  -0.220  0.00  0.00    -0.126 OA
ATOM     17  O   UNL     1      -3.546   1.557  -0.058  0.00  0.00    -0.126 OA
ENDBRANCH   6  15
BRANCH  10  18
ATOM     18  N   UNL     1       1.102   6.007   0.020  0.00  0.00    -0.342 N 
ATOM     19  H   UNL     1       1.963   5.566   0.083  0.00  0.00    +0.144 HD
ATOM     20  H   UNL     1       1.056   6.974  -0.049  0.00  0.00    +0.144 HD
ENDBRANCH  10  18
TORSDOF 2
