REMARK  Name = ZINC02631653
REMARK  4 active torsions:
REMARK  status: ('A' for Active; 'I' for Inactive)
REMARK    1  A    between atoms: C_1  and  C_2
REMARK    2  A    between atoms: C_5  and  C_8
REMARK    3  A    between atoms: C_8  and  N_9
REMARK    4  A    between atoms: C_24  and  C_29
REMARK                            x       y       z     vdW  Elec       q    Type
REMARK                         _______ _______ _______ _____ _____    ______ ____
ROOT
ATOM      1  N   UNL     1      -0.018   1.461   0.010  0.00  0.00    -0.260 N 
ATOM      2  C   UNL     1      -1.201   2.107   0.019  0.00  0.00    +0.251 C 
ATOM      3  O   UNL     1      -2.238   1.487   0.158  0.00  0.00    -0.270 OA
ATOM      4  C   UNL     1      -1.227   3.572  -0.136  0.00  0.00    +0.058 A 
ATOM      5  C   UNL     1      -2.395   4.305   0.067  0.00  0.00    +0.015 A 
ATOM      6  C   UNL     1      -2.368   5.678  -0.067  0.00  0.00    +0.001 A 
ATOM      7  C   UNL     1      -1.191   6.330  -0.400  0.00  0.00    +0.002 A 
ATOM      8  C   UNL     1      -0.028   5.614  -0.610  0.00  0.00    +0.024 A 
ATOM      9  C   UNL     1      -0.039   4.235  -0.485  0.00  0.00    +0.041 A 
ATOM     10  N   UNL     1       1.105   3.473  -0.700  0.00  0.00    -0.312 N 
ATOM     11  C   UNL     1       1.244   2.196   0.002  0.00  0.00    +0.208 C 
ATOM     12  C   UNL     1       1.752   2.407   1.394  0.00  0.00    +0.025 A 
ATOM     13  C   UNL     1       1.220   3.091   2.466  0.00  0.00    +0.010 A 
ATOM     14  C   UNL     1       1.960   3.094   3.643  0.00  0.00    +0.001 A 
ATOM     15  C   UNL     1       3.173   2.442   3.731  0.00  0.00    +0.005 A 
ATOM     16  C   UNL     1       3.715   1.753   2.657  0.00  0.00    -0.029 A 
ATOM     17  C   UNL     1       2.982   1.743   1.469  0.00  0.00    +0.044 A 
ATOM     18  N   UNL     1       3.281   1.146   0.257  0.00  0.00    -0.281 N 
ATOM     19  C   UNL     1       2.320   1.361  -0.664  0.00  0.00    +0.264 C 
ATOM     20  O   UNL     1       2.317   0.963  -1.809  0.00  0.00    -0.271 OA
ATOM     21  C   UNL     1       5.041   1.045   2.767  0.00  0.00    +0.045 C 
ATOM     22  H   UNL     1       1.798   3.782  -1.304  0.00  0.00    +0.149 HD
ATOM     23  H   UNL     1       4.087   0.633   0.090  0.00  0.00    +0.155 HD
ENDROOT
BRANCH   1  24
ATOM     24  C   UNL     1       0.002  -0.004   0.002  0.00  0.00    +0.146 C 
BRANCH  24  29
ATOM     25  C   UNL     1       0.080  -1.959   5.439  0.00  0.00    +0.044 C 
ATOM     26  C   UNL     1       0.060  -1.450   4.021  0.00  0.00    -0.050 A 
ATOM     27  C   UNL     1      -1.147  -1.232   3.382  0.00  0.00    +0.003 A 
ATOM     28  C   UNL     1      -1.165  -0.764   2.082  0.00  0.00    +0.005 A 
ATOM     29  C   UNL     1       0.022  -0.514   1.420  0.00  0.00    -0.030 A 
ATOM     30  C   UNL     1       1.229  -0.737   2.057  0.00  0.00    +0.005 A 
ATOM     31  C   UNL     1       1.248  -1.200   3.360  0.00  0.00    +0.003 A 
ENDBRANCH  24  29
ENDBRANCH   1  24
TORSDOF 2
