REMARK  Name = ZINC41023396
REMARK  11 active torsions:
REMARK  status: ('A' for Active; 'I' for Inactive)
REMARK    1  A    between atoms: C_1  and  C_2
REMARK    2  A    between atoms: C_2  and  C_3
REMARK    3  A    between atoms: C_3  and  C_4
REMARK    4  A    between atoms: C_4  and  S_5
REMARK    5  A    between atoms: S_5  and  C_6
REMARK    6  A    between atoms: C_11  and  C_28
REMARK    7  A    between atoms: C_13  and  C_17
REMARK    8  A    between atoms: C_14  and  C_16
REMARK    9  A    between atoms: N_19  and  C_20
REMARK   10  A    between atoms: C_24  and  C_27
REMARK   11  A    between atoms: C_25  and  C_26
REMARK                            x       y       z     vdW  Elec       q    Type
REMARK                         _______ _______ _______ _____ _____    ______ ____
ROOT
ATOM      1  C   UNL     1       0.494  -4.431  -2.868  0.00  0.00    +0.210 A 
ATOM      2  N   UNL     1       0.237  -5.320  -1.898  0.00  0.00    -0.187 NA
ATOM      3  C   UNL     1       0.765  -6.472  -2.212  0.00  0.00    +0.220 A 
ATOM      4  N   UNL     1       1.386  -6.338  -3.410  0.00  0.00    -0.217 N 
ATOM      5  N   UNL     1       1.191  -5.019  -3.816  0.00  0.00    -0.141 NA
ATOM      6  C   UNL     1       2.100  -7.425  -4.076  0.00  0.00    +0.213 C 
ATOM      7  C   UNL     1       1.781  -8.727  -3.393  0.00  0.00    +0.063 C 
ATOM      8  C   UNL     1       1.159  -8.799  -2.207  0.00  0.00    +0.018 C 
ATOM      9  N   UNL     1       0.753  -7.678  -1.525  0.00  0.00    -0.287 N 
ATOM     10  C   UNL     1       0.897 -10.154  -1.602  0.00  0.00    +0.061 C 
ATOM     11  H   UNL     1       0.470  -7.727  -0.598  0.00  0.00    +0.155 HD
ENDROOT
BRANCH   6  12
ATOM     12  C   UNL     1       1.672  -7.496  -5.520  0.00  0.00    +0.136 A 
ATOM     13  C   UNL     1       2.492  -7.461  -6.585  0.00  0.00    +0.048 A 
ATOM     14  C   UNL     1       1.674  -7.555  -7.735  0.00  0.00    +0.057 A 
ATOM     15  C   UNL     1       0.402  -7.642  -7.302  0.00  0.00    +0.170 A 
ATOM     16  O   UNL     1       0.408  -7.612  -5.959  0.00  0.00    -0.451 OA
ATOM     17 BR   UNL     1      -1.131  -7.790  -8.399  0.00  0.00    -0.008 Br
ENDBRANCH   6  12
BRANCH   7  18
ATOM     18  C   UNL     1       2.154  -9.933  -4.032  0.00  0.00    +0.248 C 
ATOM     19  O   UNL     1       3.326 -10.257  -4.086  0.00  0.00    -0.270 OA
ATOM     20  N   UNL     1       1.211 -10.724  -4.582  0.00  0.00    -0.281 N 
ATOM     21  H   UNL     1       0.272 -10.509  -4.469  0.00  0.00    +0.155 HD
BRANCH  20  22
ATOM     22  C   UNL     1       1.586 -11.854  -5.315  0.00  0.00    +0.037 A 
ATOM     23  C   UNL     1       2.753 -12.536  -4.994  0.00  0.00    +0.023 A 
ATOM     24  C   UNL     1       3.122 -13.651  -5.720  0.00  0.00    +0.002 A 
ATOM     25  C   UNL     1       2.330 -14.090  -6.765  0.00  0.00    +0.004 A 
ATOM     26  C   UNL     1       1.167 -13.414  -7.087  0.00  0.00    -0.046 A 
ATOM     27  C   UNL     1       0.790 -12.301  -6.362  0.00  0.00    -0.026 A 
ATOM     28  C   UNL     1      -0.480 -11.569  -6.709  0.00  0.00    +0.046 C 
ATOM     29  C   UNL     1       0.307 -13.896  -8.227  0.00  0.00    +0.044 C 
ENDBRANCH  20  22
ENDBRANCH   7  18
BRANCH   1  30
ATOM     30  S   UNL     1      -0.025  -2.747  -2.875  0.00  0.00    -0.084 S 
BRANCH  30  31
ATOM     31  C   UNL     1      -0.930  -2.560  -1.314  0.00  0.00    +0.077 C 
BRANCH  31  32
ATOM     32  C   UNL     1      -1.443  -1.124  -1.191  0.00  0.00    +0.011 C 
BRANCH  32  34
ATOM     33  C   UNL     1      -2.719   0.470   0.249  0.00  0.00    +0.004 C 
ATOM     34  C   UNL     1      -2.206  -0.966   0.126  0.00  0.00    -0.003 C 
ENDBRANCH  32  34
ENDBRANCH  31  32
ENDBRANCH  30  31
ENDBRANCH   1  30
TORSDOF 7
