REMARK  Name = ZINC07855010
REMARK  7 active torsions:
REMARK  status: ('A' for Active; 'I' for Inactive)
REMARK    1  A    between atoms: C_1  and  C_2
REMARK    2  A    between atoms: C_2  and  N_8
REMARK    3  A    between atoms: N_8  and  N_9
REMARK    4  A    between atoms: C_10  and  C_12
REMARK    5  A    between atoms: C_15  and  C_18
REMARK    6  A    between atoms: C_18  and  O_19
REMARK    7  A    between atoms: O_19  and  C_20
REMARK                            x       y       z     vdW  Elec       q    Type
REMARK                         _______ _______ _______ _____ _____    ______ ____
ROOT
ATOM      1  C   UNL     1      -0.078  -4.095  -2.583  0.00  0.00    +0.038 A 
ATOM      2  C   UNL     1      -0.271  -4.851  -1.425  0.00  0.00    +0.013 A 
ATOM      3  C   UNL     1      -0.355  -6.225  -1.509  0.00  0.00    +0.008 A 
ATOM      4  C   UNL     1      -0.248  -6.855  -2.736  0.00  0.00    -0.010 A 
ATOM      5  C   UNL     1      -0.058  -6.111  -3.888  0.00  0.00    +0.008 A 
ATOM      6  C   UNL     1       0.023  -4.736  -3.819  0.00  0.00    +0.013 A 
ENDROOT
BRANCH   1   8
ATOM      7  N   UNL     1      -0.085  -2.006  -1.306  0.00  0.00    -0.233 N 
ATOM      8  C   UNL     1       0.013  -2.622  -2.501  0.00  0.00    +0.260 C 
ATOM      9  O   UNL     1       0.175  -1.965  -3.511  0.00  0.00    -0.269 OA
ATOM     10  H   UNL     1      -0.215  -2.530  -0.499  0.00  0.00    +0.173 HD
BRANCH   7  11
ATOM     11  N   UNL     1       0.001  -0.610  -1.228  0.00  0.00    -0.267 N 
ATOM     12  H   UNL     1       0.055  -0.081  -2.039  0.00  0.00    +0.170 HD
BRANCH  11  14
ATOM     13  C   UNL     1       0.048  -0.827   1.232  0.00  0.00    +0.064 C 
ATOM     14  C   UNL     1       0.008  -0.003  -0.029  0.00  0.00    +0.042 C 
ATOM     15  C   UNL     1      -0.020   1.387   0.048  0.00  0.00    +0.057 C 
ATOM     16  C   UNL     1      -0.112   2.155   1.231  0.00  0.00    +0.028 C 
ATOM     17  C   UNL     1      -0.107   3.463   0.842  0.00  0.00    +0.019 C 
ATOM     18  C   UNL     1      -0.014   3.478  -0.552  0.00  0.00    +0.083 C 
ATOM     19  N   UNL     1       0.041   2.243  -0.993  0.00  0.00    -0.360 N 
ATOM     20  H   UNL     1       0.112   1.986  -1.926  0.00  0.00    +0.165 HD
ENDBRANCH  11  14
ENDBRANCH   7  11
ENDBRANCH   1   8
BRANCH   4  21
ATOM     21  C   UNL     1      -0.341  -8.356  -2.820  0.00  0.00    +0.264 C 
BRANCH  21  22
ATOM     22  O   UNL     1      -1.704  -8.740  -3.009  0.00  0.00    -0.487 OA
BRANCH  22  23
ATOM     23  C   UNL     1      -1.962 -10.071  -3.105  0.00  0.00    +0.122 A 
ATOM     24  C   UNL     1      -0.910 -10.987  -3.012  0.00  0.00    +0.046 A 
ATOM     25  C   UNL     1      -1.137 -12.325  -3.104  0.00  0.00    +0.012 A 
ATOM     26  C   UNL     1      -2.447 -12.798  -3.296  0.00  0.00    -0.018 A 
ATOM     27  C   UNL     1      -2.717 -14.173  -3.395  0.00  0.00    +0.008 A 
ATOM     28  C   UNL     1      -3.998 -14.596  -3.580  0.00  0.00    +0.001 A 
ATOM     29  C   UNL     1      -5.048 -13.685  -3.673  0.00  0.00    +0.001 A 
ATOM     30  C   UNL     1      -4.825 -12.346  -3.582  0.00  0.00    +0.008 A 
ATOM     31  C   UNL     1      -3.515 -11.871  -3.390  0.00  0.00    -0.014 A 
ATOM     32  C   UNL     1      -3.248 -10.496  -3.286  0.00  0.00    +0.054 A 
ENDBRANCH  22  23
ENDBRANCH  21  22
ENDBRANCH   4  21
TORSDOF 6
