REMARK  Name = ZINC63221899
REMARK  11 active torsions:
REMARK  status: ('A' for Active; 'I' for Inactive)
REMARK    1  A    between atoms: C_1  and  C_2
REMARK    2  A    between atoms: C_5  and  C_8
REMARK    3  A    between atoms: N_10  and  C_11
REMARK    4  A    between atoms: C_11  and  C_12
REMARK    5  A    between atoms: N_14  and  C_15
REMARK    6  A    between atoms: C_15  and  C_16
REMARK    7  A    between atoms: C_16  and  C_18
REMARK    8  A    between atoms: C_16  and  C_27
REMARK    9  A    between atoms: C_21  and  N_24
REMARK   10  A    between atoms: N_24  and  C_25
REMARK   11  A    between atoms: N_24  and  C_26
REMARK                            x       y       z     vdW  Elec       q    Type
REMARK                         _______ _______ _______ _____ _____    ______ ____
ROOT
ATOM      1  C   UNL     1       0.157 -10.254   4.162  0.00  0.00    +0.064 C 
ENDROOT
BRANCH   1   2
ATOM      2  C   UNL     1       1.456 -10.721   3.558  0.00  0.00    -0.033 C 
ATOM      3  C   UNL     1       1.610 -11.488   2.454  0.00  0.00    -0.000 A 
ATOM      4  C   UNL     1       0.651 -12.094   1.523  0.00  0.00    +0.010 A 
ATOM      5  C   UNL     1       1.117 -12.828   0.486  0.00  0.00    +0.001 A 
ATOM      6  C   UNL     1       2.490 -13.023   0.280  0.00  0.00    +0.002 A 
ATOM      7  C   UNL     1       3.431 -12.498   1.093  0.00  0.00    +0.026 A 
ATOM      8  C   UNL     1       3.054 -11.709   2.214  0.00  0.00    +0.043 A 
ATOM      9  N   UNL     1       3.765 -11.103   3.133  0.00  0.00    -0.380 N 
ATOM     10  C   UNL     1       2.852 -10.422   4.058  0.00  0.00    +0.145 C 
ATOM     11  H   UNL     1       4.734 -11.101   3.190  0.00  0.00    +0.160 HD
ENDBRANCH   1   2
BRANCH   1  12
ATOM     12  C   UNL     1       0.048 -10.767   5.575  0.00  0.00    -0.039 A 
ATOM     13  C   UNL     1       0.997 -10.409   6.515  0.00  0.00    +0.006 A 
ATOM     14  C   UNL     1       0.900 -10.877   7.810  0.00  0.00    +0.023 A 
ATOM     15  C   UNL     1      -0.153 -11.708   8.169  0.00  0.00    +0.029 A 
ATOM     16  C   UNL     1      -1.105 -12.066   7.223  0.00  0.00    +0.023 A 
ATOM     17  C   UNL     1      -1.005 -11.590   5.931  0.00  0.00    +0.006 A 
BRANCH  15  18
ATOM     18  N   UNL     1      -0.255 -12.184   9.479  0.00  0.00    -0.336 N 
ATOM     19  C   UNL     1       0.814 -11.910  10.442  0.00  0.00    +0.129 C 
ATOM     20  C   UNL     1      -1.430 -12.957   9.889  0.00  0.00    +0.129 C 
ENDBRANCH  15  18
ENDBRANCH   1  12
BRANCH   1  21
ATOM     21  C   UNL     1       0.119  -8.725   4.170  0.00  0.00    +0.116 C 
BRANCH  21  24
ATOM     22  C   UNL     1       0.072  -6.903   2.553  0.00  0.00    +0.230 C 
ATOM     23  O   UNL     1       0.054  -6.120   3.479  0.00  0.00    -0.274 OA
ATOM     24  N   UNL     1       0.106  -8.229   2.792  0.00  0.00    -0.313 N 
ATOM     25  H   UNL     1       0.120  -8.856   2.051  0.00  0.00    +0.149 HD
BRANCH  22  26
ATOM     26  C   UNL     1       0.058  -6.394   1.134  0.00  0.00    +0.200 C 
BRANCH  26  29
ATOM     27  C   UNL     1       0.004  -4.249  -0.021  0.00  0.00    +0.244 C 
ATOM     28  O   UNL     1       0.018  -4.851  -1.077  0.00  0.00    -0.270 OA
ATOM     29  N   UNL     1       0.022  -4.929   1.142  0.00  0.00    -0.303 N 
ATOM     30  H   UNL     1       0.011  -4.449   1.985  0.00  0.00    +0.150 HD
BRANCH  27  35
ATOM     31  C   UNL     1      -0.140   1.503   0.009  0.00  0.00    +0.044 C 
ATOM     32  C   UNL     1      -0.102  -0.003   0.001  0.00  0.00    -0.050 A 
ATOM     33  C   UNL     1      -0.086  -0.685  -1.203  0.00  0.00    +0.004 A 
ATOM     34  C   UNL     1      -0.051  -2.064  -1.217  0.00  0.00    +0.013 A 
ATOM     35  C   UNL     1      -0.033  -2.771  -0.014  0.00  0.00    +0.037 A 
ATOM     36  C   UNL     1      -0.049  -2.077   1.197  0.00  0.00    +0.013 A 
ATOM     37  C   UNL     1      -0.078  -0.698   1.197  0.00  0.00    +0.004 A 
ENDBRANCH  27  35
ENDBRANCH  26  29
ENDBRANCH  22  26
ENDBRANCH  21  24
ENDBRANCH   1  21
TORSDOF 8
