REMARK  Name = ZINC35851644
REMARK  4 active torsions:
REMARK  status: ('A' for Active; 'I' for Inactive)
REMARK    1  A    between atoms: C_1  and  C_2
REMARK    2  A    between atoms: C_7  and  C_8
REMARK    3  A    between atoms: N_25  and  C_28
REMARK    4  A    between atoms: C_32  and  N_34
REMARK                            x       y       z     vdW  Elec       q    Type
REMARK                         _______ _______ _______ _____ _____    ______ ____
ROOT
ATOM      1  C   UNL     1      -0.819   1.390  -0.978  0.00  0.00    +0.044 C 
ATOM      2  C   UNL     1      -0.643  -0.095  -0.794  0.00  0.00    -0.046 A 
ATOM      3  C   UNL     1      -0.412  -0.902  -1.894  0.00  0.00    +0.004 A 
ATOM      4  C   UNL     1      -0.249  -2.265  -1.726  0.00  0.00    +0.008 A 
ATOM      5  C   UNL     1      -0.316  -2.817  -0.466  0.00  0.00    +0.004 A 
ATOM      6  C   UNL     1      -0.549  -2.015   0.648  0.00  0.00    +0.042 A 
ATOM      7  C   UNL     1      -0.707  -0.643   0.470  0.00  0.00    -0.026 A 
ATOM      8  C   UNL     1      -0.954   0.246   1.662  0.00  0.00    +0.046 C 
ATOM      9  N   UNL     1      -0.578  -2.795   1.806  0.00  0.00    -0.283 N 
ATOM     10  C   UNL     1      -0.373  -4.100   1.545  0.00  0.00    +0.243 C 
ATOM     11  O   UNL     1      -0.346  -5.005   2.353  0.00  0.00    -0.273 OA
ATOM     12  C   UNL     1      -0.185  -4.220   0.057  0.00  0.00    +0.138 C 
ATOM     13  C   UNL     1       1.184  -4.818  -0.285  0.00  0.00    +0.123 C 
ATOM     14  C   UNL     1       0.927  -5.692  -1.544  0.00  0.00    +0.107 C 
ATOM     15  C   UNL     1      -0.580  -5.556  -1.828  0.00  0.00    +0.071 C 
ATOM     16  N   UNL     1      -1.188  -5.115  -0.543  0.00  0.00    -0.281 NA
ATOM     17  C   UNL     1      -1.290  -6.362   0.254  0.00  0.00    +0.086 C 
ATOM     18  C   UNL     1      -1.663  -7.461  -0.761  0.00  0.00    +0.017 C 
ATOM     19  C   UNL     1      -1.167  -6.945  -2.140  0.00  0.00    +0.021 C 
ATOM     20  C   UNL     1       1.722  -4.993  -2.623  0.00  0.00    +0.232 C 
ATOM     21  O   UNL     1       1.794  -5.346  -3.780  0.00  0.00    -0.274 OA
ATOM     22  N   UNL     1       2.332  -3.922  -2.102  0.00  0.00    -0.210 N 
ATOM     23  C   UNL     1       2.106  -3.728  -0.783  0.00  0.00    +0.233 C 
ATOM     24  O   UNL     1       2.560  -2.831  -0.105  0.00  0.00    -0.274 OA
ATOM     25  H   UNL     1      -0.727  -2.438   2.696  0.00  0.00    +0.155 HD
ENDROOT
BRANCH  22  26
ATOM     26  C   UNL     1       3.149  -3.071  -2.861  0.00  0.00    +0.046 A 
ATOM     27  C   UNL     1       4.513  -3.009  -2.609  0.00  0.00    +0.025 A 
ATOM     28  C   UNL     1       5.315  -2.170  -3.357  0.00  0.00    +0.024 A 
ATOM     29  C   UNL     1       4.760  -1.392  -4.358  0.00  0.00    +0.071 A 
ATOM     30  C   UNL     1       3.401  -1.451  -4.611  0.00  0.00    +0.146 A 
ATOM     31  C   UNL     1       2.595  -2.293  -3.869  0.00  0.00    +0.058 A 
ATOM     32 CL   UNL     1       5.770  -0.338  -5.297  0.00  0.00    -0.081 Cl
BRANCH  30  33
ATOM     33  N   UNL     1       2.810  -0.617  -5.681  0.00  0.00    +0.058 N 
ATOM     34  O   UNL     1       1.623  -0.668  -5.902  0.00  0.00    -0.126 OA
ATOM     35  O   UNL     1       3.515   0.117  -6.334  0.00  0.00    -0.126 OA
ENDBRANCH  30  33
ENDBRANCH  22  26
TORSDOF 2
