REMARK  Name = ZINC37065512
REMARK  6 active torsions:
REMARK  status: ('A' for Active; 'I' for Inactive)
REMARK    1  A    between atoms: C_1  and  C_2
REMARK    2  A    between atoms: C_5  and  O_9
REMARK    3  A    between atoms: C_6  and  C_8
REMARK    4  A    between atoms: O_9  and  C_10
REMARK    5  A    between atoms: C_10  and  C_11
REMARK    6  A    between atoms: C_16  and  N_17
REMARK                            x       y       z     vdW  Elec       q    Type
REMARK                         _______ _______ _______ _____ _____    ______ ____
ROOT
ATOM      1  C   UNL     1       0.079  -6.266  -1.108  0.00  0.00    +0.014 A 
ATOM      2  C   UNL     1       0.086  -6.801   0.166  0.00  0.00    +0.058 A 
ATOM      3  C   UNL     1       0.104  -8.175   0.344  0.00  0.00    +0.163 A 
ATOM      4  C   UNL     1       0.112  -9.018  -0.761  0.00  0.00    +0.164 A 
ATOM      5  C   UNL     1       0.106  -8.482  -2.039  0.00  0.00    +0.072 A 
ATOM      6  C   UNL     1       0.084  -7.105  -2.214  0.00  0.00    +0.035 A 
ATOM      7  O   UNL     1       0.122 -10.371  -0.605  0.00  0.00    -0.485 OA
ATOM      8  C   UNL     1       0.504 -10.868   0.682  0.00  0.00    +0.270 C 
ATOM      9  C   UNL     1      -0.246 -10.062   1.751  0.00  0.00    +0.270 C 
ATOM     10  O   UNL     1       0.116  -8.684   1.608  0.00  0.00    -0.485 OA
ENDROOT
BRANCH   6  11
ATOM     11  N   UNL     1       0.072  -6.563  -3.504  0.00  0.00    -0.358 N 
ATOM     12  H   UNL     1       0.060  -5.601  -3.626  0.00  0.00    +0.142 HD
ATOM     13  H   UNL     1       0.076  -7.150  -4.277  0.00  0.00    +0.142 HD
ENDBRANCH   6  11
BRANCH   1  14
ATOM     14  C   UNL     1       0.058  -4.771  -1.298  0.00  0.00    +0.266 C 
BRANCH  14  15
ATOM     15  O   UNL     1       0.057  -4.129  -0.021  0.00  0.00    -0.487 OA
BRANCH  15  20
ATOM     16  C   UNL     1      -0.018   1.503   0.010  0.00  0.00    +0.044 C 
ATOM     17  C   UNL     1       0.002  -0.004   0.002  0.00  0.00    -0.050 A 
ATOM     18  C   UNL     1       0.006  -0.688  -1.200  0.00  0.00    +0.007 A 
ATOM     19  C   UNL     1       0.024  -2.069  -1.210  0.00  0.00    +0.046 A 
ATOM     20  C   UNL     1       0.039  -2.770  -0.013  0.00  0.00    +0.124 A 
ATOM     21  C   UNL     1       0.036  -2.082   1.191  0.00  0.00    -0.009 A 
ATOM     22  C   UNL     1       0.023  -0.701   1.196  0.00  0.00    +0.010 A 
ATOM     23  C   UNL     1       0.052  -2.841   2.493  0.00  0.00    +0.047 C 
ENDBRANCH  15  20
ENDBRANCH  14  15
ENDBRANCH   1  14
TORSDOF 4
