REMARK  Name = ZINC13213823
REMARK  10 active torsions:
REMARK  status: ('A' for Active; 'I' for Inactive)
REMARK    1  A    between atoms: C_1  and  C_2
REMARK    2  A    between atoms: C_6  and  C_8
REMARK    3  A    between atoms: C_10  and  C_25
REMARK    4  A    between atoms: N_14  and  C_15
REMARK    5  A    between atoms: C_19  and  C_21
REMARK    6  A    between atoms: C_25  and  C_27
REMARK    7  A    between atoms: C_30  and  O_35
REMARK    8  A    between atoms: C_31  and  O_33
REMARK    9  A    between atoms: O_33  and  C_34
REMARK   10  A    between atoms: O_35  and  C_36
REMARK                            x       y       z     vdW  Elec       q    Type
REMARK                         _______ _______ _______ _____ _____    ______ ____
ROOT
ATOM      1  C   UNL     1       0.302  -2.454   1.975  0.00  0.00    +0.150 C 
ATOM      2  C   UNL     1      -0.944  -3.129   2.499  0.00  0.00    +0.077 C 
ATOM      3  C   UNL     1      -0.647  -4.442   2.638  0.00  0.00    +0.250 C 
ATOM      4  C   UNL     1       0.753  -4.670   2.226  0.00  0.00    +0.292 C 
ATOM      5  O   UNL     1       1.317  -5.747   2.236  0.00  0.00    -0.266 OA
ATOM      6  N   UNL     1       1.313  -3.509   1.837  0.00  0.00    -0.253 N 
ATOM      7  O   UNL     1      -1.498  -5.395   3.085  0.00  0.00    -0.282 OA
ENDROOT
BRANCH   1  13
ATOM      8  C   UNL     1      -0.401   1.628  -0.834  0.00  0.00    +0.044 C 
ATOM      9  C   UNL     1      -0.311   0.129  -0.710  0.00  0.00    -0.050 A 
ATOM     10  C   UNL     1      -0.483  -0.668  -1.826  0.00  0.00    +0.003 A 
ATOM     11  C   UNL     1      -0.401  -2.043  -1.712  0.00  0.00    +0.001 A 
ATOM     12  C   UNL     1      -0.147  -2.621  -0.482  0.00  0.00    +0.006 A 
ATOM     13  C   UNL     1       0.026  -1.824   0.634  0.00  0.00    -0.022 A 
ATOM     14  C   UNL     1      -0.052  -0.449   0.519  0.00  0.00    +0.009 A 
ENDBRANCH   1  13
BRANCH   6  15
ATOM     15  C   UNL     1       2.624  -3.338   1.383  0.00  0.00    +0.038 A 
ATOM     16  C   UNL     1       3.074  -2.074   1.017  0.00  0.00    +0.023 A 
ATOM     17  C   UNL     1       4.369  -1.899   0.568  0.00  0.00    +0.003 A 
ATOM     18  C   UNL     1       5.226  -2.977   0.479  0.00  0.00    +0.015 A 
ATOM     19  C   UNL     1       4.785  -4.251   0.845  0.00  0.00    +0.065 A 
ATOM     20  C   UNL     1       3.478  -4.427   1.303  0.00  0.00    +0.038 A 
BRANCH  19  21
ATOM     21  C   UNL     1       5.698  -5.406   0.750  0.00  0.00    +0.387 C 
ATOM     22  O   UNL     1       6.844  -5.249   0.352  0.00  0.00    -0.241 OA
ATOM     23  O   UNL     1       5.310  -6.521   1.071  0.00  0.00    -0.241 OA
ENDBRANCH  19  21
ENDBRANCH   6  15
BRANCH   2  24
ATOM     24  C   UNL     1      -2.226  -2.486   2.799  0.00  0.00    +0.195 C 
ATOM     25  O   UNL     1      -3.213  -2.761   2.142  0.00  0.00    -0.287 OA
BRANCH  24  26
ATOM     26  C   UNL     1      -2.321  -1.504   3.897  0.00  0.00    +0.026 A 
ATOM     27  C   UNL     1      -1.206  -1.240   4.698  0.00  0.00    +0.015 A 
ATOM     28  C   UNL     1      -1.295  -0.324   5.723  0.00  0.00    +0.050 A 
ATOM     29  C   UNL     1      -2.492   0.339   5.963  0.00  0.00    +0.162 A 
ATOM     30  C   UNL     1      -3.608   0.080   5.168  0.00  0.00    +0.162 A 
ATOM     31  C   UNL     1      -3.523  -0.833   4.135  0.00  0.00    +0.061 A 
BRANCH  30  32
ATOM     32  O   UNL     1      -4.779   0.730   5.407  0.00  0.00    -0.491 OA
ATOM     33  C   UNL     1      -5.881   0.415   4.554  0.00  0.00    +0.277 C 
ENDBRANCH  30  32
BRANCH  29  34
ATOM     34  O   UNL     1      -2.575   1.241   6.975  0.00  0.00    -0.491 OA
ATOM     35  C   UNL     1      -1.366   1.549   7.671  0.00  0.00    +0.277 C 
ENDBRANCH  29  34
ENDBRANCH  24  26
ENDBRANCH   2  24
TORSDOF 7
