REMARK  Name = ZINC16400392
REMARK  9 active torsions:
REMARK  status: ('A' for Active; 'I' for Inactive)
REMARK    1  A    between atoms: C_1  and  C_2
REMARK    2  A    between atoms: C_3  and  N_16
REMARK    3  A    between atoms: C_4  and  C_15
REMARK    4  A    between atoms: N_5  and  C_7
REMARK    5  A    between atoms: C_7  and  C_8
REMARK    6  A    between atoms: C_17  and  C_19
REMARK    7  A    between atoms: C_19  and  C_21
REMARK    8  A    between atoms: C_19  and  O_22
REMARK    9  A    between atoms: O_22  and  C_23
REMARK                            x       y       z     vdW  Elec       q    Type
REMARK                         _______ _______ _______ _____ _____    ______ ____
ROOT
ATOM      1  C   UNL     1       4.187   3.932   3.797  0.00  0.00    +0.069 C 
ATOM      2  C   UNL     1       3.151   4.082   2.714  0.00  0.00    +0.081 A 
ATOM      3  C   UNL     1       1.814   4.463   2.903  0.00  0.00    +0.077 A 
ATOM      4  C   UNL     1       1.212   4.486   1.687  0.00  0.00    +0.058 A 
ATOM      5  N   UNL     1       2.139   4.121   0.763  0.00  0.00    -0.262 N 
ATOM      6  N   UNL     1       3.343   3.877   1.436  0.00  0.00    -0.174 NA
ATOM      7  C   UNL     1      -0.225   4.848   1.411  0.00  0.00    +0.067 C 
ENDROOT
BRANCH   3   8
ATOM      8  N   UNL     1       1.207   4.773   4.135  0.00  0.00    -0.280 N 
ATOM      9  C   UNL     1       1.923   5.372   5.107  0.00  0.00    +0.258 C 
ATOM     10  O   UNL     1       3.069   5.708   4.897  0.00  0.00    -0.271 OA
ATOM     11  H   UNL     1       0.274   4.556   4.283  0.00  0.00    +0.155 HD
BRANCH   9  12
ATOM     12  C   UNL     1       1.299   5.624   6.455  0.00  0.00    +0.256 C 
ATOM     13  C   UNL     1       0.987   4.287   7.130  0.00  0.00    +0.062 C 
BRANCH  12  14
ATOM     14  O   UNL     1       2.208   6.367   7.269  0.00  0.00    -0.480 OA
BRANCH  14  15
ATOM     15  C   UNL     1       1.667   7.210   8.188  0.00  0.00    +0.123 A 
ATOM     16  C   UNL     1       0.294   7.226   8.391  0.00  0.00    +0.046 A 
ATOM     17  C   UNL     1      -0.254   8.080   9.329  0.00  0.00    +0.005 A 
ATOM     18  C   UNL     1       0.562   8.925  10.057  0.00  0.00    +0.015 A 
ATOM     19  C   UNL     1       1.931   8.914   9.853  0.00  0.00    +0.021 A 
ATOM     20  C   UNL     1       2.484   8.058   8.920  0.00  0.00    +0.061 A 
ATOM     21 BR   UNL     1       3.044  10.072  10.851  0.00  0.00    -0.050 Br
ENDBRANCH  14  15
ENDBRANCH  12  14
ENDBRANCH   9  12
ENDBRANCH   3   8
BRANCH   5  22
ATOM     22  C   UNL     1       1.919   4.007  -0.681  0.00  0.00    +0.181 C 
BRANCH  22  23
ATOM     23  C   UNL     1       1.477   2.605  -1.013  0.00  0.00    +0.009 A 
ATOM     24  C   UNL     1       0.138   2.333  -1.221  0.00  0.00    +0.008 A 
ATOM     25  C   UNL     1      -0.267   1.048  -1.526  0.00  0.00    +0.000 A 
ATOM     26  C   UNL     1       0.666   0.032  -1.625  0.00  0.00    +0.003 A 
ATOM     27  C   UNL     1       2.005   0.302  -1.418  0.00  0.00    +0.039 A 
ATOM     28  C   UNL     1       2.413   1.589  -1.111  0.00  0.00    +0.128 A 
ATOM     29  F   UNL     1       3.722   1.854  -0.909  0.00  0.00    -0.205 F 
ENDBRANCH  22  23
ENDBRANCH   5  22
TORSDOF 6
