REMARK  Name = ZINC36061536
REMARK  14 active torsions:
REMARK  status: ('A' for Active; 'I' for Inactive)
REMARK    1  A    between atoms: C_1  and  C_2
REMARK    2  A    between atoms: C_2  and  C_4
REMARK    3  A    between atoms: C_2  and  N_10
REMARK    4  A    between atoms: C_11  and  C_13
REMARK    5  A    between atoms: C_16  and  C_18
REMARK    6  A    between atoms: C_18  and  N_19
REMARK    7  A    between atoms: N_19  and  C_20
REMARK    8  A    between atoms: N_19  and  C_31
REMARK    9  A    between atoms: C_20  and  C_21
REMARK   10  A    between atoms: C_24  and  C_27
REMARK   11  A    between atoms: C_27  and  C_28
REMARK   12  A    between atoms: C_27  and  C_29
REMARK   13  A    between atoms: C_27  and  C_30
REMARK   14  A    between atoms: C_31  and  C_32
REMARK                            x       y       z     vdW  Elec       q    Type
REMARK                         _______ _______ _______ _____ _____    ______ ____
ROOT
ATOM      1  N   UNL     1       4.016  -4.179  -4.493  0.00  0.00    +0.391 N 
ATOM      2  H   UNL     1       3.773  -4.594  -3.606  0.00  0.00    -0.080 HD
ENDROOT
BRANCH   1   3
ATOM      3  C   UNL     1       3.733  -2.738  -4.453  0.00  0.00    +0.020 C 
BRANCH   3   7
ATOM      4  C   UNL     1       0.510  -2.205  -2.886  0.00  0.00    +0.163 A 
ATOM      5  C   UNL     1       0.143  -2.239  -4.196  0.00  0.00    +0.230 A 
ATOM      6  O   UNL     1       1.262  -2.435  -4.911  0.00  0.00    -0.449 OA
ATOM      7  C   UNL     1       2.294  -2.519  -4.060  0.00  0.00    +0.179 A 
ATOM      8  N   UNL     1       1.859  -2.378  -2.844  0.00  0.00    -0.210 NA
BRANCH   4  10
ATOM      9  N   UNL     1       0.123  -1.994  -0.481  0.00  0.00    -0.303 N 
ATOM     10  C   UNL     1      -0.384  -2.011  -1.730  0.00  0.00    +0.266 C 
ATOM     11  O   UNL     1      -1.579  -1.867  -1.903  0.00  0.00    -0.268 OA
ATOM     12  H   UNL     1       1.076  -2.109  -0.343  0.00  0.00    +0.150 HD
BRANCH   9  14
ATOM     13  C   UNL     1      -0.988  -0.304   0.894  0.00  0.00    +0.033 C 
ATOM     14  C   UNL     1      -0.766  -1.801   0.667  0.00  0.00    +0.100 C 
BRANCH  14  15
ATOM     15  C   UNL     1      -0.138  -2.408   1.896  0.00  0.00    -0.027 A 
ATOM     16  C   UNL     1       1.219  -2.269   2.118  0.00  0.00    +0.005 A 
ATOM     17  C   UNL     1       1.795  -2.825   3.245  0.00  0.00    +0.000 A 
ATOM     18  C   UNL     1       1.014  -3.520   4.149  0.00  0.00    +0.000 A 
ATOM     19  C   UNL     1      -0.344  -3.657   3.927  0.00  0.00    +0.000 A 
ATOM     20  C   UNL     1      -0.920  -3.097   2.803  0.00  0.00    +0.005 A 
ENDBRANCH  14  15
ENDBRANCH   9  14
ENDBRANCH   4  10
ENDBRANCH   3   7
ENDBRANCH   1   3
BRANCH   1  21
ATOM     21  C   UNL     1       5.445  -4.390  -4.758  0.00  0.00    -0.042 C 
BRANCH  21  22
ATOM     22  C   UNL     1       6.253  -3.870  -3.597  0.00  0.00    -0.064 A 
ATOM     23  C   UNL     1       6.782  -2.594  -3.640  0.00  0.00    +0.002 A 
ATOM     24  C   UNL     1       7.524  -2.117  -2.575  0.00  0.00    +0.004 A 
ATOM     25  C   UNL     1       7.735  -2.916  -1.467  0.00  0.00    -0.042 A 
ATOM     26  C   UNL     1       7.205  -4.192  -1.424  0.00  0.00    +0.004 A 
ATOM     27  C   UNL     1       6.461  -4.667  -2.487  0.00  0.00    +0.002 A 
BRANCH  25  28
ATOM     28  C   UNL     1       8.544  -2.397  -0.306  0.00  0.00    -0.013 C 
ATOM     29  C   UNL     1       7.934  -1.086   0.194  0.00  0.00    +0.015 C 
ATOM     30  C   UNL     1       8.536  -3.428   0.824  0.00  0.00    +0.015 C 
ATOM     31  C   UNL     1       9.985  -2.148  -0.759  0.00  0.00    +0.015 C 
ENDBRANCH  25  28
ENDBRANCH  21  22
ENDBRANCH   1  21
BRANCH   1  32
ATOM     32  C   UNL     1       3.223  -4.804  -5.560  0.00  0.00    -0.042 C 
BRANCH  32  33
ATOM     33  C   UNL     1       3.417  -6.298  -5.521  0.00  0.00    -0.060 A 
ATOM     34  C   UNL     1       4.359  -6.892  -6.340  0.00  0.00    +0.005 A 
ATOM     35  C   UNL     1       4.541  -8.262  -6.307  0.00  0.00    +0.050 A 
ATOM     36  C   UNL     1       3.779  -9.043  -5.454  0.00  0.00    +0.166 A 
ATOM     37  C   UNL     1       2.830  -8.444  -4.629  0.00  0.00    +0.166 A 
ATOM     38  C   UNL     1       2.656  -7.070  -4.663  0.00  0.00    +0.051 A 
ATOM     39  O   UNL     1       2.217  -9.415  -3.891  0.00  0.00    -0.453 OA
ATOM     40  C   UNL     1       2.513 -10.653  -4.565  0.00  0.00    +0.466 C 
ATOM     41  O   UNL     1       3.761 -10.390  -5.232  0.00  0.00    -0.453 OA
ENDBRANCH  32  33
ENDBRANCH   1  32
TORSDOF 10
