REMARK  Name = ZINC33406472
REMARK  3 active torsions:
REMARK  status: ('A' for Active; 'I' for Inactive)
REMARK    1  A    between atoms: C_19  and  N_23
REMARK    2  A    between atoms: N_23  and  C_24
REMARK    3  A    between atoms: C_24  and  N_26
REMARK                            x       y       z     vdW  Elec       q    Type
REMARK                         _______ _______ _______ _____ _____    ______ ____
ROOT
ATOM      1  C   UNL     1       1.084   2.081  -0.123  0.00  0.00    +0.001 A 
ATOM      2  C   UNL     1       2.281   1.421   0.108  0.00  0.00    +0.001 A 
ATOM      3  C   UNL     1       2.337   0.044   0.086  0.00  0.00    +0.011 A 
ATOM      4  C   UNL     1       1.180  -0.694  -0.171  0.00  0.00    +0.010 A 
ATOM      5  C   UNL     1      -0.034  -0.025  -0.405  0.00  0.00    -0.008 A 
ATOM      6  C   UNL     1      -0.069   1.370  -0.378  0.00  0.00    +0.009 A 
ATOM      7  C   UNL     1      -1.261  -0.794  -0.678  0.00  0.00    -0.008 A 
ATOM      8  C   UNL     1      -2.469  -0.135  -0.910  0.00  0.00    +0.009 A 
ATOM      9  C   UNL     1      -3.611  -0.863  -1.163  0.00  0.00    +0.001 A 
ATOM     10  C   UNL     1      -3.571  -2.249  -1.189  0.00  0.00    +0.001 A 
ATOM     11  C   UNL     1      -2.388  -2.919  -0.963  0.00  0.00    +0.011 A 
ATOM     12  C   UNL     1      -1.220  -2.199  -0.704  0.00  0.00    +0.010 A 
ATOM     13  C   UNL     1       0.051  -2.908  -0.460  0.00  0.00    +0.098 A 
ATOM     14  C   UNL     1       1.231  -2.168  -0.198  0.00  0.00    +0.098 A 
ATOM     15  N   UNL     1       2.382  -2.784   0.024  0.00  0.00    -0.243 NA
ATOM     16  C   UNL     1       2.437  -4.115   0.002  0.00  0.00    +0.090 A 
ATOM     17  C   UNL     1       3.640  -4.809   0.234  0.00  0.00    +0.032 A 
ATOM     18  C   UNL     1       3.652  -6.166   0.204  0.00  0.00    +0.025 A 
ATOM     19  C   UNL     1       2.491  -6.905  -0.054  0.00  0.00    +0.035 A 
ATOM     20  C   UNL     1       1.285  -6.284  -0.288  0.00  0.00    +0.053 A 
ATOM     21  C   UNL     1       1.216  -4.880  -0.268  0.00  0.00    +0.092 A 
ATOM     22  N   UNL     1       0.072  -4.232  -0.488  0.00  0.00    -0.243 NA
ENDROOT
BRANCH  19  23
ATOM     23  N   UNL     1       2.557  -8.300  -0.074  0.00  0.00    -0.297 N 
ATOM     24  H   UNL     1       3.150  -8.833   0.683  0.00  0.00    +0.154 HD
BRANCH  23  25
ATOM     25  C   UNL     1       1.894  -8.992  -1.021  0.00  0.00    +0.137 C 
ATOM     26  S   UNL     1       1.096  -8.162  -2.288  0.00  0.00    -0.018 S 
BRANCH  25  27
ATOM     27  N   UNL     1       1.859 -10.339  -0.971  0.00  0.00    -0.309 N 
ATOM     28  C   UNL     1       2.438 -11.067   0.169  0.00  0.00    +0.125 C 
ATOM     29  C   UNL     1       1.384 -12.052   0.697  0.00  0.00    +0.125 C 
ATOM     30  N   UNL     1       0.916 -12.900  -0.408  0.00  0.00    -0.314 N 
ATOM     31  C   UNL     1       0.244 -12.103  -1.443  0.00  0.00    +0.125 C 
ATOM     32  C   UNL     1       1.246 -11.119  -2.056  0.00  0.00    +0.125 C 
ATOM     33  C   UNL     1       0.086 -13.912   0.058  0.00  0.00    +0.099 A 
ATOM     34  C   UNL     1       0.543 -14.779   1.046  0.00  0.00    +0.042 A 
ATOM     35  C   UNL     1      -0.294 -15.782   1.501  0.00  0.00    +0.005 A 
ATOM     36  C   UNL     1      -1.565 -15.886   0.950  0.00  0.00    +0.018 A 
ATOM     37  C   UNL     1      -1.953 -14.992  -0.027  0.00  0.00    +0.084 A 
ATOM     38  N   UNL     1      -1.135 -14.040  -0.438  0.00  0.00    -0.350 N 
ATOM     39  H   UNL     1      -1.490 -13.344  -1.212  0.00  0.00    +0.166 HD
ENDBRANCH  25  27
ENDBRANCH  23  25
ENDBRANCH  19  23
TORSDOF 3
