REMARK  Name = ZINC36660344
REMARK  11 active torsions:
REMARK  status: ('A' for Active; 'I' for Inactive)
REMARK    1  A    between atoms: C_1  and  C_2
REMARK    2  A    between atoms: C_2  and  O_3
REMARK    3  A    between atoms: O_3  and  C_4
REMARK    4  A    between atoms: N_13  and  C_14
REMARK    5  A    between atoms: C_14  and  C_15
REMARK    6  A    between atoms: C_15  and  N_16
REMARK    7  A    between atoms: N_16  and  C_17
REMARK    8  A    between atoms: N_16  and  C_18
REMARK    9  A    between atoms: C_19  and  C_21
REMARK   10  A    between atoms: N_26  and  S_27
REMARK   11  A    between atoms: S_27  and  C_30
REMARK                            x       y       z     vdW  Elec       q    Type
REMARK                         _______ _______ _______ _____ _____    ______ ____
ROOT
ATOM      1  C   UNL     1      -0.520  -2.912  -0.448  0.00  0.00    +0.122 A 
ATOM      2  C   UNL     1       0.429  -3.913  -0.256  0.00  0.00    +0.048 A 
ATOM      3  C   UNL     1       0.066  -5.229  -0.137  0.00  0.00    +0.032 A 
ATOM      4  C   UNL     1      -1.293  -5.614  -0.207  0.00  0.00    +0.081 A 
ATOM      5  C   UNL     1      -2.230  -4.574  -0.402  0.00  0.00    +0.044 A 
ATOM      6  C   UNL     1      -1.862  -3.256  -0.514  0.00  0.00    +0.063 A 
ATOM      7  S   UNL     1      -3.773  -5.454  -0.430  0.00  0.00    -0.052 S 
ATOM      8  C   UNL     1      -3.101  -7.092  -0.189  0.00  0.00    +0.168 A 
ATOM      9  N   UNL     1      -1.813  -6.858  -0.109  0.00  0.00    -0.224 NA
ATOM     10  N   UNL     1      -3.771  -8.303  -0.108  0.00  0.00    -0.251 N 
ATOM     11  C   UNL     1      -5.114  -8.338  -0.215  0.00  0.00    +0.240 C 
ATOM     12  O   UNL     1      -5.729  -7.326  -0.475  0.00  0.00    -0.273 OA
ENDROOT
BRANCH  11  13
ATOM     13  C   UNL     1      -5.853  -9.636  -0.011  0.00  0.00    +0.166 C 
ATOM     14  C   UNL     1      -6.000 -10.373  -1.359  0.00  0.00    +0.031 C 
ATOM     15  C   UNL     1      -7.425 -10.980  -1.269  0.00  0.00    +0.019 C 
ATOM     16  C   UNL     1      -8.184  -9.877  -0.491  0.00  0.00    +0.110 C 
ATOM     17  N   UNL     1      -7.207  -9.367   0.493  0.00  0.00    -0.165 NA
BRANCH  17  18
ATOM     18  S   UNL     1      -7.573  -8.618   1.924  0.00  0.00    +0.062 S 
ATOM     19  O   UNL     1      -8.815  -9.156   2.358  0.00  0.00    -0.153 OA
ATOM     20  O   UNL     1      -6.399  -8.673   2.723  0.00  0.00    -0.153 OA
BRANCH  18  21
ATOM     21  C   UNL     1      -7.859  -6.918   1.564  0.00  0.00    +0.106 A 
ATOM     22  C   UNL     1      -6.833  -6.001   1.700  0.00  0.00    +0.031 A 
ATOM     23  C   UNL     1      -7.056  -4.667   1.417  0.00  0.00    +0.040 A 
ATOM     24  C   UNL     1      -8.308  -4.248   0.998  0.00  0.00    +0.124 A 
ATOM     25  C   UNL     1      -9.334  -5.167   0.862  0.00  0.00    +0.040 A 
ATOM     26  C   UNL     1      -9.108  -6.502   1.140  0.00  0.00    +0.031 A 
ATOM     27  F   UNL     1      -8.527  -2.944   0.722  0.00  0.00    -0.205 F 
ENDBRANCH  18  21
ENDBRANCH  17  18
ENDBRANCH  11  13
BRANCH   1  28
ATOM     28  O   UNL     1      -0.135  -1.613  -0.563  0.00  0.00    -0.492 OA
BRANCH  28  30
ATOM     29  C   UNL     1       1.502   0.163  -0.634  0.00  0.00    +0.048 C 
ATOM     30  C   UNL     1       1.265  -1.342  -0.484  0.00  0.00    +0.225 C 
ENDBRANCH  28  30
ENDBRANCH   1  28
BRANCH  10  31
ATOM     31  C   UNL     1      -3.020  -9.544   0.095  0.00  0.00    +0.097 C 
BRANCH  31  32
ATOM     32  C   UNL     1      -2.829  -9.786   1.594  0.00  0.00    -0.060 C 
BRANCH  32  33
ATOM     33  N   UNL     1      -2.076 -11.030   1.797  0.00  0.00    +0.377 N 
ATOM     34  C   UNL     1      -0.720 -10.876   1.253  0.00  0.00    -0.097 C 
ATOM     35  C   UNL     1      -1.996 -11.325   3.234  0.00  0.00    -0.097 C 
ATOM     36  H   UNL     1      -2.544 -11.788   1.324  0.00  0.00    -0.083 HD
ENDBRANCH  32  33
ENDBRANCH  31  32
ENDBRANCH  10  31
TORSDOF 8
