REMARK  Name = ZINC38779214
REMARK  8 active torsions:
REMARK  status: ('A' for Active; 'I' for Inactive)
REMARK    1  A    between atoms: C_1  and  C_2
REMARK    2  A    between atoms: C_5  and  N_8
REMARK    3  A    between atoms: C_9  and  C_34
REMARK    4  A    between atoms: C_11  and  N_15
REMARK    5  A    between atoms: C_12  and  C_14
REMARK    6  A    between atoms: C_16  and  C_18
REMARK    7  A    between atoms: C_18  and  C_19
REMARK    8  A    between atoms: C_19  and  C_20
REMARK                            x       y       z     vdW  Elec       q    Type
REMARK                         _______ _______ _______ _____ _____    ______ ____
ROOT
ATOM      1  N   UNL     1       0.104  -7.666   1.303  0.00  0.00    -0.286 N 
ATOM      2  C   UNL     1       0.007  -8.849   0.663  0.00  0.00    +0.217 C 
ATOM      3  O   UNL     1      -0.004  -8.883  -0.549  0.00  0.00    -0.275 OA
ATOM      4  H   UNL     1       0.185  -7.643   2.269  0.00  0.00    +0.155 HD
ENDROOT
BRANCH   1   7
ATOM      5  N   UNL     1       0.597  -4.755  -0.971  0.00  0.00    -0.245 N 
ATOM      6  C   UNL     1       1.036  -6.094  -0.544  0.00  0.00    +0.137 C 
ATOM      7  C   UNL     1       0.088  -6.471   0.572  0.00  0.00    +0.050 C 
ATOM      8  C   UNL     1      -0.757  -5.469   0.733  0.00  0.00    +0.038 C 
ATOM      9  N   UNL     1      -0.493  -4.429  -0.152  0.00  0.00    -0.266 N 
ATOM     10  C   UNL     1      -1.867  -5.451   1.752  0.00  0.00    +0.063 C 
ATOM     11  C   UNL     1       2.476  -6.044  -0.030  0.00  0.00    +0.036 C 
ATOM     12  H   UNL     1      -0.993  -3.599  -0.198  0.00  0.00    +0.170 HD
BRANCH   5  17
ATOM     13  C   UNL     1       2.865  -1.560  -5.070  0.00  0.00    +0.044 C 
ATOM     14  C   UNL     1       2.262  -2.409  -3.981  0.00  0.00    -0.050 A 
ATOM     15  C   UNL     1       1.180  -1.940  -3.260  0.00  0.00    +0.005 A 
ATOM     16  C   UNL     1       0.625  -2.715  -2.261  0.00  0.00    +0.025 A 
ATOM     17  C   UNL     1       1.155  -3.968  -1.981  0.00  0.00    +0.048 A 
ATOM     18  C   UNL     1       2.242  -4.437  -2.708  0.00  0.00    +0.025 A 
ATOM     19  C   UNL     1       2.789  -3.659  -3.709  0.00  0.00    +0.005 A 
ENDBRANCH   5  17
ENDBRANCH   1   7
BRANCH   2  20
ATOM     20  C   UNL     1      -0.089 -10.128   1.454  0.00  0.00    +0.103 C 
BRANCH  20  21
ATOM     21  C   UNL     1      -0.189 -11.315   0.495  0.00  0.00    +0.083 C 
BRANCH  21  22
ATOM     22  C   UNL     1      -0.285 -12.594   1.286  0.00  0.00    +0.124 C 
ATOM     23  N   UNL     1      -0.277 -12.518   2.595  0.00  0.00    -0.161 NA
ATOM     24  C   UNL     1      -0.350 -13.595   3.383  0.00  0.00    +0.271 C 
ATOM     25  O   UNL     1      -0.347 -13.487   4.597  0.00  0.00    -0.268 OA
ATOM     26  C   UNL     1      -0.438 -14.938   2.730  0.00  0.00    +0.071 C 
ATOM     27  C   UNL     1      -0.398 -16.153   3.305  0.00  0.00    -0.042 C 
ATOM     28  C   UNL     1      -0.005 -16.839   4.611  0.00  0.00    +0.033 C 
ATOM     29  C   UNL     1       0.609 -18.196   4.206  0.00  0.00    +0.006 C 
ATOM     30  C   UNL     1       0.448 -18.293   2.667  0.00  0.00    +0.019 C 
ATOM     31  C   UNL     1      -0.731 -17.339   2.398  0.00  0.00    +0.079 C 
ATOM     32  S   UNL     1      -0.609 -16.579   0.739  0.00  0.00    -0.097 S 
ATOM     33  C   UNL     1      -0.457 -14.886   1.251  0.00  0.00    +0.111 C 
ATOM     34  N   UNL     1      -0.379 -13.736   0.624  0.00  0.00    -0.227 NA
ENDBRANCH  21  22
ENDBRANCH  20  21
ENDBRANCH   2  20
TORSDOF 5
