REMARK  Name = ZINC64480164
REMARK  11 active torsions:
REMARK  status: ('A' for Active; 'I' for Inactive)
REMARK    1  A    between atoms: C_1  and  C_2
REMARK    2  A    between atoms: C_7  and  O_33
REMARK    3  A    between atoms: C_13  and  C_15
REMARK    4  A    between atoms: C_15  and  C_16
REMARK    5  A    between atoms: C_16  and  C_17
REMARK    6  A    between atoms: N_19  and  C_20
REMARK    7  A    between atoms: C_20  and  C_21
REMARK    8  A    between atoms: C_21  and  C_22
REMARK    9  A    between atoms: C_25  and  O_31
REMARK   10  A    between atoms: O_31  and  C_32
REMARK   11  A    between atoms: O_33  and  C_34
REMARK                            x       y       z     vdW  Elec       q    Type
REMARK                         _______ _______ _______ _____ _____    ______ ____
ROOT
ATOM      1  C   UNL     1       0.676   0.615   4.901  0.00  0.00    +0.213 C 
ATOM      2  O   UNL     1      -0.225   1.423   4.809  0.00  0.00    -0.276 OA
ATOM      3  N   UNL     1       1.274   0.405   6.090  0.00  0.00    -0.315 N 
ATOM      4  H   UNL     1       1.994  -0.240   6.164  0.00  0.00    +0.149 HD
ENDROOT
BRANCH   1   5
ATOM      5  C   UNL     1       1.126  -0.153   3.685  0.00  0.00    +0.096 C 
BRANCH   5   6
ATOM      6  C   UNL     1       0.290   0.271   2.476  0.00  0.00    +0.024 C 
BRANCH   6  18
ATOM      7  C   UNL     1      -0.019   1.526   0.010  0.00  0.00    +0.013 C 
ATOM      8  C   UNL     1       0.002  -0.004   0.002  0.00  0.00    +0.033 C 
ATOM      9  C   UNL     1      -1.413  -0.524   0.009  0.00  0.00    -0.001 A 
ATOM     10  C   UNL     1      -2.362   0.134  -0.759  0.00  0.00    +0.011 A 
ATOM     11  C   UNL     1      -3.668  -0.310  -0.789  0.00  0.00    +0.046 A 
ATOM     12  C   UNL     1      -4.039  -1.424  -0.048  0.00  0.00    +0.124 A 
ATOM     13  C   UNL     1      -3.095  -2.082   0.722  0.00  0.00    +0.092 A 
ATOM     14  C   UNL     1      -1.781  -1.631   0.754  0.00  0.00    +0.139 A 
ATOM     15  O   UNL     1      -0.889  -2.295   1.540  0.00  0.00    -0.425 OA
ATOM     16  C   UNL     1       0.414  -1.979   1.408  0.00  0.00    +0.316 C 
ATOM     17  O   UNL     1       1.276  -2.826   1.423  0.00  0.00    -0.250 OA
ATOM     18  C   UNL     1       0.747  -0.510   1.241  0.00  0.00    +0.106 C 
BRANCH  12  19
ATOM     19  O   UNL     1      -5.323  -1.866  -0.078  0.00  0.00    -0.495 OA
ATOM     20  C   UNL     1      -6.241  -1.136  -0.895  0.00  0.00    +0.277 C 
ENDBRANCH  12  19
ENDBRANCH   6  18
ENDBRANCH   5   6
ENDBRANCH   1   5
BRANCH   3  21
ATOM     21  C   UNL     1       0.837   1.152   7.272  0.00  0.00    +0.108 C 
BRANCH  21  22
ATOM     22  C   UNL     1       1.673   0.728   8.482  0.00  0.00    +0.052 C 
BRANCH  22  23
ATOM     23  C   UNL     1       1.223   1.497   9.697  0.00  0.00    -0.040 C 
ATOM     24  C   UNL     1       0.333   1.092  10.632  0.00  0.00    +0.002 A 
ATOM     25  C   UNL     1      -0.453  -0.136  10.791  0.00  0.00    +0.055 A 
ATOM     26  C   UNL     1      -1.284  -0.263  11.854  0.00  0.00    +0.121 A 
ATOM     27  C   UNL     1      -1.424   0.747  12.822  0.00  0.00    +0.047 A 
ATOM     28  C   UNL     1      -0.744   1.912  12.761  0.00  0.00    +0.029 A 
ATOM     29  C   UNL     1       0.184   2.156  11.652  0.00  0.00    +0.043 A 
ATOM     30  N   UNL     1       0.951   3.176  11.360  0.00  0.00    -0.380 N 
ATOM     31  C   UNL     1       1.680   2.874  10.123  0.00  0.00    +0.144 C 
ATOM     32  H   UNL     1       1.027   3.994  11.877  0.00  0.00    +0.160 HD
BRANCH  26  33
ATOM     33  O   UNL     1      -2.006  -1.406  11.989  0.00  0.00    -0.495 OA
ATOM     34  C   UNL     1      -2.869  -1.498  13.124  0.00  0.00    +0.277 C 
ENDBRANCH  26  33
ENDBRANCH  22  23
ENDBRANCH  21  22
ENDBRANCH   3  21
TORSDOF 8
