REMARK  Name = ZINC35214006
REMARK  11 active torsions:
REMARK  status: ('A' for Active; 'I' for Inactive)
REMARK    1  A    between atoms: C_1  and  C_2
REMARK    2  A    between atoms: C_2  and  C_3
REMARK    3  A    between atoms: C_2  and  C_4
REMARK    4  A    between atoms: C_4  and  N_5
REMARK    5  A    between atoms: N_5  and  C_6
REMARK    6  A    between atoms: C_6  and  C_7
REMARK    7  A    between atoms: N_9  and  C_10
REMARK    8  A    between atoms: N_9  and  C_20
REMARK    9  A    between atoms: C_10  and  C_11
REMARK   10  A    between atoms: C_20  and  C_21
REMARK   11  A    between atoms: N_28  and  C_29
REMARK                            x       y       z     vdW  Elec       q    Type
REMARK                         _______ _______ _______ _____ _____    ______ ____
ROOT
ATOM      1  C   UNL     1      -3.499  -2.108  -2.049  0.00  0.00    +0.234 C 
ATOM      2  O   UNL     1      -4.169  -1.994  -1.044  0.00  0.00    -0.274 OA
ATOM      3  N   UNL     1      -3.783  -3.078  -2.941  0.00  0.00    -0.291 N 
ENDROOT
BRANCH   1   4
ATOM      4  C   UNL     1      -2.349  -1.167  -2.299  0.00  0.00    +0.205 C 
BRANCH   4   5
ATOM      5  N   UNL     1      -2.248  -0.213  -1.192  0.00  0.00    -0.276 N 
ATOM      6  C   UNL     1      -2.921   0.954  -1.245  0.00  0.00    +0.307 C 
ATOM      7  O   UNL     1      -3.610   1.215  -2.212  0.00  0.00    -0.252 OA
ATOM      8  N   UNL     1      -2.828   1.831  -0.226  0.00  0.00    -0.269 N 
ATOM      9  H   UNL     1      -2.342   1.591   0.578  0.00  0.00    +0.156 HD
BRANCH   8  10
ATOM     10  C   UNL     1      -3.434   3.089  -0.329  0.00  0.00    +0.035 A 
ATOM     11  C   UNL     1      -3.953   3.706   0.802  0.00  0.00    +0.025 A 
ATOM     12  C   UNL     1      -4.550   4.947   0.698  0.00  0.00    +0.022 A 
ATOM     13  C   UNL     1      -4.632   5.575  -0.532  0.00  0.00    +0.041 A 
ATOM     14  C   UNL     1      -4.117   4.963  -1.661  0.00  0.00    +0.022 A 
ATOM     15  C   UNL     1      -3.513   3.725  -1.561  0.00  0.00    +0.025 A 
ATOM     16 CL   UNL     1      -5.383   7.135  -0.659  0.00  0.00    -0.084 Cl
ENDBRANCH   8  10
BRANCH   5  17
ATOM     17  C   UNL     1      -1.417  -0.528  -0.027  0.00  0.00    +0.113 C 
BRANCH  17  19
ATOM     18  C   UNL     1      -0.013   1.513  -0.346  0.00  0.00    +0.009 C 
ATOM     19  C   UNL     1       0.004  -0.014  -0.262  0.00  0.00    +0.000 C 
ATOM     20  C   UNL     1       0.902  -0.451   0.898  0.00  0.00    +0.009 C 
ENDBRANCH  17  19
ENDBRANCH   5  17
ENDBRANCH   4   5
ENDBRANCH   1   4
BRANCH   3  21
ATOM     21  C   UNL     1      -4.901  -3.993  -2.697  0.00  0.00    +0.143 C 
BRANCH  21  22
ATOM     22  C   UNL     1      -6.159  -3.420  -3.298  0.00  0.00    -0.026 A 
ATOM     23  C   UNL     1      -6.968  -2.590  -2.544  0.00  0.00    +0.009 A 
ATOM     24  C   UNL     1      -8.122  -2.062  -3.091  0.00  0.00    +0.050 A 
ATOM     25  C   UNL     1      -8.472  -2.364  -4.397  0.00  0.00    +0.166 A 
ATOM     26  C   UNL     1      -7.657  -3.200  -5.157  0.00  0.00    +0.167 A 
ATOM     27  C   UNL     1      -6.499  -3.721  -4.604  0.00  0.00    +0.054 A 
ATOM     28  O   UNL     1      -8.212  -3.341  -6.396  0.00  0.00    -0.453 OA
ATOM     29  C   UNL     1      -9.580  -2.916  -6.256  0.00  0.00    +0.466 C 
ATOM     30  O   UNL     1      -9.537  -1.982  -5.161  0.00  0.00    -0.453 OA
ENDBRANCH  21  22
ENDBRANCH   3  21
BRANCH   3  31
ATOM     31  C   UNL     1      -2.974  -3.217  -4.154  0.00  0.00    +0.150 C 
BRANCH  31  32
ATOM     32  C   UNL     1      -1.823  -4.151  -3.886  0.00  0.00    +0.007 A 
ATOM     33  C   UNL     1      -1.760  -5.496  -4.040  0.00  0.00    +0.013 A 
ATOM     34  C   UNL     1      -0.585  -6.153  -3.729  0.00  0.00    +0.008 A 
ATOM     35  C   UNL     1       0.471  -5.433  -3.278  0.00  0.00    +0.045 A 
ATOM     36  S   UNL     1      -0.183  -3.772  -3.289  0.00  0.00    -0.100 S 
ENDBRANCH  31  32
ENDBRANCH   3  31
TORSDOF 9
