REMARK  Name = ZINC36346501
REMARK  20 active torsions:
REMARK  status: ('A' for Active; 'I' for Inactive)
REMARK    1  A    between atoms: C_1  and  C_2
REMARK    2  A    between atoms: C_2  and  C_3
REMARK    3  A    between atoms: C_3  and  C_4
REMARK    4  A    between atoms: C_4  and  C_5
REMARK    5  A    between atoms: C_5  and  C_7
REMARK    6  A    between atoms: C_5  and  O_36
REMARK    7  A    between atoms: C_7  and  N_8
REMARK    8  A    between atoms: N_8  and  C_9
REMARK    9  A    between atoms: N_8  and  C_12
REMARK   10  A    between atoms: C_9  and  C_10
REMARK   11  A    between atoms: C_10  and  C_11
REMARK   12  A    between atoms: C_12  and  C_13
REMARK   13  A    between atoms: C_14  and  C_33
REMARK   14  A    between atoms: N_16  and  C_25
REMARK   15  A    between atoms: C_17  and  O_18
REMARK   16  A    between atoms: O_18  and  C_19
REMARK   17  A    between atoms: C_28  and  O_31
REMARK   18  A    between atoms: O_31  and  C_32
REMARK   19  A    between atoms: C_33  and  C_34
REMARK   20  A    between atoms: C_33  and  C_35
REMARK                            x       y       z     vdW  Elec       q    Type
REMARK                         _______ _______ _______ _____ _____    ______ ____
ROOT
ATOM      1  C   UNL     1       2.570  -6.435   5.917  0.00  0.00    +0.021 A 
ATOM      2  C   UNL     1       3.927  -6.323   6.236  0.00  0.00    +0.071 A 
ATOM      3  N   UNL     1       4.038  -6.186   7.532  0.00  0.00    -0.168 NA
ATOM      4  N   UNL     1       2.753  -6.204   8.090  0.00  0.00    -0.200 N 
ATOM      5  C   UNL     1       1.861  -6.354   7.075  0.00  0.00    +0.225 A 
ENDROOT
BRANCH   4   6
ATOM      6  C   UNL     1       2.442  -6.084   9.453  0.00  0.00    +0.069 A 
ATOM      7  C   UNL     1       1.346  -5.331   9.852  0.00  0.00    +0.031 A 
ATOM      8  C   UNL     1       1.040  -5.213  11.193  0.00  0.00    +0.048 A 
ATOM      9  C   UNL     1       1.828  -5.848  12.142  0.00  0.00    +0.120 A 
ATOM     10  C   UNL     1       2.923  -6.602  11.745  0.00  0.00    +0.048 A 
ATOM     11  C   UNL     1       3.226  -6.724  10.403  0.00  0.00    +0.031 A 
BRANCH   9  12
ATOM     12  O   UNL     1       1.527  -5.732  13.463  0.00  0.00    -0.495 OA
ATOM     13  C   UNL     1       2.380  -6.412  14.385  0.00  0.00    +0.277 C 
ENDBRANCH   9  12
ENDBRANCH   4   6
BRANCH   2  14
ATOM     14  C   UNL     1       5.068  -6.357   5.252  0.00  0.00    +0.034 C 
ATOM     15  C   UNL     1       5.851  -5.045   5.335  0.00  0.00    +0.014 C 
ATOM     16  C   UNL     1       5.996  -7.526   5.587  0.00  0.00    +0.014 C 
ENDBRANCH   2  14
BRANCH   1  17
ATOM     17  C   UNL     1       1.994  -6.608   4.535  0.00  0.00    -0.036 C 
BRANCH  17  18
ATOM     18  N   UNL     1       1.733  -5.288   3.945  0.00  0.00    +0.384 N 
ATOM     19  H   UNL     1       1.141  -4.755   4.563  0.00  0.00    -0.081 HD
BRANCH  18  20
ATOM     20  C   UNL     1       1.063  -5.456   2.648  0.00  0.00    -0.047 C 
BRANCH  20  21
ATOM     21  C   UNL     1      -0.322  -6.069   2.866  0.00  0.00    +0.098 C 
BRANCH  21  22
ATOM     22  O   UNL     1      -1.104  -5.199   3.688  0.00  0.00    -0.394 OA
ATOM     23  H   UNL     1      -1.300  -4.345   3.280  0.00  0.00    +0.210 HD
ENDBRANCH  21  22
BRANCH  21  24
ATOM     24  C   UNL     1      -1.016  -6.255   1.515  0.00  0.00    +0.029 C 
BRANCH  24  25
ATOM     25  C   UNL     1      -2.347  -6.980   1.721  0.00  0.00    +0.002 C 
BRANCH  25  27
ATOM     26  C   UNL     1      -4.372  -7.892   0.575  0.00  0.00    +0.004 C 
ATOM     27  C   UNL     1      -3.041  -7.166   0.370  0.00  0.00    -0.003 C 
ENDBRANCH  25  27
ENDBRANCH  24  25
ENDBRANCH  21  24
ENDBRANCH  20  21
ENDBRANCH  18  20
BRANCH  18  28
ATOM     28  C   UNL     1       3.005  -4.579   3.750  0.00  0.00    -0.079 C 
BRANCH  28  29
ATOM     29  C   UNL     1       2.726  -3.160   3.251  0.00  0.00    -0.022 C 
ATOM     30  C   UNL     1       4.051  -2.430   3.020  0.00  0.00    +0.002 C 
ENDBRANCH  28  29
ENDBRANCH  18  28
ENDBRANCH  17  18
ENDBRANCH   1  17
BRANCH   5  31
ATOM     31  O   UNL     1       0.510  -6.414   7.195  0.00  0.00    -0.438 OA
BRANCH  31  32
ATOM     32  C   UNL     1      -0.054  -7.624   7.447  0.00  0.00    +0.130 A 
ATOM     33  C   UNL     1       0.749  -8.729   7.690  0.00  0.00    +0.046 A 
ATOM     34  C   UNL     1       0.173  -9.958   7.946  0.00  0.00    +0.004 A 
ATOM     35  C   UNL     1      -1.204 -10.087   7.960  0.00  0.00    +0.000 A 
ATOM     36  C   UNL     1      -2.007  -8.988   7.718  0.00  0.00    +0.004 A 
ATOM     37  C   UNL     1      -1.435  -7.756   7.467  0.00  0.00    +0.046 A 
ENDBRANCH  31  32
ENDBRANCH   5  31
TORSDOF 15
