REMARK  Name = ZINC39896599
REMARK  10 active torsions:
REMARK  status: ('A' for Active; 'I' for Inactive)
REMARK    1  A    between atoms: C_1  and  C_2
REMARK    2  A    between atoms: C_2  and  C_3
REMARK    3  A    between atoms: C_6  and  N_9
REMARK    4  A    between atoms: C_12  and  C_31
REMARK    5  A    between atoms: C_16  and  C_17
REMARK    6  A    between atoms: C_16  and  C_19
REMARK    7  A    between atoms: N_21  and  C_22
REMARK    8  A    between atoms: C_22  and  C_24
REMARK    9  A    between atoms: C_22  and  C_25
REMARK   10  A    between atoms: C_31  and  C_32
REMARK                            x       y       z     vdW  Elec       q    Type
REMARK                         _______ _______ _______ _____ _____    ______ ____
ROOT
ATOM      1  N   UNL     1       2.681  -2.163   4.517  0.00  0.00    -0.232 N 
ATOM      2  C   UNL     1       3.990  -2.331   4.434  0.00  0.00    +0.238 C 
ATOM      3  O   UNL     1       4.576  -2.316   3.373  0.00  0.00    -0.274 OA
ATOM      4  C   UNL     1       4.713  -2.543   5.755  0.00  0.00    +0.143 C 
ATOM      5  S   UNL     1       3.292  -2.455   6.922  0.00  0.00    -0.095 S 
ATOM      6  C   UNL     1       2.007  -2.172   5.714  0.00  0.00    +0.098 C 
ATOM      7  C   UNL     1       0.639  -2.002   5.934  0.00  0.00    +0.141 C 
ENDROOT
BRANCH   1  11
ATOM      8  C   UNL     1       0.515  -1.564   1.006  0.00  0.00    -0.048 A 
ATOM      9  C   UNL     1       0.424  -2.770   1.676  0.00  0.00    +0.005 A 
ATOM     10  C   UNL     1       1.141  -2.972   2.839  0.00  0.00    +0.024 A 
ATOM     11  C   UNL     1       1.953  -1.962   3.336  0.00  0.00    +0.042 A 
ATOM     12  C   UNL     1       2.042  -0.751   2.662  0.00  0.00    +0.024 A 
ATOM     13  C   UNL     1       1.327  -0.557   1.496  0.00  0.00    +0.005 A 
BRANCH   8  15
ATOM     14  C   UNL     1       0.613  -1.678  -1.469  0.00  0.00    +0.009 C 
ATOM     15  C   UNL     1      -0.269  -1.347  -0.263  0.00  0.00    +0.032 C 
ENDBRANCH   8  15
ENDBRANCH   1  11
BRANCH   7  16
ATOM     16  C   UNL     1      -0.236  -1.613   4.829  0.00  0.00    +0.257 C 
ATOM     17  O   UNL     1      -0.934  -2.448   4.282  0.00  0.00    -0.269 OA
ATOM     18  N   UNL     1      -0.271  -0.331   4.415  0.00  0.00    -0.304 N 
ATOM     19  H   UNL     1       0.344   0.317   4.793  0.00  0.00    +0.150 HD
BRANCH  18  20
ATOM     20  C   UNL     1      -1.237   0.084   3.395  0.00  0.00    +0.100 C 
ATOM     21  C   UNL     1      -2.551   0.482   4.069  0.00  0.00    +0.033 C 
BRANCH  20  22
ATOM     22  C   UNL     1      -0.687   1.261   2.631  0.00  0.00    -0.027 A 
ATOM     23  C   UNL     1       0.065   2.219   3.286  0.00  0.00    +0.005 A 
ATOM     24  C   UNL     1       0.569   3.299   2.585  0.00  0.00    +0.000 A 
ATOM     25  C   UNL     1       0.323   3.420   1.231  0.00  0.00    +0.000 A 
ATOM     26  C   UNL     1      -0.428   2.462   0.576  0.00  0.00    +0.000 A 
ATOM     27  C   UNL     1      -0.929   1.380   1.276  0.00  0.00    +0.005 A 
ENDBRANCH  20  22
ENDBRANCH  18  20
ENDBRANCH   7  16
BRANCH   7  28
ATOM     28  C   UNL     1       0.094  -2.208   7.241  0.00  0.00    +0.107 C 
ATOM     29  N   UNL     1      -0.340  -2.371   8.279  0.00  0.00    -0.191 NA
ENDBRANCH   7  28
BRANCH   4  30
ATOM     30  C   UNL     1       5.721  -1.424   6.022  0.00  0.00    +0.059 C 
BRANCH  30  31
ATOM     31  C   UNL     1       6.499  -1.737   7.275  0.00  0.00    -0.044 A 
ATOM     32  C   UNL     1       6.034  -1.303   8.503  0.00  0.00    +0.004 A 
ATOM     33  C   UNL     1       6.747  -1.590   9.652  0.00  0.00    +0.002 A 
ATOM     34  C   UNL     1       7.925  -2.309   9.574  0.00  0.00    +0.020 A 
ATOM     35  C   UNL     1       8.390  -2.743   8.345  0.00  0.00    +0.041 A 
ATOM     36  C   UNL     1       7.673  -2.461   7.196  0.00  0.00    +0.023 A 
ATOM     37 CL   UNL     1       9.869  -3.647   8.247  0.00  0.00    -0.084 Cl
ENDBRANCH  30  31
ENDBRANCH   4  30
TORSDOF 8
