REMARK  Name = ZINC17719311
REMARK  14 active torsions:
REMARK  status: ('A' for Active; 'I' for Inactive)
REMARK    1  A    between atoms: C_1  and  C_2
REMARK    2  A    between atoms: C_2  and  C_3
REMARK    3  A    between atoms: C_3  and  C_5
REMARK    4  A    between atoms: C_3  and  N_62
REMARK    5  A    between atoms: C_8  and  S_17
REMARK    6  A    between atoms: N_9  and  C_10
REMARK    7  A    between atoms: C_10  and  C_11
REMARK    8  A    between atoms: S_17  and  C_18
REMARK    9  A    between atoms: C_18  and  C_20
REMARK   10  A    between atoms: C_18  and  C_21
REMARK   11  A    between atoms: C_24  and  C_26
REMARK   12  A    between atoms: C_29  and  N_32
REMARK   13  A    between atoms: C_35  and  N_62
REMARK   14  A    between atoms: C_36  and  N_62
REMARK                            x       y       z     vdW  Elec       q    Type
REMARK                         _______ _______ _______ _____ _____    ______ ____
ROOT
ATOM      1  C   UNL     1      -3.442   2.185   2.195  0.00  0.00    +0.121 A 
ATOM      2  N   UNL     1      -3.234   1.609   3.346  0.00  0.00    -0.135 NA
ATOM      3  N   UNL     1      -2.261   0.774   3.252  0.00  0.00    -0.123 NA
ATOM      4  C   UNL     1      -1.796   0.768   2.024  0.00  0.00    +0.193 A 
ATOM      5  N   UNL     1      -2.532   1.672   1.313  0.00  0.00    -0.303 N 
ENDROOT
BRANCH   1   6
ATOM      6  C   UNL     1      -4.492   3.223   1.893  0.00  0.00    +0.000 C 
BRANCH   6   9
ATOM      7  C   UNL     1      -6.144   1.596   1.197  0.00  0.00    -0.096 C 
ATOM      8  C   UNL     1      -5.930   2.179   3.537  0.00  0.00    -0.096 C 
ATOM      9  N   UNL     1      -5.843   2.684   2.151  0.00  0.00    +0.383 N 
ATOM     10  H   UNL     1      -6.532   3.436   2.027  0.00  0.00    -0.082 HD
ENDBRANCH   6   9
BRANCH   6  12
ATOM     11  C   UNL     1      -5.258   5.548   2.395  0.00  0.00    +0.002 C 
ATOM     12  C   UNL     1      -4.269   4.447   2.784  0.00  0.00    -0.011 C 
ENDBRANCH   6  12
ENDBRANCH   1   6
BRANCH   5  13
ATOM     13  C   UNL     1      -2.381   2.016  -0.103  0.00  0.00    +0.160 C 
BRANCH  13  14
ATOM     14  C   UNL     1      -1.413   3.163  -0.241  0.00  0.00    -0.028 A 
ATOM     15  C   UNL     1      -0.063   2.912  -0.397  0.00  0.00    +0.005 A 
ATOM     16  C   UNL     1       0.824   3.964  -0.529  0.00  0.00    +0.000 A 
ATOM     17  C   UNL     1       0.362   5.266  -0.500  0.00  0.00    +0.000 A 
ATOM     18  C   UNL     1      -0.988   5.517  -0.339  0.00  0.00    +0.000 A 
ATOM     19  C   UNL     1      -1.875   4.465  -0.207  0.00  0.00    +0.005 A 
ENDBRANCH  13  14
ENDBRANCH   5  13
BRANCH   4  20
ATOM     20  S   UNL     1      -0.471  -0.218   1.412  0.00  0.00    -0.073 S 
BRANCH  20  21
ATOM     21  C   UNL     1      -0.031  -1.124   2.916  0.00  0.00    +0.139 C 
ATOM     22  C   UNL     1      -1.196  -2.029   3.325  0.00  0.00    +0.029 C 
BRANCH  21  23
ATOM     23  C   UNL     1       1.191  -1.966   2.656  0.00  0.00    +0.231 A 
ATOM     24  N   UNL     1       1.401  -2.717   1.611  0.00  0.00    -0.111 NA
ATOM     25  N   UNL     1       2.548  -3.290   1.717  0.00  0.00    -0.107 NA
ATOM     26  C   UNL     1       3.110  -2.928   2.846  0.00  0.00    +0.248 A 
ATOM     27  O   UNL     1       2.260  -2.082   3.462  0.00  0.00    -0.419 OA
BRANCH  26  28
ATOM     28  C   UNL     1       4.430  -3.366   3.349  0.00  0.00    +0.039 A 
ATOM     29  C   UNL     1       4.906  -2.892   4.572  0.00  0.00    +0.015 A 
ATOM     30  C   UNL     1       6.137  -3.308   5.038  0.00  0.00    +0.033 A 
ATOM     31  C   UNL     1       6.902  -4.186   4.291  0.00  0.00    +0.126 A 
ATOM     32  C   UNL     1       6.437  -4.656   3.075  0.00  0.00    +0.033 A 
ATOM     33  C   UNL     1       5.207  -4.251   2.600  0.00  0.00    +0.015 A 
BRANCH  31  34
ATOM     34  N   UNL     1       8.223  -4.623   4.794  0.00  0.00    +0.056 N 
ATOM     35  O   UNL     1       8.899  -5.396   4.138  0.00  0.00    -0.126 OA
ATOM     36  O   UNL     1       8.635  -4.211   5.864  0.00  0.00    -0.126 OA
ENDBRANCH  31  34
ENDBRANCH  26  28
ENDBRANCH  21  23
ENDBRANCH  20  21
ENDBRANCH   4  20
TORSDOF 10
