REMARK  Name = ZINC39290087
REMARK  11 active torsions:
REMARK  status: ('A' for Active; 'I' for Inactive)
REMARK    1  A    between atoms: C_2  and  C_3
REMARK    2  A    between atoms: C_3  and  S_4
REMARK    3  A    between atoms: S_4  and  C_5
REMARK    4  A    between atoms: C_9  and  C_14
REMARK    5  A    between atoms: C_14  and  C_15
REMARK    6  A    between atoms: C_14  and  C_24
REMARK    7  A    between atoms: C_18  and  N_21
REMARK    8  A    between atoms: C_25  and  N_35
REMARK    9  A    between atoms: C_27  and  S_31
REMARK   10  A    between atoms: S_31  and  C_32
REMARK   11  A    between atoms: C_32  and  C_33
REMARK                            x       y       z     vdW  Elec       q    Type
REMARK                         _______ _______ _______ _____ _____    ______ ____
ROOT
ATOM      1  C   UNL     1      -5.569  -5.209  -0.606  0.00  0.00    +0.077 C 
ENDROOT
BRANCH   1   6
ATOM      2  C   UNL     1      -3.484  -2.455  -2.277  0.00  0.00    +0.182 C 
ATOM      3  N   UNL     1      -4.264  -2.058  -1.285  0.00  0.00    -0.154 NA
ATOM      4  C   UNL     1      -5.318  -2.770  -0.888  0.00  0.00    +0.249 C 
ATOM      5  O   UNL     1      -6.028  -2.396   0.024  0.00  0.00    -0.273 OA
ATOM      6  C   UNL     1      -5.594  -4.068  -1.625  0.00  0.00    +0.152 C 
ATOM      7  C   UNL     1      -4.630  -4.417  -2.744  0.00  0.00    +0.108 C 
ATOM      8  N   UNL     1      -3.651  -3.574  -2.983  0.00  0.00    -0.213 NA
ATOM      9  N   UNL     1      -4.777  -5.547  -3.469  0.00  0.00    -0.346 N 
ATOM     10  H   UNL     1      -5.509  -6.154  -3.279  0.00  0.00    +0.143 HD
ATOM     11  H   UNL     1      -4.149  -5.751  -4.180  0.00  0.00    +0.143 HD
BRANCH   2  12
ATOM     12  S   UNL     1      -2.123  -1.421  -2.703  0.00  0.00    -0.084 S 
BRANCH  12  13
ATOM     13  C   UNL     1      -2.242  -0.036  -1.538  0.00  0.00    +0.103 C 
BRANCH  13  15
ATOM     14  C   UNL     1      -1.388   2.147  -2.220  0.00  0.00    +0.005 C 
ATOM     15  C   UNL     1      -1.121   0.937  -1.797  0.00  0.00    -0.023 C 
ENDBRANCH  13  15
ENDBRANCH  12  13
ENDBRANCH   2  12
ENDBRANCH   1   6
BRANCH   1  16
ATOM     16  C   UNL     1      -5.841  -6.515  -1.308  0.00  0.00    +0.065 A 
ATOM     17  C   UNL     1      -4.899  -7.534  -1.297  0.00  0.00    +0.128 A 
ATOM     18  N   UNL     1      -5.159  -8.685  -1.925  0.00  0.00    -0.209 NA
ATOM     19  C   UNL     1      -6.298  -8.874  -2.558  0.00  0.00    +0.171 A 
ATOM     20  N   UNL     1      -7.255  -7.906  -2.599  0.00  0.00    -0.302 N 
ATOM     21  C   UNL     1      -7.051  -6.725  -1.978  0.00  0.00    +0.258 A 
ATOM     22  O   UNL     1      -7.905  -5.854  -2.005  0.00  0.00    -0.267 OA
ATOM     23  H   UNL     1      -8.086  -8.066  -3.072  0.00  0.00    +0.171 HD
BRANCH  17  24
ATOM     24  N   UNL     1      -3.697  -7.358  -0.640  0.00  0.00    -0.343 N 
ATOM     25  H   UNL     1      -3.548  -6.562  -0.106  0.00  0.00    +0.144 HD
ATOM     26  H   UNL     1      -3.002  -8.031  -0.712  0.00  0.00    +0.144 HD
ENDBRANCH  17  24
BRANCH  19  27
ATOM     27  S   UNL     1      -6.590 -10.411  -3.370  0.00  0.00    -0.084 S 
BRANCH  27  28
ATOM     28  C   UNL     1      -5.080 -11.367  -3.057  0.00  0.00    +0.104 C 
BRANCH  28  29
ATOM     29  C   UNL     1      -5.200 -12.721  -3.706  0.00  0.00    -0.023 C 
ATOM     30  C   UNL     1      -4.398 -13.050  -4.689  0.00  0.00    +0.005 C 
ENDBRANCH  28  29
ENDBRANCH  27  28
ENDBRANCH  19  27
ENDBRANCH   1  16
BRANCH   1  31
ATOM     31  C   UNL     1      -6.628  -4.972   0.440  0.00  0.00    -0.038 A 
ATOM     32  C   UNL     1      -7.822  -4.370   0.091  0.00  0.00    +0.006 A 
ATOM     33  C   UNL     1      -8.793  -4.152   1.051  0.00  0.00    +0.033 A 
ATOM     34  C   UNL     1      -8.569  -4.536   2.360  0.00  0.00    +0.126 A 
ATOM     35  C   UNL     1      -7.374  -5.138   2.709  0.00  0.00    +0.033 A 
ATOM     36  C   UNL     1      -6.406  -5.360   1.748  0.00  0.00    +0.006 A 
BRANCH  34  37
ATOM     37  N   UNL     1      -9.607  -4.302   3.388  0.00  0.00    +0.056 N 
ATOM     38  O   UNL     1     -10.652  -3.775   3.083  0.00  0.00    -0.126 OA
ATOM     39  O   UNL     1      -9.412  -4.637   4.533  0.00  0.00    -0.126 OA
ENDBRANCH  34  37
ENDBRANCH   1  31
TORSDOF 11
