REMARK  Name = ZINC63879061
REMARK  10 active torsions:
REMARK  status: ('A' for Active; 'I' for Inactive)
REMARK    1  A    between atoms: C_1  and  C_2
REMARK    2  A    between atoms: C_2  and  O_3
REMARK    3  A    between atoms: O_3  and  C_4
REMARK    4  A    between atoms: C_6  and  C_15
REMARK    5  A    between atoms: C_9  and  O_10
REMARK    6  A    between atoms: O_10  and  C_11
REMARK    7  A    between atoms: C_11  and  C_12
REMARK    8  A    between atoms: C_12  and  C_13
REMARK    9  A    between atoms: C_12  and  C_14
REMARK   10  A    between atoms: C_27  and  C_31
REMARK                            x       y       z     vdW  Elec       q    Type
REMARK                         _______ _______ _______ _____ _____    ______ ____
ROOT
ATOM      1  C   UNL     1      -0.229  -4.969   0.477  0.00  0.00    +0.111 C 
ATOM      2  C   UNL     1      -1.576  -5.506  -0.012  0.00  0.00    +0.128 C 
ATOM      3  C   UNL     1      -2.007  -6.561   1.001  0.00  0.00    -0.028 C 
ATOM      4  C   UNL     1      -3.224  -6.220   1.402  0.00  0.00    -0.000 A 
ATOM      5  C   UNL     1      -4.185  -6.884   2.297  0.00  0.00    +0.010 A 
ATOM      6  C   UNL     1      -5.360  -6.234   2.505  0.00  0.00    +0.001 A 
ATOM      7  C   UNL     1      -5.672  -5.003   1.919  0.00  0.00    +0.002 A 
ATOM      8  C   UNL     1      -4.851  -4.323   1.079  0.00  0.00    +0.026 A 
ATOM      9  C   UNL     1      -3.587  -4.910   0.780  0.00  0.00    +0.043 A 
ATOM     10  N   UNL     1      -2.622  -4.485  -0.014  0.00  0.00    -0.376 N 
ATOM     11  C   UNL     1      -1.077  -7.666   1.439  0.00  0.00    +0.061 C 
ATOM     12  C   UNL     1       0.264  -6.989   1.779  0.00  0.00    +0.094 C 
ATOM     13  N   UNL     1       0.678  -6.109   0.683  0.00  0.00    -0.307 NA
ATOM     14  H   UNL     1       0.802  -6.631  -0.172  0.00  0.00    +0.123 HD
ATOM     15  H   UNL     1      -2.600  -3.650  -0.507  0.00  0.00    +0.160 HD
ENDROOT
BRANCH   1  18
ATOM     16  C   UNL     1       0.777  -1.811  -1.336  0.00  0.00    +0.162 A 
ATOM     17  C   UNL     1       0.243  -2.669  -0.388  0.00  0.00    +0.054 A 
ATOM     18  C   UNL     1       0.352  -4.037  -0.555  0.00  0.00    -0.024 A 
ATOM     19  C   UNL     1       0.992  -4.552  -1.667  0.00  0.00    +0.009 A 
ATOM     20  C   UNL     1       1.526  -3.702  -2.616  0.00  0.00    +0.050 A 
ATOM     21  C   UNL     1       1.416  -2.330  -2.458  0.00  0.00    +0.162 A 
BRANCH  16  22
ATOM     22  O   UNL     1       0.671  -0.465  -1.174  0.00  0.00    -0.489 OA
BRANCH  22  24
ATOM     23  C   UNL     1      -0.019   1.526   0.010  0.00  0.00    +0.048 C 
ATOM     24  C   UNL     1       0.002  -0.004   0.002  0.00  0.00    +0.226 C 
ENDBRANCH  22  24
ENDBRANCH  16  22
BRANCH  21  25
ATOM     25  O   UNL     1       1.936  -1.492  -3.394  0.00  0.00    -0.488 OA
BRANCH  25  26
ATOM     26  C   UNL     1       2.578  -2.095  -4.520  0.00  0.00    +0.232 C 
BRANCH  26  27
ATOM     27  C   UNL     1       3.096  -1.002  -5.457  0.00  0.00    +0.020 C 
ATOM     28  C   UNL     1       4.190  -0.200  -4.750  0.00  0.00    +0.010 C 
ATOM     29  C   UNL     1       3.672  -1.645  -6.721  0.00  0.00    +0.010 C 
ENDBRANCH  26  27
ENDBRANCH  25  26
ENDBRANCH  21  25
ENDBRANCH   1  18
BRANCH  11  30
ATOM     30  C   UNL     1      -1.633  -8.359   2.655  0.00  0.00    -0.039 A 
ATOM     31  C   UNL     1      -1.862  -7.643   3.815  0.00  0.00    +0.004 A 
ATOM     32  C   UNL     1      -2.373  -8.279   4.931  0.00  0.00    +0.000 A 
ATOM     33  C   UNL     1      -2.654  -9.632   4.887  0.00  0.00    +0.000 A 
ATOM     34  C   UNL     1      -2.425 -10.348   3.727  0.00  0.00    +0.000 A 
ATOM     35  C   UNL     1      -1.919  -9.711   2.610  0.00  0.00    +0.004 A 
ENDBRANCH  11  30
TORSDOF 7
