REMARK  Name = ZINC20558699
REMARK  9 active torsions:
REMARK  status: ('A' for Active; 'I' for Inactive)
REMARK    1  A    between atoms: C_1  and  C_2
REMARK    2  A    between atoms: C_7  and  C_8
REMARK    3  A    between atoms: C_8  and  N_9
REMARK    4  A    between atoms: C_21  and  C_29
REMARK    5  A    between atoms: C_23  and  C_27
REMARK    6  A    between atoms: C_24  and  N_26
REMARK    7  A    between atoms: C_32  and  C_35
REMARK    8  A    between atoms: C_35  and  O_37
REMARK    9  A    between atoms: O_37  and  C_38
REMARK                            x       y       z     vdW  Elec       q    Type
REMARK                         _______ _______ _______ _____ _____    ______ ____
ROOT
ATOM      1  N   UNL     1      -0.237   1.287   0.049  0.00  0.00    -0.198 N 
ATOM      2  C   UNL     1       0.999   1.937  -0.049  0.00  0.00    +0.062 A 
ATOM      3  C   UNL     1       1.070   3.132  -0.753  0.00  0.00    +0.025 A 
ATOM      4  C   UNL     1       2.276   3.794  -0.876  0.00  0.00    +0.002 A 
ATOM      5  C   UNL     1       3.418   3.267  -0.299  0.00  0.00    +0.001 A 
ATOM      6  C   UNL     1       3.361   2.084   0.405  0.00  0.00    +0.013 A 
ATOM      7  C   UNL     1       2.145   1.402   0.542  0.00  0.00    +0.042 A 
ATOM      8  C   UNL     1       2.144   0.138   1.317  0.00  0.00    +0.162 C 
ATOM      9  C   UNL     1       1.147  -0.737   1.226  0.00  0.00    +0.141 C 
ATOM     10  S   UNL     1      -0.211  -0.375   0.150  0.00  0.00    +0.076 S 
ATOM     11  O   UNL     1      -1.395  -0.769   0.829  0.00  0.00    -0.150 OA
ATOM     12  O   UNL     1       0.138  -0.864  -1.138  0.00  0.00    -0.150 OA
ATOM     13  C   UNL     1       1.145  -2.019   2.011  0.00  0.00    +0.118 C 
ATOM     14  C   UNL     1       2.125  -1.933   3.148  0.00  0.00    +0.099 C 
ATOM     15  C   UNL     1       3.094  -0.983   3.144  0.00  0.00    +0.199 C 
ATOM     16  O   UNL     1       3.204  -0.105   2.134  0.00  0.00    -0.439 OA
ENDROOT
BRANCH  13  17
ATOM     17  C   UNL     1       1.530  -3.160   1.105  0.00  0.00    -0.033 A 
ATOM     18  C   UNL     1       2.758  -3.150   0.469  0.00  0.00    +0.005 A 
ATOM     19  C   UNL     1       3.120  -4.194  -0.357  0.00  0.00    +0.015 A 
ATOM     20  C   UNL     1       2.237  -5.257  -0.560  0.00  0.00    +0.059 A 
ATOM     21  C   UNL     1       0.996  -5.258   0.080  0.00  0.00    +0.015 A 
ATOM     22  C   UNL     1       0.650  -4.210   0.908  0.00  0.00    +0.005 A 
BRANCH  20  23
ATOM     23  C   UNL     1       2.614  -6.375  -1.449  0.00  0.00    +0.339 C 
ATOM     24  O   UNL     1       1.844  -7.298  -1.625  0.00  0.00    -0.245 OA
BRANCH  23  25
ATOM     25  O   UNL     1       3.812  -6.371  -2.066  0.00  0.00    -0.464 OA
ATOM     26  C   UNL     1       4.115  -7.502  -2.924  0.00  0.00    +0.280 C 
ENDBRANCH  23  25
ENDBRANCH  20  23
ENDBRANCH  13  17
BRANCH  15  27
ATOM     27  N   UNL     1       3.978  -0.917   4.192  0.00  0.00    -0.328 N 
ATOM     28  H   UNL     1       4.767  -0.151   4.199  0.00  0.00    +0.145 HD
ATOM     29  H   UNL     1       3.897  -1.631   5.025  0.00  0.00    +0.145 HD
ENDBRANCH  15  27
BRANCH  14  30
ATOM     30  C   UNL     1       2.036  -2.857   4.239  0.00  0.00    +0.101 C 
ATOM     31  N   UNL     1       1.966  -3.590   5.104  0.00  0.00    -0.191 NA
ENDBRANCH  14  30
BRANCH   1  32
ATOM     32  C   UNL     1      -1.497   2.034   0.057  0.00  0.00    +0.167 C 
BRANCH  32  39
ATOM     33  C   UNL     1      -3.817   3.677   0.571  0.00  0.00    +0.044 C 
ATOM     34  C   UNL     1      -2.919   3.265   1.709  0.00  0.00    -0.046 A 
ATOM     35  C   UNL     1      -3.207   3.669   2.999  0.00  0.00    +0.003 A 
ATOM     36  C   UNL     1      -2.380   3.296   4.041  0.00  0.00    +0.000 A 
ATOM     37  C   UNL     1      -1.267   2.514   3.794  0.00  0.00    +0.000 A 
ATOM     38  C   UNL     1      -0.981   2.106   2.505  0.00  0.00    +0.005 A 
ATOM     39  C   UNL     1      -1.808   2.479   1.462  0.00  0.00    -0.025 A 
ENDBRANCH  32  39
ENDBRANCH   1  32
TORSDOF 7
