REMARK  Name = ZINC38732670
REMARK  7 active torsions:
REMARK  status: ('A' for Active; 'I' for Inactive)
REMARK    1  A    between atoms: C_4  and  C_7
REMARK    2  A    between atoms: C_7  and  C_8
REMARK    3  A    between atoms: C_7  and  C_35
REMARK    4  A    between atoms: C_8  and  C_9
REMARK    5  A    between atoms: C_9  and  N_10
REMARK    6  A    between atoms: C_11  and  C_13
REMARK    7  A    between atoms: C_19  and  C_21
REMARK                            x       y       z     vdW  Elec       q    Type
REMARK                         _______ _______ _______ _____ _____    ______ ____
ROOT
ATOM      1  C   UNL     1       3.340  -1.577   6.699  0.00  0.00    +0.087 C 
ATOM      2  C   UNL     1       4.495  -2.551   6.939  0.00  0.00    +0.013 C 
ATOM      3  C   UNL     1       4.421  -3.086   8.371  0.00  0.00    +0.001 C 
ATOM      4  C   UNL     1       4.524  -1.920   9.357  0.00  0.00    +0.001 C 
ATOM      5  C   UNL     1       3.370  -0.946   9.117  0.00  0.00    +0.013 C 
ATOM      6  C   UNL     1       3.443  -0.411   7.685  0.00  0.00    +0.087 C 
ENDROOT
BRANCH   6   7
ATOM      7  C   UNL     1       2.305   0.549   7.449  0.00  0.00    +0.219 C 
ATOM      8  O   UNL     1       1.280   0.159   6.931  0.00  0.00    -0.275 OA
ATOM      9  N   UNL     1       2.427   1.841   7.812  0.00  0.00    -0.298 N 
ATOM     10  C   UNL     1       3.619   2.305   8.537  0.00  0.00    +0.126 C 
ATOM     11  C   UNL     1       4.243   3.469   7.758  0.00  0.00    +0.125 C 
ATOM     12  N   UNL     1       3.188   4.439   7.437  0.00  0.00    -0.314 N 
ATOM     13  C   UNL     1       1.996   3.975   6.712  0.00  0.00    +0.125 C 
ATOM     14  C   UNL     1       1.374   2.812   7.486  0.00  0.00    +0.126 C 
ATOM     15  C   UNL     1       3.313   5.772   7.812  0.00  0.00    +0.099 A 
ATOM     16  C   UNL     1       4.503   6.220   8.376  0.00  0.00    +0.042 A 
ATOM     17  C   UNL     1       4.615   7.548   8.745  0.00  0.00    +0.005 A 
ATOM     18  C   UNL     1       3.528   8.387   8.536  0.00  0.00    +0.018 A 
ATOM     19  C   UNL     1       2.378   7.876   7.971  0.00  0.00    +0.084 A 
ATOM     20  N   UNL     1       2.301   6.605   7.623  0.00  0.00    -0.350 N 
ATOM     21  H   UNL     1       1.482   6.272   7.224  0.00  0.00    +0.166 HD
ENDBRANCH   6   7
BRANCH   1  23
ATOM     22  N   UNL     1       3.341  -1.902   4.247  0.00  0.00    -0.315 N 
ATOM     23  C   UNL     1       3.412  -1.050   5.289  0.00  0.00    +0.217 C 
ATOM     24  O   UNL     1       3.533   0.141   5.092  0.00  0.00    -0.275 OA
ATOM     25  H   UNL     1       3.243  -2.854   4.405  0.00  0.00    +0.149 HD
BRANCH  22  26
ATOM     26  C   UNL     1       3.411  -1.389   2.876  0.00  0.00    +0.105 C 
BRANCH  26  27
ATOM     27  C   UNL     1       3.308  -2.555   1.891  0.00  0.00    +0.031 C 
BRANCH  27  28
ATOM     28  C   UNL     1       3.381  -2.020   0.459  0.00  0.00    +0.050 C 
BRANCH  28  32
ATOM     29  C   UNL     1      -0.033   0.425  -0.325  0.00  0.00    +0.000 A 
ATOM     30  C   UNL     1       1.238   0.915  -0.563  0.00  0.00    +0.000 A 
ATOM     31  C   UNL     1       2.342   0.124  -0.309  0.00  0.00    +0.004 A 
ATOM     32  C   UNL     1       2.176  -1.157   0.183  0.00  0.00    -0.040 A 
ATOM     33  C   UNL     1       0.906  -1.647   0.422  0.00  0.00    +0.004 A 
ATOM     34  C   UNL     1      -0.199  -0.856   0.167  0.00  0.00    +0.000 A 
ENDBRANCH  28  32
BRANCH  28  35
ATOM     35  C   UNL     1       3.403  -3.175  -0.508  0.00  0.00    -0.040 A 
ATOM     36  C   UNL     1       2.441  -4.165  -0.425  0.00  0.00    +0.004 A 
ATOM     37  C   UNL     1       2.461  -5.225  -1.313  0.00  0.00    +0.000 A 
ATOM     38  C   UNL     1       3.443  -5.295  -2.283  0.00  0.00    +0.000 A 
ATOM     39  C   UNL     1       4.404  -4.305  -2.367  0.00  0.00    +0.000 A 
ATOM     40  C   UNL     1       4.382  -3.243  -1.482  0.00  0.00    +0.004 A 
ENDBRANCH  28  35
ENDBRANCH  27  28
ENDBRANCH  26  27
ENDBRANCH  22  26
ENDBRANCH   1  23
TORSDOF 7
