REMARK  Name = ZINC63383932
REMARK  11 active torsions:
REMARK  status: ('A' for Active; 'I' for Inactive)
REMARK    1  A    between atoms: C_1  and  C_2
REMARK    2  A    between atoms: C_2  and  C_3
REMARK    3  A    between atoms: C_3  and  C_5
REMARK    4  A    between atoms: C_3  and  C_6
REMARK    5  A    between atoms: C_6  and  C_8
REMARK    6  A    between atoms: C_6  and  N_15
REMARK    7  A    between atoms: N_10  and  C_11
REMARK    8  A    between atoms: C_11  and  C_12
REMARK    9  A    between atoms: C_12  and  C_13
REMARK   10  A    between atoms: C_12  and  C_14
REMARK   11  A    between atoms: C_16  and  C_18
REMARK                            x       y       z     vdW  Elec       q    Type
REMARK                         _______ _______ _______ _____ _____    ______ ____
ROOT
ATOM      1  C   UNL     1      -1.691   3.532  -2.415  0.00  0.00    +0.167 C 
ATOM      2  C   UNL     1      -2.956   3.737  -3.271  0.00  0.00    +0.065 C 
ATOM      3  C   UNL     1      -2.524   4.441  -4.533  0.00  0.00    -0.034 C 
ATOM      4  C   UNL     1      -2.998   5.541  -5.113  0.00  0.00    -0.001 A 
ATOM      5  C   UNL     1      -4.151   6.396  -4.791  0.00  0.00    +0.010 A 
ATOM      6  C   UNL     1      -4.342   7.473  -5.599  0.00  0.00    +0.001 A 
ATOM      7  C   UNL     1      -3.512   7.780  -6.681  0.00  0.00    +0.002 A 
ATOM      8  C   UNL     1      -2.434   7.044  -7.054  0.00  0.00    +0.026 A 
ATOM      9  C   UNL     1      -2.134   5.883  -6.284  0.00  0.00    +0.043 A 
ATOM     10  N   UNL     1      -1.189   5.002  -6.424  0.00  0.00    -0.375 N 
ATOM     11  C   UNL     1      -1.367   3.969  -5.402  0.00  0.00    +0.131 C 
ATOM     12  C   UNL     1      -0.143   3.838  -4.498  0.00  0.00    +0.134 C 
ATOM     13  N   UNL     1      -0.559   4.151  -3.115  0.00  0.00    -0.276 N 
ATOM     14  C   UNL     1       0.261   5.101  -2.625  0.00  0.00    +0.248 C 
ATOM     15  O   UNL     1       0.265   5.492  -1.474  0.00  0.00    -0.270 OA
ATOM     16  C   UNL     1       1.145   5.595  -3.682  0.00  0.00    +0.042 A 
ATOM     17  C   UNL     1       0.920   4.821  -4.865  0.00  0.00    -0.013 A 
ATOM     18  C   UNL     1       1.604   5.040  -6.040  0.00  0.00    +0.006 A 
ATOM     19  C   UNL     1       2.557   6.054  -6.037  0.00  0.00    +0.000 A 
ATOM     20  C   UNL     1       2.812   6.809  -4.909  0.00  0.00    +0.001 A 
ATOM     21  C   UNL     1       2.099   6.616  -3.672  0.00  0.00    +0.013 A 
ATOM     22  H   UNL     1      -0.486   5.025  -7.092  0.00  0.00    +0.160 HD
ENDROOT
BRANCH   1  24
ATOM     23  N   UNL     1      -2.351   1.283  -1.624  0.00  0.00    -0.302 N 
ATOM     24  C   UNL     1      -1.433   2.058  -2.235  0.00  0.00    +0.235 C 
ATOM     25  O   UNL     1      -0.399   1.569  -2.639  0.00  0.00    -0.274 OA
ATOM     26  H   UNL     1      -3.209   1.657  -1.369  0.00  0.00    +0.150 HD
BRANCH  23  27
ATOM     27  C   UNL     1      -2.054  -0.125  -1.347  0.00  0.00    +0.162 C 
BRANCH  27  28
ATOM     28  C   UNL     1      -3.323  -0.933  -1.430  0.00  0.00    +0.234 C 
ATOM     29  O   UNL     1      -4.371  -0.388  -1.705  0.00  0.00    -0.274 OA
ATOM     30  N   UNL     1      -3.293  -2.260  -1.200  0.00  0.00    -0.314 N 
ATOM     31  H   UNL     1      -2.471  -2.684  -0.909  0.00  0.00    +0.149 HD
BRANCH  30  32
ATOM     32  C   UNL     1      -4.504  -3.063  -1.388  0.00  0.00    +0.107 C 
BRANCH  32  33
ATOM     33  C   UNL     1      -4.200  -4.527  -1.062  0.00  0.00    -0.000 C 
ATOM     34  C   UNL     1      -3.855  -4.657   0.423  0.00  0.00    +0.009 C 
ATOM     35  C   UNL     1      -5.428  -5.385  -1.377  0.00  0.00    +0.009 C 
ENDBRANCH  32  33
ENDBRANCH  30  32
ENDBRANCH  27  28
BRANCH  27  36
ATOM     36  C   UNL     1      -1.459  -0.253   0.057  0.00  0.00    +0.015 C 
ATOM     37  C   UNL     1      -0.089   0.427   0.095  0.00  0.00    +0.010 C 
BRANCH  36  39
ATOM     38  C   UNL     1      -3.685  -0.387   1.184  0.00  0.00    +0.004 C 
ATOM     39  C   UNL     1      -2.390   0.419   1.069  0.00  0.00    +0.002 C 
ENDBRANCH  36  39
ENDBRANCH  27  36
ENDBRANCH  23  27
ENDBRANCH   1  24
TORSDOF 7
