REMARK  Name = ZINC33267046
REMARK  8 active torsions:
REMARK  status: ('A' for Active; 'I' for Inactive)
REMARK    1  A    between atoms: C_1  and  C_2
REMARK    2  A    between atoms: N_5  and  C_7
REMARK    3  A    between atoms: C_18  and  C_30
REMARK    4  A    between atoms: N_24  and  C_25
REMARK    5  A    between atoms: C_25  and  C_26
REMARK    6  A    between atoms: C_26  and  C_27
REMARK    7  A    between atoms: C_27  and  O_28
REMARK    8  A    between atoms: O_28  and  C_29
REMARK                            x       y       z     vdW  Elec       q    Type
REMARK                         _______ _______ _______ _____ _____    ______ ____
ROOT
ATOM      1  C   UNL     1       5.048   3.432   3.314  0.00  0.00    +0.068 C 
ATOM      2  C   UNL     1       5.977   4.298   2.502  0.00  0.00    +0.067 A 
ATOM      3  C   UNL     1       5.693   4.853   1.259  0.00  0.00    +0.035 A 
ATOM      4  C   UNL     1       6.779   5.589   0.879  0.00  0.00    +0.146 A 
ATOM      5  N   UNL     1       7.726   5.458   1.826  0.00  0.00    -0.215 N 
ATOM      6  N   UNL     1       7.191   4.656   2.848  0.00  0.00    -0.169 NA
ATOM      7  N   UNL     1       6.761   6.321  -0.314  0.00  0.00    -0.303 N 
ATOM      8  C   UNL     1       7.692   6.437  -1.288  0.00  0.00    +0.093 A 
ATOM      9  C   UNL     1       7.156   7.174  -2.288  0.00  0.00    +0.020 A 
ATOM     10  C   UNL     1       5.851   7.542  -1.893  0.00  0.00    +0.025 A 
ATOM     11  C   UNL     1       5.645   7.038  -0.667  0.00  0.00    +0.050 A 
ATOM     12  C   UNL     1       4.448   7.188   0.227  0.00  0.00    +0.155 C 
ATOM     13  N   UNL     1       3.679   5.926   0.324  0.00  0.00    -0.269 N 
ATOM     14  C   UNL     1       4.476   4.679   0.406  0.00  0.00    +0.151 C 
ATOM     15  C   UNL     1       2.331   5.912   0.343  0.00  0.00    +0.303 C 
ATOM     16  O   UNL     1       1.712   6.957   0.279  0.00  0.00    -0.253 OA
ATOM     17  N   UNL     1       1.670   4.742   0.432  0.00  0.00    -0.299 N 
ATOM     18  H   UNL     1       2.230   3.797   0.490  0.00  0.00    +0.150 HD
ENDROOT
BRANCH  12  19
ATOM     19  C   UNL     1       4.911   7.589   1.604  0.00  0.00    -0.018 A 
ATOM     20  C   UNL     1       5.948   8.492   1.748  0.00  0.00    +0.006 A 
ATOM     21  C   UNL     1       6.374   8.861   3.010  0.00  0.00    +0.003 A 
ATOM     22  C   UNL     1       5.763   8.327   4.130  0.00  0.00    +0.038 A 
ATOM     23  C   UNL     1       4.725   7.423   3.986  0.00  0.00    +0.124 A 
ATOM     24  C   UNL     1       4.295   7.059   2.721  0.00  0.00    +0.044 A 
ATOM     25  F   UNL     1       4.127   6.902   5.080  0.00  0.00    -0.205 F 
ENDBRANCH  12  19
BRANCH   5  26
ATOM     26  C   UNL     1       9.011   6.018   1.797  0.00  0.00    +0.068 A 
ATOM     27  C   UNL     1      10.103   5.276   2.228  0.00  0.00    +0.028 A 
ATOM     28  C   UNL     1      11.368   5.829   2.194  0.00  0.00    +0.002 A 
ATOM     29  C   UNL     1      11.547   7.123   1.740  0.00  0.00    +0.000 A 
ATOM     30  C   UNL     1      10.461   7.866   1.316  0.00  0.00    +0.002 A 
ATOM     31  C   UNL     1       9.194   7.317   1.342  0.00  0.00    +0.028 A 
ENDBRANCH   5  26
BRANCH  17  32
ATOM     32  C   UNL     1       0.205   4.727   0.453  0.00  0.00    +0.108 C 
BRANCH  32  33
ATOM     33  C   UNL     1      -0.289   3.283   0.559  0.00  0.00    +0.047 C 
BRANCH  33  34
ATOM     34  C   UNL     1      -1.819   3.268   0.581  0.00  0.00    +0.161 C 
BRANCH  34  35
ATOM     35  O   UNL     1      -2.281   1.920   0.680  0.00  0.00    -0.383 OA
ATOM     36  C   UNL     1      -3.704   1.794   0.708  0.00  0.00    +0.193 C 
ENDBRANCH  34  35
ENDBRANCH  33  34
ENDBRANCH  32  33
ENDBRANCH  17  32
TORSDOF 6
