REMARK  Name = ZINC59155991
REMARK  12 active torsions:
REMARK  status: ('A' for Active; 'I' for Inactive)
REMARK    1  A    between atoms: C_1  and  C_2
REMARK    2  A    between atoms: C_3  and  C_17
REMARK    3  A    between atoms: C_4  and  C_16
REMARK    4  A    between atoms: N_5  and  C_7
REMARK    5  A    between atoms: C_10  and  N_13
REMARK    6  A    between atoms: N_18  and  N_19
REMARK    7  A    between atoms: C_20  and  C_22
REMARK    8  A    between atoms: C_22  and  N_23
REMARK    9  A    between atoms: N_23  and  C_24
REMARK   10  A    between atoms: N_23  and  C_31
REMARK   11  A    between atoms: C_24  and  C_25
REMARK   12  A    between atoms: C_31  and  C_32
REMARK                            x       y       z     vdW  Elec       q    Type
REMARK                         _______ _______ _______ _____ _____    ______ ____
ROOT
ATOM      1  N   UNL     1      -0.934   1.804  -3.521  0.00  0.00    -0.209 N 
ATOM      2  C   UNL     1      -0.768   3.049  -4.012  0.00  0.00    +0.216 C 
ATOM      3  O   UNL     1      -0.885   4.010  -3.281  0.00  0.00    -0.276 OA
ATOM      4  H   UNL     1      -0.841   1.036  -4.106  0.00  0.00    +0.177 HD
ENDROOT
BRANCH   1   6
ATOM      5  C   UNL     1      -1.402   0.423  -1.694  0.00  0.00    +0.142 C 
ATOM      6  N   UNL     1      -1.242   1.621  -2.167  0.00  0.00    -0.188 NA
BRANCH   5   9
ATOM      7  C   UNL     1      -1.770   2.729   0.452  0.00  0.00    +0.068 C 
ATOM      8  C   UNL     1      -1.893   1.247   0.698  0.00  0.00    +0.069 A 
ATOM      9  C   UNL     1      -1.726   0.230  -0.268  0.00  0.00    +0.038 A 
ATOM     10  C   UNL     1      -1.923  -0.976   0.370  0.00  0.00    +0.051 A 
ATOM     11  N   UNL     1      -2.196  -0.708   1.664  0.00  0.00    -0.236 N 
ATOM     12  N   UNL     1      -2.166   0.680   1.842  0.00  0.00    -0.171 NA
ATOM     13  C   UNL     1      -1.847  -2.342  -0.262  0.00  0.00    +0.066 C 
BRANCH  11  14
ATOM     14  C   UNL     1      -2.460  -1.657   2.661  0.00  0.00    +0.066 A 
ATOM     15  C   UNL     1      -3.458  -1.423   3.597  0.00  0.00    +0.030 A 
ATOM     16  C   UNL     1      -3.716  -2.361   4.578  0.00  0.00    +0.035 A 
ATOM     17  C   UNL     1      -2.982  -3.531   4.628  0.00  0.00    +0.126 A 
ATOM     18  C   UNL     1      -1.987  -3.767   3.697  0.00  0.00    +0.035 A 
ATOM     19  C   UNL     1      -1.728  -2.836   2.710  0.00  0.00    +0.030 A 
BRANCH  17  20
ATOM     20  N   UNL     1      -3.260  -4.534   5.681  0.00  0.00    +0.056 N 
ATOM     21  O   UNL     1      -4.129  -4.329   6.496  0.00  0.00    -0.126 OA
ATOM     22  O   UNL     1      -2.618  -5.557   5.726  0.00  0.00    -0.126 OA
ENDBRANCH  17  20
ENDBRANCH  11  14
ENDBRANCH   5   9
ENDBRANCH   1   6
BRANCH   2  23
ATOM     23  C   UNL     1      -0.437   3.246  -5.469  0.00  0.00    +0.021 C 
BRANCH  23  24
ATOM     24  N   UNL     1      -0.158   4.666  -5.720  0.00  0.00    +0.391 N 
ATOM     25  H   UNL     1      -0.929   5.225  -5.386  0.00  0.00    -0.080 HD
BRANCH  24  26
ATOM     26  C   UNL     1       1.070   5.055  -5.014  0.00  0.00    -0.042 C 
BRANCH  26  27
ATOM     27  C   UNL     1       1.291   6.538  -5.170  0.00  0.00    -0.064 A 
ATOM     28  C   UNL     1       2.022   7.019  -6.240  0.00  0.00    +0.002 A 
ATOM     29  C   UNL     1       2.224   8.380  -6.383  0.00  0.00    +0.000 A 
ATOM     30  C   UNL     1       1.694   9.258  -5.456  0.00  0.00    +0.000 A 
ATOM     31  C   UNL     1       0.963   8.777  -4.387  0.00  0.00    +0.000 A 
ATOM     32  C   UNL     1       0.757   7.417  -4.246  0.00  0.00    +0.002 A 
ENDBRANCH  26  27
ENDBRANCH  24  26
BRANCH  24  33
ATOM     33  C   UNL     1       0.016   4.883  -7.162  0.00  0.00    -0.042 C 
BRANCH  33  34
ATOM     34  C   UNL     1      -1.282   4.600  -7.873  0.00  0.00    -0.064 A 
ATOM     35  C   UNL     1      -1.503   3.359  -8.440  0.00  0.00    +0.002 A 
ATOM     36  C   UNL     1      -2.694   3.099  -9.092  0.00  0.00    +0.000 A 
ATOM     37  C   UNL     1      -3.664   4.080  -9.177  0.00  0.00    +0.000 A 
ATOM     38  C   UNL     1      -3.443   5.321  -8.610  0.00  0.00    +0.000 A 
ATOM     39  C   UNL     1      -2.254   5.580  -7.954  0.00  0.00    +0.002 A 
ENDBRANCH  33  34
ENDBRANCH  24  33
ENDBRANCH  23  24
ENDBRANCH   2  23
TORSDOF 10
