REMARK  Name = ZINC13479740
REMARK  6 active torsions:
REMARK  status: ('A' for Active; 'I' for Inactive)
REMARK    1  A    between atoms: C_4  and  C_7
REMARK    2  A    between atoms: C_15  and  C_27
REMARK    3  A    between atoms: C_17  and  C_23
REMARK    4  A    between atoms: C_17  and  C_25
REMARK    5  A    between atoms: C_18  and  N_22
REMARK    6  A    between atoms: C_19  and  C_20
REMARK                            x       y       z     vdW  Elec       q    Type
REMARK                         _______ _______ _______ _____ _____    ______ ____
ROOT
ATOM      1  C   UNL     1       3.479   4.366  -1.335  0.00  0.00    +0.023 C 
ATOM      2  C   UNL     1       2.610   5.304  -2.184  0.00  0.00    +0.035 C 
ATOM      3  C   UNL     1       1.297   4.610  -2.437  0.00  0.00    -0.021 C 
ATOM      4  C   UNL     1       0.803   3.783  -1.557  0.00  0.00    -0.029 C 
ATOM      5  C   UNL     1       1.400   3.502  -0.210  0.00  0.00    +0.031 C 
ATOM      6  C   UNL     1       2.765   4.117  -0.008  0.00  0.00    +0.017 C 
ATOM      7  C   UNL     1       1.421   1.986  -0.001  0.00  0.00    +0.073 C 
ATOM      8  C   UNL     1      -0.018   1.468   0.010  0.00  0.00    +0.189 C 
ATOM      9  C   UNL     1      -0.790   1.953  -1.180  0.00  0.00    +0.054 C 
ATOM     10  C   UNL     1      -0.431   3.035  -1.915  0.00  0.00    +0.074 C 
ENDROOT
BRANCH   1  14
ATOM     11  C   UNL     1       7.274   6.189  -0.606  0.00  0.00    +0.000 A 
ATOM     12  C   UNL     1       7.206   4.968  -1.252  0.00  0.00    +0.000 A 
ATOM     13  C   UNL     1       5.978   4.378  -1.488  0.00  0.00    +0.004 A 
ATOM     14  C   UNL     1       4.818   5.009  -1.078  0.00  0.00    -0.044 A 
ATOM     15  C   UNL     1       4.886   6.232  -0.436  0.00  0.00    +0.004 A 
ATOM     16  C   UNL     1       6.114   6.819  -0.196  0.00  0.00    +0.000 A 
ENDBRANCH   1  14
BRANCH   7  17
ATOM     17  C   UNL     1       2.082   1.668   1.315  0.00  0.00    -0.004 A 
ATOM     18  C   UNL     1       3.182   0.914   1.558  0.00  0.00    +0.011 A 
ATOM     19  C   UNL     1       3.615   0.760   2.861  0.00  0.00    +0.008 A 
ATOM     20  C   UNL     1       2.922   1.360   3.860  0.00  0.00    +0.045 A 
ATOM     21  S   UNL     1       1.615   2.180   2.961  0.00  0.00    -0.101 S 
ENDBRANCH   7  17
BRANCH   9  22
ATOM     22  N   UNL     1      -1.915   1.268  -1.543  0.00  0.00    -0.358 N 
ATOM     23  H   UNL     1      -2.504   1.599  -2.412  0.00  0.00    +0.142 HD
ATOM     24  H   UNL     1      -2.232   0.387  -0.967  0.00  0.00    +0.142 HD
ENDBRANCH   9  22
BRANCH  10  25
ATOM     25  C   UNL     1      -1.233   3.452  -3.026  0.00  0.00    +0.101 C 
ATOM     26  N   UNL     1      -1.869   3.783  -3.908  0.00  0.00    -0.191 NA
ENDBRANCH  10  25
BRANCH   8  27
ATOM     27  C   UNL     1       0.002  -0.004   0.002  0.00  0.00    +0.091 C 
ATOM     28  N   UNL     1       0.018  -1.140  -0.004  0.00  0.00    -0.194 NA
ENDBRANCH   8  27
BRANCH   8  29
ATOM     29  C   UNL     1      -0.686   1.932   1.236  0.00  0.00    +0.091 C 
ATOM     30  N   UNL     1      -1.203   2.290   2.183  0.00  0.00    -0.194 NA
ENDBRANCH   8  29
TORSDOF 6
