REMARK  Name = ZINC02092783
REMARK  9 active torsions:
REMARK  status: ('A' for Active; 'I' for Inactive)
REMARK    1  A    between atoms: C_1  and  C_2
REMARK    2  A    between atoms: C_2  and  C_4
REMARK    3  A    between atoms: C_2  and  N_12
REMARK    4  A    between atoms: C_4  and  C_5
REMARK    5  A    between atoms: C_5  and  C_6
REMARK    6  A    between atoms: C_32  and  C_34
REMARK    7  A    between atoms: C_37  and  C_40
REMARK    8  A    between atoms: C_40  and  C_41
REMARK    9  A    between atoms: C_40  and  C_42
REMARK                            x       y       z     vdW  Elec       q    Type
REMARK                         _______ _______ _______ _____ _____    ______ ____
ROOT
ATOM      1  N   UNL     1       0.701  -0.475   1.201  0.00  0.00    -0.288 N 
ATOM      2  C   UNL     1       0.176  -0.124   2.510  0.00  0.00    +0.204 C 
ATOM      3  C   UNL     1       1.043  -0.630   3.617  0.00  0.00    +0.234 C 
ATOM      4  O   UNL     1       0.714  -0.374   4.755  0.00  0.00    -0.274 OA
ATOM      5  N   UNL     1       2.156  -1.345   3.436  0.00  0.00    -0.276 N 
ATOM      6  C   UNL     1       2.616  -1.789   2.121  0.00  0.00    +0.167 C 
ATOM      7  C   UNL     1       1.788  -1.221   1.014  0.00  0.00    +0.237 C 
ATOM      8  O   UNL     1       2.130  -1.452  -0.127  0.00  0.00    -0.274 OA
ATOM      9  C   UNL     1       2.568  -3.322   2.062  0.00  0.00    +0.069 C 
ATOM     10  C   UNL     1       3.169  -3.876   3.328  0.00  0.00    -0.015 A 
ATOM     11  C   UNL     1       3.658  -5.217   3.580  0.00  0.00    +0.003 A 
ATOM     12  C   UNL     1       3.731  -6.364   2.783  0.00  0.00    +0.010 A 
ATOM     13  C   UNL     1       4.269  -7.487   3.362  0.00  0.00    +0.001 A 
ATOM     14  C   UNL     1       4.720  -7.496   4.671  0.00  0.00    +0.002 A 
ATOM     15  C   UNL     1       4.658  -6.376   5.482  0.00  0.00    +0.026 A 
ATOM     16  C   UNL     1       4.118  -5.221   4.922  0.00  0.00    +0.047 A 
ATOM     17  N   UNL     1       3.912  -3.969   5.426  0.00  0.00    -0.356 N 
ATOM     18  H   UNL     1       4.132  -3.687   6.327  0.00  0.00    +0.166 HD
ATOM     19  C   UNL     1       3.347  -3.171   4.466  0.00  0.00    +0.046 A 
ATOM     20  C   UNL     1       2.970  -1.714   4.614  0.00  0.00    +0.154 C 
ENDROOT
BRANCH  20  21
ATOM     21  C   UNL     1       4.215  -0.866   4.661  0.00  0.00    -0.021 A 
ATOM     22  C   UNL     1       5.167  -0.978   3.665  0.00  0.00    +0.006 A 
ATOM     23  C   UNL     1       6.309  -0.200   3.709  0.00  0.00    +0.004 A 
ATOM     24  C   UNL     1       6.498   0.691   4.748  0.00  0.00    -0.045 A 
ATOM     25  C   UNL     1       5.546   0.804   5.744  0.00  0.00    +0.004 A 
ATOM     26  C   UNL     1       4.402   0.029   5.698  0.00  0.00    +0.006 A 
BRANCH  24  27
ATOM     27  C   UNL     1       7.743   1.539   4.797  0.00  0.00    +0.013 C 
ATOM     28  C   UNL     1       7.354   3.018   4.769  0.00  0.00    +0.012 C 
ATOM     29  C   UNL     1       8.515   1.238   6.083  0.00  0.00    +0.012 C 
ENDBRANCH  24  27
ENDBRANCH  20  21
BRANCH   1  31
ATOM     30  C   UNL     1      -0.033   1.545   0.033  0.00  0.00    +0.028 C 
ATOM     31  C   UNL     1      -0.012   0.015   0.018  0.00  0.00    +0.074 C 
BRANCH  31  32
ATOM     32  C   UNL     1      -1.447  -0.515   0.031  0.00  0.00    +0.027 C 
BRANCH  32  33
ATOM     33  C   UNL     1      -1.429  -2.038  -0.110  0.00  0.00    +0.037 C 
BRANCH  33  34
ATOM     34  C   UNL     1      -2.843  -2.560  -0.097  0.00  0.00    -0.047 A 
ATOM     35  C   UNL     1      -3.442  -2.904   1.100  0.00  0.00    +0.003 A 
ATOM     36  C   UNL     1      -4.739  -3.382   1.112  0.00  0.00    +0.000 A 
ATOM     37  C   UNL     1      -5.437  -3.517  -0.074  0.00  0.00    +0.000 A 
ATOM     38  C   UNL     1      -4.838  -3.173  -1.272  0.00  0.00    +0.000 A 
ATOM     39  C   UNL     1      -3.542  -2.690  -1.283  0.00  0.00    +0.003 A 
ENDBRANCH  33  34
ENDBRANCH  32  33
ENDBRANCH  31  32
ENDBRANCH   1  31
TORSDOF 6
