REMARK  Name = ZINC39452011
REMARK  4 active torsions:
REMARK  status: ('A' for Active; 'I' for Inactive)
REMARK    1  A    between atoms: C_4  and  O_7
REMARK    2  A    between atoms: O_7  and  S_8
REMARK    3  A    between atoms: S_8  and  C_11
REMARK    4  A    between atoms: N_27  and  C_28
REMARK                            x       y       z     vdW  Elec       q    Type
REMARK                         _______ _______ _______ _____ _____    ______ ____
ROOT
ATOM      1  C   UNL     1       3.059  -2.111   1.941  0.00  0.00    +0.263 C 
ATOM      2  C   UNL     1       3.293  -2.269   3.448  0.00  0.00    +0.130 C 
ATOM      3  C   UNL     1       2.835  -1.022   4.158  0.00  0.00    +0.185 C 
ATOM      4  O   UNL     1       3.377  -0.686   5.192  0.00  0.00    -0.290 OA
ATOM      5  C   UNL     1       1.781  -0.240   3.633  0.00  0.00    +0.115 A 
ATOM      6  C   UNL     1       1.202  -0.589   2.427  0.00  0.00    +0.083 A 
ATOM      7  C   UNL     1       0.102   0.220   1.885  0.00  0.00    +0.099 A 
ATOM      8  C   UNL     1      -0.323   1.347   2.623  0.00  0.00    +0.068 A 
ATOM      9  C   UNL     1      -1.366   2.131   2.129  0.00  0.00    +0.037 A 
ATOM     10  C   UNL     1      -1.942   1.762   0.924  0.00  0.00    +0.060 A 
ATOM     11  C   UNL     1      -1.471   0.640   0.254  0.00  0.00    +0.131 A 
ATOM     12  N   UNL     1      -0.486  -0.087   0.736  0.00  0.00    -0.251 NA
ATOM     13 CL   UNL     1      -3.243   2.696   0.255  0.00  0.00    -0.082 Cl
ATOM     14  C   UNL     1       0.346   1.659   3.893  0.00  0.00    +0.266 A 
ATOM     15  O   UNL     1      -0.004   2.627   4.543  0.00  0.00    -0.267 OA
ATOM     16  N   UNL     1       1.346   0.876   4.337  0.00  0.00    -0.268 N 
ATOM     17  N   UNL     1       1.664  -1.692   1.733  0.00  0.00    -0.317 N 
ATOM     18  H   UNL     1       1.084  -2.178   1.126  0.00  0.00    +0.148 HD
ENDROOT
BRANCH  16  19
ATOM     19  C   UNL     1       1.970   1.197   5.549  0.00  0.00    +0.097 A 
ATOM     20  C   UNL     1       3.071   2.042   5.564  0.00  0.00    +0.030 A 
ATOM     21  C   UNL     1       3.683   2.357   6.761  0.00  0.00    +0.002 A 
ATOM     22  C   UNL     1       3.203   1.833   7.947  0.00  0.00    +0.004 A 
ATOM     23  C   UNL     1       2.107   0.991   7.941  0.00  0.00    +0.053 A 
ATOM     24  C   UNL     1       1.483   0.674   6.745  0.00  0.00    +0.203 A 
ATOM     25  O   UNL     1       0.401  -0.150   6.739  0.00  0.00    -0.286 OA
ENDBRANCH  16  19
BRANCH   1  26
ATOM     26  S   UNL     1       4.181  -0.851   1.276  0.00  0.00    +0.140 S 
ATOM     27  O   UNL     1       4.075   0.347   2.033  0.00  0.00    -0.135 OA
ATOM     28  O   UNL     1       4.099  -0.821  -0.142  0.00  0.00    -0.135 OA
BRANCH  26  29
ATOM     29  O   UNL     1       5.579  -1.376   1.574  0.00  0.00    -0.345 OA
BRANCH  29  33
ATOM     30  C   UNL     1       6.765  -4.476  -0.876  0.00  0.00    +0.000 A 
ATOM     31  C   UNL     1       7.006  -3.168  -1.252  0.00  0.00    +0.004 A 
ATOM     32  C   UNL     1       6.610  -2.128  -0.434  0.00  0.00    +0.048 A 
ATOM     33  C   UNL     1       5.969  -2.397   0.767  0.00  0.00    +0.156 A 
ATOM     34  C   UNL     1       5.727  -3.711   1.142  0.00  0.00    +0.048 A 
ATOM     35  C   UNL     1       6.126  -4.747   0.320  0.00  0.00    +0.004 A 
ENDBRANCH  29  33
ENDBRANCH  26  29
ENDBRANCH   1  26
TORSDOF 4
