REMARK  Name = ZINC13065217
REMARK  14 active torsions:
REMARK  status: ('A' for Active; 'I' for Inactive)
REMARK    1  A    between atoms: C_1  and  C_2
REMARK    2  A    between atoms: C_2  and  C_3
REMARK    3  A    between atoms: C_3  and  C_5
REMARK    4  A    between atoms: C_3  and  N_74
REMARK    5  A    between atoms: N_9  and  C_10
REMARK    6  A    between atoms: C_10  and  C_11
REMARK    7  A    between atoms: C_17  and  C_18
REMARK    8  A    between atoms: C_17  and  N_74
REMARK    9  A    between atoms: C_21  and  O_24
REMARK   10  A    between atoms: O_24  and  C_25
REMARK   11  A    between atoms: C_26  and  C_27
REMARK   12  A    between atoms: C_26  and  N_74
REMARK   13  A    between atoms: C_30  and  C_40
REMARK   14  A    between atoms: C_33  and  C_39
REMARK                            x       y       z     vdW  Elec       q    Type
REMARK                         _______ _______ _______ _____ _____    ______ ____
ROOT
ATOM      1  N   UNL     1       1.657  -2.873  -5.591  0.00  0.00    +0.392 N 
ATOM      2  H   UNL     1       0.781  -3.405  -5.533  0.00  0.00    -0.080 HD
ENDROOT
BRANCH   1   3
ATOM      3  C   UNL     1       2.443  -3.366  -6.742  0.00  0.00    +0.003 C 
BRANCH   3   4
ATOM      4  C   UNL     1       2.229  -4.853  -6.868  0.00  0.00    +0.138 A 
ATOM      5  N   UNL     1       2.186  -5.723  -5.889  0.00  0.00    -0.115 NA
ATOM      6  N   UNL     1       1.986  -6.888  -6.401  0.00  0.00    -0.023 NA
ATOM      7  N   UNL     1       1.901  -6.784  -7.681  0.00  0.00    -0.044 NA
ATOM      8  N   UNL     1       2.040  -5.543  -8.007  0.00  0.00    -0.228 N 
BRANCH   8   9
ATOM      9  C   UNL     1       2.003  -4.991  -9.364  0.00  0.00    +0.178 C 
BRANCH   9  10
ATOM     10  C   UNL     1       3.415  -4.994  -9.954  0.00  0.00    +0.140 C 
ATOM     11  C   UNL     1       3.405  -4.309 -11.338  0.00  0.00    +0.035 C 
ATOM     12  C   UNL     1       4.384  -5.197 -12.152  0.00  0.00    +0.031 C 
ATOM     13  C   UNL     1       4.098  -6.590 -11.537  0.00  0.00    +0.160 C 
ATOM     14  O   UNL     1       3.860  -6.342 -10.142  0.00  0.00    -0.375 OA
ENDBRANCH   9  10
ENDBRANCH   8   9
ENDBRANCH   3   4
BRANCH   3  16
ATOM     15  C   UNL     1       4.168  -1.569  -6.542  0.00  0.00    +0.002 C 
ATOM     16  C   UNL     1       3.932  -3.081  -6.533  0.00  0.00    -0.011 C 
ENDBRANCH   3  16
ENDBRANCH   1   3
BRANCH   1  17
ATOM     17  C   UNL     1       2.420  -3.063  -4.339  0.00  0.00    -0.042 C 
BRANCH  17  18
ATOM     18  C   UNL     1       1.499  -2.827  -3.170  0.00  0.00    -0.064 A 
ATOM     19  C   UNL     1       0.769  -3.877  -2.643  0.00  0.00    +0.005 A 
ATOM     20  C   UNL     1      -0.075  -3.664  -1.571  0.00  0.00    +0.046 A 
ATOM     21  C   UNL     1      -0.192  -2.395  -1.023  0.00  0.00    +0.120 A 
ATOM     22  C   UNL     1       0.537  -1.342  -1.557  0.00  0.00    +0.046 A 
ATOM     23  C   UNL     1       1.385  -1.562  -2.625  0.00  0.00    +0.005 A 
BRANCH  21  24
ATOM     24  O   UNL     1      -1.022  -2.182   0.031  0.00  0.00    -0.495 OA
ATOM     25  C   UNL     1      -1.092  -0.850   0.544  0.00  0.00    +0.277 C 
ENDBRANCH  21  24
ENDBRANCH  17  18
ENDBRANCH   1  17
BRANCH   1  26
ATOM     26  C   UNL     1       1.337  -1.441  -5.775  0.00  0.00    -0.036 C 
BRANCH  26  27
ATOM     27  C   UNL     1       0.241  -1.319  -6.801  0.00  0.00    +0.001 A 
ATOM     28  C   UNL     1      -1.056  -1.304  -6.406  0.00  0.00    +0.017 A 
ATOM     29  C   UNL     1      -2.098  -1.184  -7.428  0.00  0.00    +0.002 A 
ATOM     30  C   UNL     1      -3.453  -1.162  -7.081  0.00  0.00    -0.041 A 
ATOM     31  C   UNL     1      -4.400  -1.049  -8.059  0.00  0.00    +0.004 A 
ATOM     32  C   UNL     1      -4.030  -0.955  -9.393  0.00  0.00    +0.005 A 
ATOM     33  C   UNL     1      -2.701  -0.973  -9.758  0.00  0.00    -0.026 A 
ATOM     34  C   UNL     1      -1.719  -1.089  -8.780  0.00  0.00    +0.052 A 
ATOM     35  N   UNL     1      -0.382  -1.109  -9.117  0.00  0.00    -0.322 N 
ATOM     36  H   UNL     1      -0.123  -1.043 -10.049  0.00  0.00    +0.169 HD
ATOM     37  C   UNL     1       0.568  -1.214  -8.171  0.00  0.00    +0.251 A 
ATOM     38  O   UNL     1       1.740  -1.225  -8.504  0.00  0.00    -0.268 OA
ATOM     39  C   UNL     1      -2.314  -0.869 -11.211  0.00  0.00    +0.046 C 
ATOM     40  C   UNL     1      -3.865  -1.263  -5.635  0.00  0.00    +0.044 C 
ENDBRANCH  26  27
ENDBRANCH   1  26
TORSDOF 10
