REMARK  Name = ZINC49448356
REMARK  3 active torsions:
REMARK  status: ('A' for Active; 'I' for Inactive)
REMARK    1  A    between atoms: C_5  and  N_8
REMARK    2  A    between atoms: C_9  and  C_11
REMARK    3  A    between atoms: C_12  and  O_19
REMARK                            x       y       z     vdW  Elec       q    Type
REMARK                         _______ _______ _______ _____ _____    ______ ____
ROOT
ATOM      1  N   UNL     1      -1.260  -2.104  -0.001  0.00  0.00    -0.277 N 
ATOM      2  C   UNL     1      -0.110  -2.798  -0.112  0.00  0.00    +0.255 C 
ATOM      3  O   UNL     1       0.956  -2.212  -0.115  0.00  0.00    -0.270 OA
ATOM      4  H   UNL     1      -2.105  -2.574   0.074  0.00  0.00    +0.155 HD
ENDROOT
BRANCH   1   9
ATOM      5  C   UNL     1      -0.671   1.425  -1.042  0.00  0.00    +0.070 A 
ATOM      6  C   UNL     1      -1.192   2.054   0.035  0.00  0.00    +0.086 A 
ATOM      7  N   UNL     1      -1.717   1.349   1.065  0.00  0.00    -0.365 N 
ATOM      8  C   UNL     1      -1.741  -0.009   1.056  0.00  0.00    +0.110 A 
ATOM      9  C   UNL     1      -1.234  -0.701   0.005  0.00  0.00    +0.097 A 
ATOM     10  C   UNL     1      -0.678   0.013  -1.089  0.00  0.00    +0.203 A 
ATOM     11  O   UNL     1      -0.218  -0.582  -2.053  0.00  0.00    -0.286 OA
ATOM     12  H   UNL     1      -2.085   1.824   1.827  0.00  0.00    +0.165 HD
ENDBRANCH   1   9
BRANCH   2  13
ATOM     13  C   UNL     1      -0.144  -4.265  -0.229  0.00  0.00    +0.114 A 
ATOM     14  C   UNL     1      -0.211  -4.871  -1.493  0.00  0.00    +0.134 A 
ATOM     15  C   UNL     1      -0.243  -6.251  -1.593  0.00  0.00    +0.084 A 
ATOM     16  C   UNL     1      -0.208  -7.032  -0.450  0.00  0.00    +0.130 A 
ATOM     17  C   UNL     1      -0.142  -6.440   0.802  0.00  0.00    +0.077 A 
ATOM     18  C   UNL     1      -0.103  -5.065   0.920  0.00  0.00    +0.142 A 
ATOM     19  F   UNL     1      -0.033  -4.491   2.141  0.00  0.00    -0.204 F 
ATOM     20  F   UNL     1      -0.239  -8.379  -0.555  0.00  0.00    -0.205 F 
BRANCH  14  21
ATOM     21  O   UNL     1      -0.246  -4.106  -2.613  0.00  0.00    -0.506 OA
ATOM     22  H   UNL     1       0.626  -3.901  -2.977  0.00  0.00    +0.292 HD
ENDBRANCH  14  21
ENDBRANCH   2  13
TORSDOF 3
