REMARK  Name = ZINC41584432
REMARK  14 active torsions:
REMARK  status: ('A' for Active; 'I' for Inactive)
REMARK    1  A    between atoms: C_1  and  C_2
REMARK    2  A    between atoms: C_2  and  C_3
REMARK    3  A    between atoms: C_3  and  N_4
REMARK    4  A    between atoms: N_4  and  C_5
REMARK    5  A    between atoms: N_4  and  C_8
REMARK    6  A    between atoms: C_5  and  C_6
REMARK    7  A    between atoms: C_6  and  C_7
REMARK    8  A    between atoms: C_8  and  C_9
REMARK    9  A    between atoms: C_10  and  O_31
REMARK   10  A    between atoms: C_12  and  C_30
REMARK   11  A    between atoms: C_17  and  C_18
REMARK   12  A    between atoms: C_21  and  C_24
REMARK   13  A    between atoms: C_24  and  O_26
REMARK   14  A    between atoms: O_26  and  C_27
REMARK                            x       y       z     vdW  Elec       q    Type
REMARK                         _______ _______ _______ _____ _____    ______ ____
ROOT
ATOM      1  C   UNL     1       3.505  -1.893  -2.131  0.00  0.00    +0.020 A 
ATOM      2  C   UNL     1       3.971  -0.780  -2.814  0.00  0.00    +0.122 A 
ATOM      3  C   UNL     1       5.288  -0.357  -2.662  0.00  0.00    +0.050 A 
ATOM      4  C   UNL     1       6.137  -1.037  -1.835  0.00  0.00    -0.033 A 
ATOM      5  C   UNL     1       5.681  -2.158  -1.141  0.00  0.00    +0.071 A 
ATOM      6  C   UNL     1       4.353  -2.592  -1.282  0.00  0.00    +0.145 A 
ATOM      7  O   UNL     1       4.145  -3.684  -0.513  0.00  0.00    -0.451 OA
ATOM      8  C   UNL     1       5.258  -4.041   0.168  0.00  0.00    +0.176 C 
ATOM      9  C   UNL     1       5.375  -5.088   1.020  0.00  0.00    +0.058 C 
ATOM     10  C   UNL     1       6.324  -3.089  -0.196  0.00  0.00    +0.232 C 
ATOM     11  O   UNL     1       7.475  -3.069   0.205  0.00  0.00    -0.283 OA
ATOM     12  C   UNL     1       7.563  -0.577  -1.673  0.00  0.00    +0.045 C 
ENDROOT
BRANCH   9  13
ATOM     13  C   UNL     1       6.596  -5.250   1.822  0.00  0.00    -0.021 A 
ATOM     14  C   UNL     1       7.223  -4.128   2.378  0.00  0.00    +0.009 A 
ATOM     15  C   UNL     1       8.362  -4.281   3.126  0.00  0.00    +0.015 A 
ATOM     16  C   UNL     1       8.896  -5.555   3.335  0.00  0.00    +0.059 A 
ATOM     17  C   UNL     1       8.271  -6.676   2.781  0.00  0.00    +0.015 A 
ATOM     18  C   UNL     1       7.130  -6.527   2.036  0.00  0.00    +0.009 A 
BRANCH  16  19
ATOM     19  C   UNL     1      10.123  -5.718   4.141  0.00  0.00    +0.339 C 
ATOM     20  O   UNL     1      10.667  -4.744   4.622  0.00  0.00    -0.245 OA
BRANCH  19  21
ATOM     21  O   UNL     1      10.639  -6.946   4.343  0.00  0.00    -0.464 OA
ATOM     22  C   UNL     1      11.827  -7.029   5.132  0.00  0.00    +0.280 C 
ENDBRANCH  19  21
ENDBRANCH  16  19
ENDBRANCH   9  13
BRANCH   2  23
ATOM     23  O   UNL     1       3.136  -0.099  -3.638  0.00  0.00    -0.506 OA
ATOM     24  H   UNL     1       2.650   0.615  -3.203  0.00  0.00    +0.292 HD
ENDBRANCH   2  23
BRANCH   1  25
ATOM     25  C   UNL     1       2.076  -2.340  -2.304  0.00  0.00    -0.036 C 
BRANCH  25  26
ATOM     26  N   UNL     1       1.229  -1.670  -1.307  0.00  0.00    +0.383 N 
ATOM     27  H   UNL     1       1.596  -1.844  -0.384  0.00  0.00    -0.081 HD
BRANCH  26  28
ATOM     28  C   UNL     1       1.219  -0.224  -1.566  0.00  0.00    -0.079 C 
BRANCH  28  30
ATOM     29  C   UNL     1       0.528   1.999  -0.659  0.00  0.00    +0.002 C 
ATOM     30  C   UNL     1       0.426   0.485  -0.466  0.00  0.00    -0.022 C 
ENDBRANCH  28  30
ENDBRANCH  26  28
BRANCH  26  31
ATOM     31  C   UNL     1      -0.140  -2.194  -1.397  0.00  0.00    -0.079 C 
BRANCH  31  32
ATOM     32  C   UNL     1      -0.151  -3.667  -0.985  0.00  0.00    -0.022 C 
ATOM     33  C   UNL     1      -1.593  -4.176  -0.949  0.00  0.00    +0.002 C 
ENDBRANCH  31  32
ENDBRANCH  26  31
ENDBRANCH  25  26
ENDBRANCH   1  25
TORSDOF 10
