REMARK  Name = ZINC04236479
REMARK  9 active torsions:
REMARK  status: ('A' for Active; 'I' for Inactive)
REMARK    1  A    between atoms: C_1  and  C_2
REMARK    2  A    between atoms: C_2  and  C_3
REMARK    3  A    between atoms: C_2  and  C_4
REMARK    4  A    between atoms: C_4  and  C_5
REMARK    5  A    between atoms: C_5  and  N_55
REMARK    6  A    between atoms: C_6  and  N_55
REMARK    7  A    between atoms: C_16  and  O_18
REMARK    8  A    between atoms: O_18  and  C_19
REMARK    9  A    between atoms: N_21  and  C_22
REMARK                            x       y       z     vdW  Elec       q    Type
REMARK                         _______ _______ _______ _____ _____    ______ ____
ROOT
ATOM      1  C   UNL     1       1.372   1.527  -0.035  0.00  0.00    -0.014 C 
ATOM      2  C   UNL     1       1.409   2.883   0.702  0.00  0.00    +0.147 C 
ATOM      3  O   UNL     1       2.675   2.892   1.396  0.00  0.00    -0.372 OA
ATOM      4  C   UNL     1       2.841   1.556   1.915  0.00  0.00    +0.188 C 
ATOM      5  C   UNL     1       2.320   0.625   0.783  0.00  0.00    +0.139 C 
ATOM      6  O   UNL     1       3.485   0.332  -0.016  0.00  0.00    -0.372 OA
ATOM      7  C   UNL     1       4.564   0.145   0.924  0.00  0.00    +0.207 C 
ATOM      8  C   UNL     1       4.350   1.240   1.992  0.00  0.00    +0.235 C 
ENDROOT
BRANCH   1   9
ATOM      9  N   UNL     1       0.006   0.970  -0.025  0.00  0.00    +0.384 N 
ATOM     10  H   UNL     1       0.057  -0.053  -0.093  0.00  0.00    -0.085 HD
ATOM     11  H   UNL     1      -0.460   1.233   0.851  0.00  0.00    -0.085 HD
BRANCH   9  12
ATOM     12  C   UNL     1      -0.769   1.495  -1.166  0.00  0.00    -0.082 C 
BRANCH  12  13
ATOM     13  C   UNL     1      -2.178   0.901  -1.129  0.00  0.00    -0.016 C 
BRANCH  13  15
ATOM     14  C   UNL     1      -2.375   0.945  -3.620  0.00  0.00    +0.007 C 
ATOM     15  C   UNL     1      -2.990   1.441  -2.309  0.00  0.00    -0.019 C 
ATOM     16  C   UNL     1      -4.434   0.946  -2.204  0.00  0.00    +0.007 C 
ENDBRANCH  13  15
ENDBRANCH  12  13
ENDBRANCH   9  12
ENDBRANCH   1   9
BRANCH   8  17
ATOM     17  O   UNL     1       5.134   2.421   1.676  0.00  0.00    -0.442 OA
BRANCH  17  18
ATOM     18  C   UNL     1       6.340   2.529   2.263  0.00  0.00    +0.405 C 
ATOM     19  O   UNL     1       6.729   1.660   3.019  0.00  0.00    -0.226 OA
ATOM     20  N   UNL     1       7.118   3.601   2.013  0.00  0.00    -0.251 N 
ATOM     21  H   UNL     1       6.838   4.261   1.361  0.00  0.00    +0.158 HD
BRANCH  20  22
ATOM     22  C   UNL     1       8.328   3.760   2.693  0.00  0.00    +0.044 A 
ATOM     23  C   UNL     1       9.087   2.660   3.028  0.00  0.00    +0.024 A 
ATOM     24  C   UNL     1      10.296   2.808   3.700  0.00  0.00    +0.002 A 
ATOM     25  C   UNL     1      10.757   4.039   4.056  0.00  0.00    +0.008 A 
ATOM     26  C   UNL     1      10.010   5.186   3.739  0.00  0.00    -0.016 A 
ATOM     27  C   UNL     1       8.780   5.048   3.049  0.00  0.00    +0.003 A 
ATOM     28  C   UNL     1       8.035   6.195   2.731  0.00  0.00    +0.010 A 
ATOM     29  C   UNL     1       8.503   7.423   3.090  0.00  0.00    +0.001 A 
ATOM     30  C   UNL     1       9.712   7.559   3.769  0.00  0.00    +0.001 A 
ATOM     31  C   UNL     1      10.460   6.470   4.093  0.00  0.00    +0.008 A 
ENDBRANCH  20  22
ENDBRANCH  17  18
ENDBRANCH   8  17
TORSDOF 7
