REMARK  Name = ZINC20285563
REMARK  8 active torsions:
REMARK  status: ('A' for Active; 'I' for Inactive)
REMARK    1  A    between atoms: C_1  and  C_2
REMARK    2  A    between atoms: C_2  and  C_3
REMARK    3  A    between atoms: C_7  and  N_9
REMARK    4  A    between atoms: C_11  and  S_22
REMARK    5  A    between atoms: C_17  and  O_20
REMARK    6  A    between atoms: O_20  and  C_21
REMARK    7  A    between atoms: S_22  and  C_25
REMARK    8  A    between atoms: C_28  and  C_31
REMARK                            x       y       z     vdW  Elec       q    Type
REMARK                         _______ _______ _______ _____ _____    ______ ____
ROOT
ATOM      1  N   UNL     1      -4.725   3.853   0.067  0.00  0.00    -0.324 N 
ATOM      2  C   UNL     1      -3.600   3.166   0.048  0.00  0.00    +0.225 A 
ATOM      3  C   UNL     1      -3.655   1.752   0.049  0.00  0.00    +0.154 A 
ATOM      4  C   UNL     1      -2.506   1.034   0.030  0.00  0.00    +0.044 A 
ATOM      5  C   UNL     1      -1.231   1.762   0.003  0.00  0.00    +0.023 A 
ATOM      6  C   UNL     1      -0.012   1.077  -0.012  0.00  0.00    +0.012 A 
ATOM      7  C   UNL     1       1.169   1.785  -0.032  0.00  0.00    +0.004 A 
ATOM      8  C   UNL     1       1.156   3.172  -0.031  0.00  0.00    +0.049 A 
ATOM      9  C   UNL     1      -0.042   3.864  -0.011  0.00  0.00    +0.163 A 
ATOM     10  C   UNL     1      -1.247   3.166   0.010  0.00  0.00    +0.179 A 
ATOM     11  O   UNL     1      -2.427   3.826   0.029  0.00  0.00    -0.434 OA
ATOM     12  H   UNL     1      -5.690   3.331  -0.006  0.00  0.00    +0.169 HD
ENDROOT
BRANCH   1  17
ATOM     13  C   UNL     1      -4.703   7.386  -0.853  0.00  0.00    -0.046 A 
ATOM     14  C   UNL     1      -4.626   7.975   0.397  0.00  0.00    +0.004 A 
ATOM     15  C   UNL     1      -4.581   7.191   1.537  0.00  0.00    +0.002 A 
ATOM     16  C   UNL     1      -4.620   5.816   1.435  0.00  0.00    +0.026 A 
ATOM     17  C   UNL     1      -4.692   5.215   0.176  0.00  0.00    +0.042 A 
ATOM     18  C   UNL     1      -4.737   6.013  -0.971  0.00  0.00    +0.029 A 
BRANCH  13  20
ATOM     19  C   UNL     1      -6.207   8.568  -2.431  0.00  0.00    +0.009 C 
ATOM     20  C   UNL     1      -4.751   8.248  -2.088  0.00  0.00    +0.032 C 
ENDBRANCH  13  20
ENDBRANCH   1  17
BRANCH   3  21
ATOM     21  S   UNL     1      -5.212   0.928   0.073  0.00  0.00    +0.030 S 
ATOM     22  O   UNL     1      -5.481   0.609   1.432  0.00  0.00    -0.164 OA
ATOM     23  O   UNL     1      -6.098   1.710  -0.715  0.00  0.00    -0.164 OA
BRANCH  21  24
ATOM     24  C   UNL     1      -5.003  -0.604  -0.772  0.00  0.00    +0.094 A 
ATOM     25  C   UNL     1      -5.224  -0.677  -2.135  0.00  0.00    +0.027 A 
ATOM     26  C   UNL     1      -5.057  -1.877  -2.799  0.00  0.00    +0.005 A 
ATOM     27  C   UNL     1      -4.678  -3.007  -2.099  0.00  0.00    -0.050 A 
ATOM     28  C   UNL     1      -4.462  -2.936  -0.735  0.00  0.00    +0.005 A 
ATOM     29  C   UNL     1      -4.625  -1.734  -0.072  0.00  0.00    +0.027 A 
ATOM     30  C   UNL     1      -4.500  -4.318  -2.822  0.00  0.00    +0.044 C 
ENDBRANCH  21  24
ENDBRANCH   3  21
BRANCH   9  31
ATOM     31  O   UNL     1      -0.043   5.224  -0.009  0.00  0.00    -0.491 OA
ATOM     32  C   UNL     1       1.230   5.874  -0.030  0.00  0.00    +0.277 C 
ENDBRANCH   9  31
TORSDOF 5
