REMARK  Name = ZINC03064536
REMARK  9 active torsions:
REMARK  status: ('A' for Active; 'I' for Inactive)
REMARK    1  A    between atoms: C_1  and  C_2
REMARK    2  A    between atoms: C_2  and  O_3
REMARK    3  A    between atoms: O_3  and  C_4
REMARK    4  A    between atoms: C_7  and  C_27
REMARK    5  A    between atoms: C_9  and  C_10
REMARK    6  A    between atoms: C_10  and  N_11
REMARK    7  A    between atoms: N_28  and  N_29
REMARK    8  A    between atoms: C_30  and  C_32
REMARK    9  A    between atoms: C_32  and  C_33
REMARK                            x       y       z     vdW  Elec       q    Type
REMARK                         _______ _______ _______ _____ _____    ______ ____
ROOT
ATOM      1  C   UNL     1      -2.426   2.752   8.284  0.00  0.00    +0.122 A 
ATOM      2  C   UNL     1      -2.919   3.090   7.030  0.00  0.00    +0.046 A 
ATOM      3  C   UNL     1      -2.277   2.648   5.894  0.00  0.00    +0.013 A 
ATOM      4  C   UNL     1      -1.129   1.859   6.004  0.00  0.00    -0.005 A 
ATOM      5  C   UNL     1      -0.640   1.518   7.268  0.00  0.00    +0.014 A 
ATOM      6  C   UNL     1      -1.286   1.968   8.399  0.00  0.00    -0.022 A 
ENDROOT
BRANCH   4   7
ATOM      7  C   UNL     1      -0.439   1.384   4.791  0.00  0.00    +0.138 C 
ATOM      8  N   UNL     1      -0.897   1.698   3.618  0.00  0.00    -0.188 NA
BRANCH   8   9
ATOM      9  N   UNL     1      -0.242   1.246   2.466  0.00  0.00    -0.207 N 
ATOM     10  C   UNL     1      -0.718   1.572   1.248  0.00  0.00    +0.237 C 
ATOM     11  O   UNL     1      -1.715   2.256   1.150  0.00  0.00    -0.274 OA
ATOM     12  H   UNL     1       0.662   0.625   2.555  0.00  0.00    +0.177 HD
BRANCH  10  13
ATOM     13  C   UNL     1      -0.013   1.086   0.008  0.00  0.00    +0.132 C 
BRANCH  13  14
ATOM     14  C   UNL     1      -0.742   1.585  -1.213  0.00  0.00    -0.038 A 
ATOM     15  C   UNL     1      -1.750   0.824  -1.775  0.00  0.00    +0.007 A 
ATOM     16  C   UNL     1      -2.422   1.283  -2.891  0.00  0.00    +0.038 A 
ATOM     17  C   UNL     1      -2.079   2.501  -3.454  0.00  0.00    +0.123 A 
ATOM     18  C   UNL     1      -1.065   3.260  -2.893  0.00  0.00    +0.038 A 
ATOM     19  C   UNL     1      -0.398   2.801  -1.774  0.00  0.00    +0.007 A 
ATOM     20  F   UNL     1      -2.732   2.948  -4.548  0.00  0.00    -0.205 F 
ENDBRANCH  13  14
ENDBRANCH  10  13
ENDBRANCH   8   9
ENDBRANCH   4   7
BRANCH   1  21
ATOM     21  O   UNL     1      -3.062   3.190   9.402  0.00  0.00    -0.492 OA
BRANCH  21  23
ATOM     22  C   UNL     1      -4.804   4.387  10.574  0.00  0.00    +0.048 C 
ATOM     23  C   UNL     1      -4.230   3.992   9.212  0.00  0.00    +0.225 C 
ENDBRANCH  21  23
ENDBRANCH   1  21
BRANCH   6  24
ATOM     24  C   UNL     1      -0.756   1.605   9.762  0.00  0.00    -0.039 C 
BRANCH  24  25
ATOM     25  N   UNL     1      -1.536   0.486  10.308  0.00  0.00    +0.383 N 
ATOM     26  C   UNL     1      -2.959   0.829  10.392  0.00  0.00    -0.073 C 
ATOM     27  C   UNL     1      -3.762  -0.306  11.010  0.00  0.00    -0.007 C 
ATOM     28  C   UNL     1      -3.539  -1.612  10.242  0.00  0.00    +0.011 C 
ATOM     29  C   UNL     1      -2.033  -1.896  10.242  0.00  0.00    +0.020 C 
ATOM     30  C   UNL     1      -1.330  -0.736   9.516  0.00  0.00    -0.069 C 
ATOM     31  C   UNL     1      -1.529  -1.911  11.667  0.00  0.00    +0.023 A 
ATOM     32  C   UNL     1      -0.425  -2.658  11.932  0.00  0.00    +0.022 A 
ATOM     33  C   UNL     1       0.135  -2.671  13.214  0.00  0.00    +0.007 A 
ATOM     34  C   UNL     1      -0.434  -1.904  14.189  0.00  0.00    +0.070 A 
ATOM     35  C   UNL     1      -1.574  -1.147  13.883  0.00  0.00    +0.251 A 
ATOM     36  O   UNL     1      -2.062  -0.422  14.734  0.00  0.00    -0.268 OA
ATOM     37  N   UNL     1      -2.140  -1.211  12.652  0.00  0.00    -0.312 N 
ATOM     38  C   UNL     1      -3.414  -0.515  12.473  0.00  0.00    +0.126 C 
ATOM     39  H   UNL     1      -1.180   0.292  11.331  0.00  0.00    -0.081 HD
ENDBRANCH  24  25
ENDBRANCH   6  24
TORSDOF 8
