REMARK  Name = ZINC31193650
REMARK  11 active torsions:
REMARK  status: ('A' for Active; 'I' for Inactive)
REMARK    1  A    between atoms: C_1  and  C_2
REMARK    2  A    between atoms: C_2  and  N_3
REMARK    3  A    between atoms: N_3  and  C_4
REMARK    4  A    between atoms: N_3  and  C_6
REMARK    5  A    between atoms: C_4  and  C_5
REMARK    6  A    between atoms: C_6  and  C_8
REMARK    7  A    between atoms: C_6  and  C_28
REMARK    8  A    between atoms: C_8  and  N_9
REMARK    9  A    between atoms: N_15  and  C_18
REMARK   10  A    between atoms: C_21  and  C_25
REMARK   11  A    between atoms: C_25  and  C_27
REMARK                            x       y       z     vdW  Elec       q    Type
REMARK                         _______ _______ _______ _____ _____    ______ ____
ROOT
ATOM      1  N   UNL     1      -1.541  -1.340  -0.810  0.00  0.00    -0.300 N 
ATOM      2  C   UNL     1      -2.875  -1.507  -0.903  0.00  0.00    +0.302 C 
ATOM      3  O   UNL     1      -3.337  -2.256  -1.742  0.00  0.00    -0.253 OA
ATOM      4  N   UNL     1      -3.697  -0.844  -0.066  0.00  0.00    -0.283 N 
ATOM      5  C   UNL     1      -5.143  -1.108  -0.071  0.00  0.00    +0.128 C 
ATOM      6  C   UNL     1      -5.578  -1.486   1.350  0.00  0.00    +0.124 C 
ATOM      7  N   UNL     1      -5.044  -0.485   2.286  0.00  0.00    -0.325 N 
ATOM      8  C   UNL     1      -3.599  -0.221   2.292  0.00  0.00    +0.124 C 
ATOM      9  C   UNL     1      -3.163   0.152   0.874  0.00  0.00    +0.128 C 
ATOM     10  H   UNL     1      -1.168  -0.803  -0.093  0.00  0.00    +0.150 HD
ENDROOT
BRANCH   7  11
ATOM     11  C   UNL     1      -5.892   0.199   3.149  0.00  0.00    +0.065 A 
ATOM     12  C   UNL     1      -6.158  -0.317   4.415  0.00  0.00    +0.027 A 
ATOM     13  C   UNL     1      -6.989   0.349   5.269  0.00  0.00    +0.013 A 
ATOM     14  C   UNL     1      -7.579   1.556   4.874  0.00  0.00    +0.020 A 
ATOM     15  C   UNL     1      -7.314   2.078   3.601  0.00  0.00    +0.051 A 
ATOM     16  C   UNL     1      -6.471   1.403   2.748  0.00  0.00    +0.145 A 
ATOM     17  F   UNL     1      -6.207   1.904   1.521  0.00  0.00    -0.204 F 
BRANCH  14  18
ATOM     18  C   UNL     1      -8.473   2.273   5.792  0.00  0.00    +0.160 C 
ATOM     19  O   UNL     1      -8.702   1.819   6.893  0.00  0.00    -0.292 OA
ATOM     20  C   UNL     1      -9.107   3.571   5.365  0.00  0.00    +0.091 C 
ENDBRANCH  14  18
ENDBRANCH   7  11
BRANCH   1  21
ATOM     21  C   UNL     1      -0.654  -1.969  -1.791  0.00  0.00    +0.095 C 
BRANCH  21  22
ATOM     22  C   UNL     1       0.778  -1.474  -1.576  0.00  0.00    -0.020 C 
BRANCH  22  23
ATOM     23  C   UNL     1       1.748  -2.501  -2.101  0.00  0.00    -0.052 A 
ATOM     24  C   UNL     1       2.437  -3.324  -1.230  0.00  0.00    +0.009 A 
ATOM     25  C   UNL     1       3.303  -4.236  -1.735  0.00  0.00    +0.045 A 
ATOM     26  S   UNL     1       3.162  -3.948  -3.491  0.00  0.00    -0.105 S 
ATOM     27  C   UNL     1       1.955  -2.634  -3.434  0.00  0.00    +0.047 A 
ENDBRANCH  22  23
BRANCH  22  28
ATOM     28  N   UNL     1       0.970  -0.207  -2.294  0.00  0.00    +0.385 N 
ATOM     29  H   UNL     1       0.929  -0.373  -3.288  0.00  0.00    -0.081 HD
BRANCH  28  31
ATOM     30  C   UNL     1       0.105   2.054  -2.668  0.00  0.00    -0.017 C 
ATOM     31  C   UNL     1      -0.088   0.738  -1.911  0.00  0.00    -0.081 C 
ENDBRANCH  28  31
BRANCH  28  32
ATOM     32  C   UNL     1       2.280   0.359  -1.945  0.00  0.00    -0.081 C 
ATOM     33  C   UNL     1       3.387  -0.513  -2.541  0.00  0.00    -0.017 C 
ENDBRANCH  28  32
ENDBRANCH  22  28
ENDBRANCH  21  22
ENDBRANCH   1  21
TORSDOF 8
