REMARK  Name = ZINC35867563
REMARK  9 active torsions:
REMARK  status: ('A' for Active; 'I' for Inactive)
REMARK    1  A    between atoms: C_1  and  C_2
REMARK    2  A    between atoms: C_2  and  C_3
REMARK    3  A    between atoms: C_3  and  C_4
REMARK    4  A    between atoms: C_4  and  N_5
REMARK    5  A    between atoms: C_21  and  C_23
REMARK    6  A    between atoms: C_23  and  C_24
REMARK    7  A    between atoms: C_24  and  C_25
REMARK    8  A    between atoms: C_24  and  C_26
REMARK    9  A    between atoms: C_28  and  C_32
REMARK                            x       y       z     vdW  Elec       q    Type
REMARK                         _______ _______ _______ _____ _____    ______ ____
ROOT
ATOM      1  N   UNL     1       3.640  -2.688  -1.158  0.00  0.00    -0.299 N 
ATOM      2  C   UNL     1       2.972  -2.713  -2.329  0.00  0.00    +0.302 C 
ATOM      3  O   UNL     1       1.790  -2.431  -2.360  0.00  0.00    -0.253 OA
ATOM      4  N   UNL     1       3.615  -3.050  -3.464  0.00  0.00    -0.283 N 
ATOM      5  C   UNL     1       5.012  -3.506  -3.426  0.00  0.00    +0.128 C 
ATOM      6  C   UNL     1       5.099  -4.875  -4.112  0.00  0.00    +0.125 C 
ATOM      7  N   UNL     1       4.416  -4.793  -5.411  0.00  0.00    -0.312 N 
ATOM      8  C   UNL     1       3.020  -4.337  -5.450  0.00  0.00    +0.125 C 
ATOM      9  C   UNL     1       2.930  -2.974  -4.762  0.00  0.00    +0.128 C 
ATOM     10  C   UNL     1       5.076  -5.139  -6.577  0.00  0.00    +0.133 A 
ATOM     11  C   UNL     1       5.130  -6.497  -6.998  0.00  0.00    +0.051 A 
ATOM     12  C   UNL     1       4.561  -7.681  -6.353  0.00  0.00    -0.025 A 
ATOM     13  C   UNL     1       4.758  -8.866  -6.965  0.00  0.00    -0.004 A 
ATOM     14  S   UNL     1       5.698  -8.485  -8.419  0.00  0.00    -0.073 S 
ATOM     15  C   UNL     1       5.828  -6.729  -8.200  0.00  0.00    +0.114 A 
ATOM     16  N   UNL     1       6.388  -5.743  -8.874  0.00  0.00    -0.225 NA
ATOM     17  C   UNL     1       6.305  -4.503  -8.433  0.00  0.00    +0.133 A 
ATOM     18  N   UNL     1       5.660  -4.211  -7.317  0.00  0.00    -0.217 NA
ATOM     19  C   UNL     1       4.282 -10.212  -6.511  0.00  0.00    +0.046 C 
ATOM     20  C   UNL     1       3.850 -10.104  -5.042  0.00  0.00    -0.009 C 
ATOM     21  C   UNL     1       2.949  -8.875  -4.886  0.00  0.00    +0.008 C 
ATOM     22  C   UNL     1       3.778  -7.600  -5.045  0.00  0.00    +0.037 C 
ATOM     23  C   UNL     1       3.080 -11.363  -4.639  0.00  0.00    +0.008 C 
ATOM     24  H   UNL     1       4.563  -2.982  -1.120  0.00  0.00    +0.150 HD
ENDROOT
BRANCH   1  25
ATOM     25  C   UNL     1       2.971  -2.217   0.057  0.00  0.00    +0.106 C 
BRANCH  25  26
ATOM     26  C   UNL     1       3.943  -2.290   1.236  0.00  0.00    +0.018 C 
BRANCH  26  28
ATOM     27  C   UNL     1       4.217  -1.872   3.684  0.00  0.00    +0.004 C 
ATOM     28  C   UNL     1       3.245  -1.798   2.505  0.00  0.00    -0.002 C 
ENDBRANCH  26  28
ENDBRANCH  25  26
ENDBRANCH   1  25
BRANCH  17  29
ATOM     29  C   UNL     1       6.953  -3.395  -9.221  0.00  0.00    +0.079 C 
BRANCH  29  30
ATOM     30  C   UNL     1       5.952  -2.836 -10.234  0.00  0.00    -0.010 C 
ATOM     31  C   UNL     1       6.567  -1.631 -10.948  0.00  0.00    +0.007 C 
ATOM     32  C   UNL     1       5.608  -3.917 -11.261  0.00  0.00    +0.007 C 
ENDBRANCH  29  30
ENDBRANCH  17  29
TORSDOF 5
