REMARK  Name = ZINC14477182
REMARK  6 active torsions:
REMARK  status: ('A' for Active; 'I' for Inactive)
REMARK    1  A    between atoms: C_1  and  C_2
REMARK    2  A    between atoms: C_2  and  C_3
REMARK    3  A    between atoms: C_2  and  C_4
REMARK    4  A    between atoms: C_4  and  O_5
REMARK    5  A    between atoms: O_5  and  C_6
REMARK    6  A    between atoms: C_13  and  C_22
REMARK                            x       y       z     vdW  Elec       q    Type
REMARK                         _______ _______ _______ _____ _____    ______ ____
ROOT
ATOM      1  C   UNL     1      -3.500  -2.255   1.337  0.00  0.00    +0.142 A 
ATOM      2  C   UNL     1      -4.622  -3.064   1.352  0.00  0.00    +0.047 A 
ATOM      3  C   UNL     1      -5.672  -2.795   0.493  0.00  0.00    +0.004 A 
ATOM      4  C   UNL     1      -5.598  -1.724  -0.373  0.00  0.00    +0.006 A 
ATOM      5  C   UNL     1      -4.476  -0.904  -0.397  0.00  0.00    -0.016 A 
ATOM      6  C   UNL     1      -3.424  -1.170   0.459  0.00  0.00    +0.074 A 
ATOM      7  N   UNL     1      -2.267  -0.387   0.483  0.00  0.00    -0.334 N 
ATOM      8  C   UNL     1      -2.514   0.979   0.019  0.00  0.00    +0.106 C 
ATOM      9  C   UNL     1      -3.087   0.939  -1.399  0.00  0.00    +0.029 C 
ATOM     10  C   UNL     1      -4.465   0.244  -1.362  0.00  0.00    +0.049 C 
ATOM     11  C   UNL     1      -5.413   1.331  -0.911  0.00  0.00    -0.023 C 
ATOM     12  C   UNL     1      -4.895   2.513  -1.133  0.00  0.00    -0.030 C 
ATOM     13  C   UNL     1      -3.528   2.382  -1.774  0.00  0.00    +0.033 C 
ATOM     14  H   UNL     1      -1.526  -0.821  -0.048  0.00  0.00    +0.147 HD
ENDROOT
BRANCH   8  15
ATOM     15  C   UNL     1      -1.219   1.750   0.017  0.00  0.00    -0.007 A 
ATOM     16  C   UNL     1      -0.557   1.985  -1.173  0.00  0.00    +0.007 A 
ATOM     17  C   UNL     1       0.628   2.698  -1.176  0.00  0.00    +0.002 A 
ATOM     18  C   UNL     1       1.154   3.171   0.011  0.00  0.00    +0.021 A 
ATOM     19  C   UNL     1       0.496   2.932   1.204  0.00  0.00    +0.060 A 
ATOM     20  C   UNL     1      -0.691   2.218   1.207  0.00  0.00    +0.064 A 
ATOM     21 CL   UNL     1      -1.520   1.917   2.703  0.00  0.00    -0.082 Cl
ATOM     22 CL   UNL     1       1.156   3.526   2.695  0.00  0.00    -0.082 Cl
ENDBRANCH   8  15
BRANCH   1  23
ATOM     23  O   UNL     1      -2.466  -2.517   2.181  0.00  0.00    -0.490 OA
BRANCH  23  24
ATOM     24  C   UNL     1      -2.608  -3.640   3.053  0.00  0.00    +0.232 C 
BRANCH  24  26
ATOM     25  C   UNL     1      -1.239  -2.559   4.842  0.00  0.00    +0.010 C 
ATOM     26  C   UNL     1      -1.355  -3.775   3.920  0.00  0.00    +0.020 C 
ATOM     27  C   UNL     1      -1.453  -5.048   4.764  0.00  0.00    +0.010 C 
ENDBRANCH  24  26
ENDBRANCH  23  24
ENDBRANCH   1  23
TORSDOF 4
