REMARK  Name = ZINC13501075
REMARK  13 active torsions:
REMARK  status: ('A' for Active; 'I' for Inactive)
REMARK    1  A    between atoms: C_1  and  C_2
REMARK    2  A    between atoms: C_2  and  C_3
REMARK    3  A    between atoms: C_3  and  C_5
REMARK    4  A    between atoms: C_3  and  N_73
REMARK    5  A    between atoms: N_9  and  C_10
REMARK    6  A    between atoms: C_10  and  C_11
REMARK    7  A    between atoms: C_14  and  O_17
REMARK    8  A    between atoms: O_17  and  C_18
REMARK    9  A    between atoms: C_19  and  C_20
REMARK   10  A    between atoms: C_19  and  N_73
REMARK   11  A    between atoms: C_24  and  C_33
REMARK   12  A    between atoms: C_26  and  C_32
REMARK   13  A    between atoms: C_34  and  N_73
REMARK                            x       y       z     vdW  Elec       q    Type
REMARK                         _______ _______ _______ _____ _____    ______ ____
ROOT
ATOM      1  N   UNL     1      -1.375   7.972  -1.132  0.00  0.00    +0.391 N 
ATOM      2  H   UNL     1      -0.883   7.241  -1.659  0.00  0.00    -0.080 HD
ENDROOT
BRANCH   1   3
ATOM      3  C   UNL     1      -2.832   7.777  -1.287  0.00  0.00    -0.067 C 
ATOM      4  C   UNL     1      -3.606   8.446  -0.132  0.00  0.00    -0.015 C 
ATOM      5  C   UNL     1      -4.772   7.468   0.161  0.00  0.00    -0.002 C 
ATOM      6  C   UNL     1      -4.109   6.081  -0.023  0.00  0.00    -0.002 C 
ATOM      7  C   UNL     1      -3.152   6.273  -1.218  0.00  0.00    -0.015 C 
ENDBRANCH   1   3
BRANCH   1   8
ATOM      8  C   UNL     1      -0.983   9.294  -1.665  0.00  0.00    +0.003 C 
BRANCH   8   9
ATOM      9  C   UNL     1      -1.318  10.381  -0.676  0.00  0.00    +0.138 A 
ATOM     10  N   UNL     1      -2.455  10.540  -0.043  0.00  0.00    -0.115 NA
ATOM     11  N   UNL     1      -2.347  11.579   0.712  0.00  0.00    -0.023 NA
ATOM     12  N   UNL     1      -1.174  12.090   0.572  0.00  0.00    -0.044 NA
ATOM     13  N   UNL     1      -0.509  11.380  -0.276  0.00  0.00    -0.226 N 
BRANCH  13  14
ATOM     14  C   UNL     1       0.867  11.617  -0.719  0.00  0.00    +0.182 C 
BRANCH  14  15
ATOM     15  C   UNL     1       0.856  12.512  -1.931  0.00  0.00    -0.026 A 
ATOM     16  C   UNL     1       0.793  11.960  -3.197  0.00  0.00    +0.009 A 
ATOM     17  C   UNL     1       0.778  12.780  -4.309  0.00  0.00    +0.046 A 
ATOM     18  C   UNL     1       0.838  14.157  -4.155  0.00  0.00    +0.120 A 
ATOM     19  C   UNL     1       0.906  14.708  -2.884  0.00  0.00    +0.046 A 
ATOM     20  C   UNL     1       0.915  13.885  -1.775  0.00  0.00    +0.009 A 
BRANCH  18  21
ATOM     21  O   UNL     1       0.828  14.965  -5.248  0.00  0.00    -0.495 OA
ATOM     22  C   UNL     1       0.756  14.328  -6.525  0.00  0.00    +0.277 C 
ENDBRANCH  18  21
ENDBRANCH  14  15
ENDBRANCH  13  14
ENDBRANCH   8   9
BRANCH   8  24
ATOM     23  C   UNL     1      -1.384   8.450  -3.982  0.00  0.00    +0.002 C 
ATOM     24  C   UNL     1      -1.728   9.550  -2.976  0.00  0.00    -0.011 C 
ENDBRANCH   8  24
ENDBRANCH   1   8
BRANCH   1  25
ATOM     25  C   UNL     1      -1.001   7.871   0.294  0.00  0.00    -0.036 C 
BRANCH  25  26
ATOM     26  C   UNL     1       0.489   7.666   0.390  0.00  0.00    +0.001 A 
ATOM     27  C   UNL     1       1.297   8.714   0.687  0.00  0.00    +0.017 A 
ATOM     28  C   UNL     1       2.740   8.482   0.772  0.00  0.00    -0.001 A 
ATOM     29  C   UNL     1       3.624   9.524   1.074  0.00  0.00    +0.013 A 
ATOM     30  C   UNL     1       4.965   9.275   1.145  0.00  0.00    -0.050 A 
ATOM     31  C   UNL     1       5.459   7.997   0.921  0.00  0.00    +0.008 A 
ATOM     32  C   UNL     1       4.608   6.957   0.616  0.00  0.00    -0.026 A 
ATOM     33  C   UNL     1       3.238   7.186   0.544  0.00  0.00    +0.052 A 
ATOM     34  N   UNL     1       2.363   6.163   0.245  0.00  0.00    -0.322 N 
ATOM     35  H   UNL     1       2.707   5.270   0.088  0.00  0.00    +0.169 HD
ATOM     36  C   UNL     1       1.039   6.385   0.170  0.00  0.00    +0.251 A 
ATOM     37  O   UNL     1       0.295   5.457  -0.096  0.00  0.00    -0.268 OA
ATOM     38  C   UNL     1       5.159   5.576   0.369  0.00  0.00    +0.046 C 
ATOM     39  C   UNL     1       5.917  10.397   1.471  0.00  0.00    +0.044 C 
ENDBRANCH  25  26
ENDBRANCH   1  25
TORSDOF 9
