REMARK  Name = ZINC12472866
REMARK  12 active torsions:
REMARK  status: ('A' for Active; 'I' for Inactive)
REMARK    1  A    between atoms: C_1  and  C_2
REMARK    2  A    between atoms: C_5  and  C_7
REMARK    3  A    between atoms: C_7  and  C_9
REMARK    4  A    between atoms: C_7  and  N_19
REMARK    5  A    between atoms: N_11  and  C_12
REMARK    6  A    between atoms: C_12  and  C_13
REMARK    7  A    between atoms: N_19  and  C_20
REMARK    8  A    between atoms: C_22  and  C_27
REMARK    9  A    between atoms: C_24  and  C_26
REMARK   10  A    between atoms: C_28  and  C_30
REMARK   11  A    between atoms: C_31  and  N_38
REMARK   12  A    between atoms: C_32  and  C_35
REMARK                            x       y       z     vdW  Elec       q    Type
REMARK                         _______ _______ _______ _____ _____    ______ ____
ROOT
ATOM      1  N   UNL     1      -1.054  -1.996  -0.981  0.00  0.00    -0.248 N 
ATOM      2  C   UNL     1      -1.384  -1.666  -2.245  0.00  0.00    +0.262 C 
ATOM      3  O   UNL     1      -2.299  -0.890  -2.453  0.00  0.00    -0.269 OA
ENDROOT
BRANCH   1   4
ATOM      4  C   UNL     1      -0.074  -2.965  -0.744  0.00  0.00    +0.038 A 
ATOM      5  C   UNL     1       1.244  -2.584  -0.528  0.00  0.00    +0.027 A 
ATOM      6  C   UNL     1       2.208  -3.544  -0.289  0.00  0.00    -0.048 A 
ATOM      7  C   UNL     1       1.864  -4.883  -0.276  0.00  0.00    +0.006 A 
ATOM      8  C   UNL     1       0.554  -5.266  -0.497  0.00  0.00    -0.048 A 
ATOM      9  C   UNL     1      -0.416  -4.311  -0.730  0.00  0.00    +0.027 A 
ATOM     10  C   UNL     1       0.184  -6.727  -0.482  0.00  0.00    +0.044 C 
ATOM     11  C   UNL     1       3.637  -3.131  -0.048  0.00  0.00    +0.044 C 
ENDBRANCH   1   4
BRANCH   2  12
ATOM     12  C   UNL     1      -0.643  -2.241  -3.369  0.00  0.00    +0.116 A 
ATOM     13  C   UNL     1      -0.780  -1.997  -4.737  0.00  0.00    +0.076 A 
ATOM     14  C   UNL     1       0.118  -2.740  -5.504  0.00  0.00    +0.155 A 
ATOM     15  N   UNL     1       0.953  -3.559  -4.904  0.00  0.00    -0.203 NA
ATOM     16  S   UNL     1       0.671  -3.443  -3.358  0.00  0.00    +0.019 S 
BRANCH  14  17
ATOM     17  C   UNL     1       0.125  -2.612  -6.973  0.00  0.00    +0.262 C 
ATOM     18  O   UNL     1      -0.650  -1.853  -7.521  0.00  0.00    -0.269 OA
ATOM     19  N   UNL     1       0.992  -3.337  -7.708  0.00  0.00    -0.324 N 
ATOM     20  H   UNL     1       1.611  -3.943  -7.270  0.00  0.00    +0.145 HD
ATOM     21  H   UNL     1       0.997  -3.253  -8.674  0.00  0.00    +0.145 HD
ENDBRANCH  14  17
BRANCH  13  22
ATOM     22  N   UNL     1      -1.706  -1.113  -5.274  0.00  0.00    -0.355 N 
ATOM     23  H   UNL     1      -2.304  -0.622  -4.689  0.00  0.00    +0.142 HD
ATOM     24  H   UNL     1      -1.755  -0.985  -6.234  0.00  0.00    +0.142 HD
ENDBRANCH  13  22
ENDBRANCH   2  12
BRANCH   1  25
ATOM     25  C   UNL     1      -1.722  -1.339   0.146  0.00  0.00    +0.233 C 
BRANCH  25  30
ATOM     26  C   UNL     1       2.279  -0.935   3.190  0.00  0.00    +0.086 C 
ATOM     27  C   UNL     1       1.053  -0.573   2.393  0.00  0.00    +0.102 A 
ATOM     28  C   UNL     1       0.492   0.647   2.322  0.00  0.00    +0.045 A 
ATOM     29  C   UNL     1      -0.629   0.534   1.468  0.00  0.00    +0.047 A 
ATOM     30  C   UNL     1      -0.687  -0.749   1.069  0.00  0.00    +0.135 A 
ATOM     31  O   UNL     1       0.335  -1.415   1.632  0.00  0.00    -0.462 OA
ENDBRANCH  25  30
BRANCH  25  32
ATOM     32  C   UNL     1      -2.548  -2.350   0.899  0.00  0.00    +0.242 C 
ATOM     33  O   UNL     1      -2.576  -3.505   0.531  0.00  0.00    -0.273 OA
ATOM     34  N   UNL     1      -3.256  -1.970   1.981  0.00  0.00    -0.309 N 
ATOM     35  H   UNL     1      -3.233  -1.046   2.276  0.00  0.00    +0.149 HD
BRANCH  34  36
ATOM     36  C   UNL     1      -4.059  -2.952   2.713  0.00  0.00    +0.139 C 
BRANCH  36  37
ATOM     37  C   UNL     1      -4.745  -2.276   3.872  0.00  0.00    -0.030 A 
ATOM     38  C   UNL     1      -4.124  -2.218   5.105  0.00  0.00    +0.005 A 
ATOM     39  C   UNL     1      -4.752  -1.594   6.167  0.00  0.00    +0.000 A 
ATOM     40  C   UNL     1      -6.006  -1.037   5.998  0.00  0.00    +0.000 A 
ATOM     41  C   UNL     1      -6.630  -1.101   4.766  0.00  0.00    +0.000 A 
ATOM     42  C   UNL     1      -6.000  -1.720   3.703  0.00  0.00    +0.005 A 
ENDBRANCH  36  37
ENDBRANCH  34  36
ENDBRANCH  25  32
ENDBRANCH   1  25
TORSDOF 9
