REMARK  Name = ZINC22519943
REMARK  8 active torsions:
REMARK  status: ('A' for Active; 'I' for Inactive)
REMARK    1  A    between atoms: C_1  and  C_2
REMARK    2  A    between atoms: C_2  and  C_4
REMARK    3  A    between atoms: C_2  and  S_14
REMARK    4  A    between atoms: N_6  and  C_7
REMARK    5  A    between atoms: C_8  and  C_12
REMARK    6  A    between atoms: S_14  and  C_15
REMARK    7  A    between atoms: N_19  and  C_20
REMARK    8  A    between atoms: C_20  and  C_21
REMARK                            x       y       z     vdW  Elec       q    Type
REMARK                         _______ _______ _______ _____ _____    ______ ____
ROOT
ATOM      1  C   UNL     1       1.342  -0.384   0.272  0.00  0.00    +0.194 A 
ATOM      2  N   UNL     1       2.072   0.645  -0.083  0.00  0.00    -0.121 NA
ATOM      3  N   UNL     1       1.211   1.725  -0.322  0.00  0.00    -0.112 NA
ATOM      4  C   UNL     1      -0.016   1.320  -0.106  0.00  0.00    +0.221 A 
ATOM      5  N   UNL     1       0.032   0.007   0.267  0.00  0.00    -0.283 N 
ATOM      6  N   UNL     1      -1.164   2.090  -0.237  0.00  0.00    -0.300 N 
ATOM      7  C   UNL     1      -1.903   1.729  -1.455  0.00  0.00    +0.108 C 
ATOM      8  C   UNL     1      -3.230   2.491  -1.492  0.00  0.00    +0.019 C 
ATOM      9  C   UNL     1      -2.950   3.996  -1.470  0.00  0.00    +0.003 C 
ATOM     10  C   UNL     1      -2.138   4.338  -0.217  0.00  0.00    +0.019 C 
ATOM     11  C   UNL     1      -0.843   3.523  -0.216  0.00  0.00    +0.108 C 
ENDROOT
BRANCH   1  12
ATOM     12  S   UNL     1       1.943  -1.988   0.682  0.00  0.00    -0.073 S 
BRANCH  12  14
ATOM     13  C   UNL     1       4.286  -0.861   1.531  0.00  0.00    +0.029 C 
ATOM     14  C   UNL     1       3.741  -1.845   0.494  0.00  0.00    +0.137 C 
BRANCH  14  15
ATOM     15  C   UNL     1       4.377  -3.196   0.699  0.00  0.00    +0.231 C 
ATOM     16  O   UNL     1       3.774  -4.066   1.289  0.00  0.00    -0.274 OA
ATOM     17  N   UNL     1       5.617  -3.436   0.227  0.00  0.00    -0.278 N 
ATOM     18  H   UNL     1       6.164  -2.646  -0.309  0.00  0.00    +0.155 HD
BRANCH  17  19
ATOM     19  C   UNL     1       6.202  -4.680   0.416  0.00  0.00    +0.089 A 
ATOM     20  C   UNL     1       7.455  -5.115   0.003  0.00  0.00    +0.080 A 
ATOM     21  C   UNL     1       7.815  -6.471   0.340  0.00  0.00    +0.028 A 
ATOM     22  C   UNL     1       6.906  -7.198   1.016  0.00  0.00    +0.048 A 
ATOM     23  S   UNL     1       5.546  -6.067   1.218  0.00  0.00    -0.081 S 
BRANCH  20  24
ATOM     24  C   UNL     1       8.347  -4.259  -0.720  0.00  0.00    +0.102 C 
ATOM     25  N   UNL     1       9.054  -3.580  -1.294  0.00  0.00    -0.191 NA
ENDBRANCH  20  24
ENDBRANCH  17  19
ENDBRANCH  14  15
ENDBRANCH  12  14
ENDBRANCH   1  12
BRANCH   5  26
ATOM     26  C   UNL     1      -1.119  -0.836   0.603  0.00  0.00    +0.201 C 
BRANCH  26  27
ATOM     27  C   UNL     1      -1.380  -0.762   2.085  0.00  0.00    +0.125 A 
ATOM     28  C   UNL     1      -2.257   0.059   2.690  0.00  0.00    +0.046 A 
ATOM     29  C   UNL     1      -2.179  -0.207   4.076  0.00  0.00    +0.041 A 
ATOM     30  C   UNL     1      -1.253  -1.169   4.237  0.00  0.00    +0.195 A 
ATOM     31  O   UNL     1      -0.772  -1.501   3.027  0.00  0.00    -0.466 OA
ENDBRANCH  26  27
ENDBRANCH   5  26
TORSDOF 7
