REMARK  Name = ZINC06408534
REMARK  14 active torsions:
REMARK  status: ('A' for Active; 'I' for Inactive)
REMARK    1  A    between atoms: C_1  and  C_2
REMARK    2  A    between atoms: C_9  and  C_14
REMARK    3  A    between atoms: C_14  and  C_16
REMARK    4  A    between atoms: C_14  and  N_70
REMARK    5  A    between atoms: N_20  and  C_21
REMARK    6  A    between atoms: C_21  and  C_22
REMARK    7  A    between atoms: C_21  and  C_23
REMARK    8  A    between atoms: C_21  and  C_24
REMARK    9  A    between atoms: C_25  and  C_26
REMARK   10  A    between atoms: C_25  and  N_70
REMARK   11  A    between atoms: C_29  and  O_32
REMARK   12  A    between atoms: O_32  and  C_33
REMARK   13  A    between atoms: C_34  and  C_35
REMARK   14  A    between atoms: C_34  and  N_70
REMARK                            x       y       z     vdW  Elec       q    Type
REMARK                         _______ _______ _______ _____ _____    ______ ____
ROOT
ATOM      1  C   UNL     1      -1.740  -0.618   0.851  0.00  0.00    +0.040 C 
ENDROOT
BRANCH   1  10
ATOM      2  C   UNL     1       5.582  -0.626  -0.568  0.00  0.00    +0.044 C 
ATOM      3  C   UNL     1       4.261   0.094  -0.478  0.00  0.00    -0.050 A 
ATOM      4  C   UNL     1       4.194   1.448  -0.779  0.00  0.00    +0.005 A 
ATOM      5  C   UNL     1       2.998   2.127  -0.704  0.00  0.00    +0.026 A 
ATOM      6  C   UNL     1       1.843   1.451  -0.323  0.00  0.00    +0.049 A 
ATOM      7  C   UNL     1       1.915   0.078  -0.019  0.00  0.00    -0.001 A 
ATOM      8  C   UNL     1       3.140  -0.590  -0.102  0.00  0.00    +0.013 A 
ATOM      9  C   UNL     1       0.694  -0.625   0.380  0.00  0.00    +0.017 A 
ATOM     10  C   UNL     1      -0.466   0.075   0.443  0.00  0.00    +0.011 A 
ATOM     11  C   UNL     1      -0.483   1.451   0.127  0.00  0.00    +0.251 A 
ATOM     12  O   UNL     1      -1.538   2.060   0.185  0.00  0.00    -0.268 OA
ATOM     13  N   UNL     1       0.632   2.105  -0.240  0.00  0.00    -0.322 N 
ATOM     14  H   UNL     1       0.584   3.051  -0.451  0.00  0.00    +0.169 HD
ENDBRANCH   1  10
BRANCH   1  15
ATOM     15  C   UNL     1      -2.169  -0.123   2.208  0.00  0.00    +0.143 A 
ATOM     16  N   UNL     1      -2.550   1.094   2.512  0.00  0.00    -0.115 NA
ATOM     17  N   UNL     1      -2.836   1.119   3.768  0.00  0.00    -0.023 NA
ATOM     18  N   UNL     1      -2.648  -0.050   4.273  0.00  0.00    -0.043 NA
ATOM     19  N   UNL     1      -2.241  -0.845   3.341  0.00  0.00    -0.225 N 
BRANCH  19  20
ATOM     20  C   UNL     1      -1.916  -2.266   3.490  0.00  0.00    +0.059 C 
ATOM     21  C   UNL     1      -0.463  -2.502   3.074  0.00  0.00    +0.036 C 
ATOM     22  C   UNL     1      -2.103  -2.682   4.950  0.00  0.00    +0.036 C 
ATOM     23  C   UNL     1      -2.843  -3.097   2.600  0.00  0.00    +0.036 C 
ENDBRANCH  19  20
ENDBRANCH   1  15
BRANCH   1  24
ATOM     24  N   UNL     1      -2.790  -0.299  -0.139  0.00  0.00    +0.397 N 
ATOM     25  H   UNL     1      -2.721   0.694  -0.391  0.00  0.00    -0.079 HD
BRANCH  24  26
ATOM     26  C   UNL     1      -2.602  -1.116  -1.357  0.00  0.00    -0.041 C 
BRANCH  26  27
ATOM     27  C   UNL     1      -1.514  -0.493  -2.192  0.00  0.00    -0.064 A 
ATOM     28  C   UNL     1      -1.805   0.576  -3.019  0.00  0.00    +0.005 A 
ATOM     29  C   UNL     1      -0.808   1.153  -3.782  0.00  0.00    +0.046 A 
ATOM     30  C   UNL     1       0.484   0.651  -3.726  0.00  0.00    +0.120 A 
ATOM     31  C   UNL     1       0.773  -0.425  -2.900  0.00  0.00    +0.046 A 
ATOM     32  C   UNL     1      -0.227  -0.995  -2.135  0.00  0.00    +0.005 A 
BRANCH  30  33
ATOM     33  O   UNL     1       1.465   1.214  -4.479  0.00  0.00    -0.495 OA
ATOM     34  C   UNL     1       1.122   2.385  -5.222  0.00  0.00    +0.277 C 
ENDBRANCH  30  33
ENDBRANCH  26  27
ENDBRANCH  24  26
BRANCH  24  35
ATOM     35  C   UNL     1      -4.125  -0.556   0.440  0.00  0.00    -0.001 C 
BRANCH  35  36
ATOM     36  C   UNL     1      -5.176  -0.064  -0.521  0.00  0.00    +0.089 A 
ATOM     37  C   UNL     1      -5.834  -0.816  -1.421  0.00  0.00    +0.042 A 
ATOM     38  C   UNL     1      -6.721   0.046  -2.106  0.00  0.00    +0.041 A 
ATOM     39  C   UNL     1      -6.552   1.274  -1.583  0.00  0.00    +0.195 A 
ATOM     40  O   UNL     1      -5.620   1.200  -0.620  0.00  0.00    -0.470 OA
ENDBRANCH  35  36
ENDBRANCH  24  35
ENDBRANCH   1  24
TORSDOF 9
