REMARK  Name = ZINC12190742
REMARK  8 active torsions:
REMARK  status: ('A' for Active; 'I' for Inactive)
REMARK    1  A    between atoms: C_1  and  N_2
REMARK    2  A    between atoms: N_2  and  C_3
REMARK    3  A    between atoms: C_3  and  C_5
REMARK    4  A    between atoms: C_3  and  C_12
REMARK    5  A    between atoms: C_5  and  C_6
REMARK    6  A    between atoms: C_17  and  C_18
REMARK    7  A    between atoms: C_17  and  N_66
REMARK    8  A    between atoms: C_28  and  C_30
REMARK                            x       y       z     vdW  Elec       q    Type
REMARK                         _______ _______ _______ _____ _____    ______ ____
ROOT
ATOM      1  C   UNL     1      -2.522  -2.896  -0.195  0.00  0.00    +0.083 C 
ENDROOT
BRANCH   1   2
ATOM      2  C   UNL     1      -2.642  -3.569  -1.563  0.00  0.00    +0.006 C 
ATOM      3  C   UNL     1      -1.512  -4.588  -1.733  0.00  0.00    -0.013 C 
ATOM      4  C   UNL     1      -1.602  -5.214  -3.127  0.00  0.00    -0.078 C 
ATOM      5  C   UNL     1      -2.593  -3.197  -4.032  0.00  0.00    -0.078 C 
ATOM      6  C   UNL     1      -2.534  -2.511  -2.665  0.00  0.00    -0.013 C 
ATOM      7  N   UNL     1      -1.466  -4.147  -4.141  0.00  0.00    +0.383 N 
ATOM      8  H   UNL     1      -0.587  -3.642  -3.978  0.00  0.00    -0.081 HD
BRANCH   7   9
ATOM      9  C   UNL     1      -1.435  -4.739  -5.495  0.00  0.00    -0.024 C 
BRANCH   9  10
ATOM     10  C   UNL     1      -0.464  -5.892  -5.507  0.00  0.00    +0.009 A 
ATOM     11  C   UNL     1      -0.779  -7.193  -5.349  0.00  0.00    +0.021 A 
ATOM     12  C   UNL     1       0.419  -7.932  -5.428  0.00  0.00    +0.020 A 
ATOM     13  C   UNL     1       1.423  -7.055  -5.631  0.00  0.00    +0.093 A 
ATOM     14  N   UNL     1       0.888  -5.799  -5.687  0.00  0.00    -0.301 N 
ATOM     15  C   UNL     1       1.602  -4.619  -5.889  0.00  0.00    +0.177 A 
ATOM     16  N   UNL     1       2.898  -4.456  -6.069  0.00  0.00    -0.231 NA
ATOM     17  C   UNL     1       3.417  -3.258  -6.249  0.00  0.00    +0.121 A 
ATOM     18  C   UNL     1       2.586  -2.187  -6.247  0.00  0.00    +0.068 A 
ATOM     19  S   UNL     1       1.012  -2.989  -5.978  0.00  0.00    -0.058 S 
ENDBRANCH   9  10
ENDBRANCH   7   9
ENDBRANCH   1   2
BRANCH   1  21
ATOM     20  C   UNL     1       0.012  -2.771  -0.187  0.00  0.00    +0.132 C 
ATOM     21  N   UNL     1      -1.291  -2.103  -0.147  0.00  0.00    -0.296 N 
ATOM     22  C   UNL     1      -1.357  -0.759  -0.065  0.00  0.00    +0.265 C 
ATOM     23  O   UNL     1      -2.432  -0.212   0.081  0.00  0.00    -0.268 OA
BRANCH  22  24
ATOM     24  C   UNL     1      -0.120   0.050  -0.154  0.00  0.00    +0.126 A 
ATOM     25  C   UNL     1      -0.203   1.441  -0.154  0.00  0.00    +0.033 A 
ATOM     26  C   UNL     1       0.964   2.185  -0.237  0.00  0.00    +0.004 A 
ATOM     27  C   UNL     1       2.173   1.512  -0.318  0.00  0.00    +0.020 A 
ATOM     28  C   UNL     1       2.181   0.126  -0.313  0.00  0.00    +0.111 A 
ATOM     29  N   UNL     1       1.059  -0.555  -0.233  0.00  0.00    -0.250 NA
ENDBRANCH  22  24
ENDBRANCH   1  21
BRANCH   1  30
ATOM     30  C   UNL     1      -2.483  -3.966   0.898  0.00  0.00    +0.058 C 
BRANCH  30  31
ATOM     31  C   UNL     1      -2.488  -3.302   2.251  0.00  0.00    -0.046 A 
ATOM     32  C   UNL     1      -1.294  -2.970   2.863  0.00  0.00    +0.004 A 
ATOM     33  C   UNL     1      -1.299  -2.357   4.102  0.00  0.00    +0.000 A 
ATOM     34  C   UNL     1      -2.498  -2.085   4.734  0.00  0.00    +0.000 A 
ATOM     35  C   UNL     1      -3.693  -2.422   4.124  0.00  0.00    +0.000 A 
ATOM     36  C   UNL     1      -3.687  -3.031   2.883  0.00  0.00    +0.004 A 
ENDBRANCH  30  31
ENDBRANCH   1  30
TORSDOF 7
