REMARK  Name = ZINC39977690
REMARK  6 active torsions:
REMARK  status: ('A' for Active; 'I' for Inactive)
REMARK    1  A    between atoms: C_4  and  N_7
REMARK    2  A    between atoms: N_7  and  C_8
REMARK    3  A    between atoms: C_11  and  N_14
REMARK    4  A    between atoms: N_14  and  C_15
REMARK    5  A    between atoms: N_18  and  S_19
REMARK    6  A    between atoms: S_19  and  C_22
REMARK                            x       y       z     vdW  Elec       q    Type
REMARK                         _______ _______ _______ _____ _____    ______ ____
ROOT
ATOM      1  C   UNL     1       4.721  -6.976  -0.318  0.00  0.00    +0.237 C 
ATOM      2  C   UNL     1       4.528  -8.012   0.765  0.00  0.00    +0.192 C 
ATOM      3  N   UNL     1       4.217  -7.651   1.975  0.00  0.00    -0.110 NA
ATOM      4  N   UNL     1       4.681  -9.311   0.460  0.00  0.00    -0.226 NA
ATOM      5  C   UNL     1       4.996  -9.701  -0.757  0.00  0.00    +0.089 A 
ATOM      6  C   UNL     1       5.150 -11.081  -1.044  0.00  0.00    +0.030 A 
ATOM      7  C   UNL     1       5.473 -11.488  -2.291  0.00  0.00    +0.002 A 
ATOM      8  C   UNL     1       5.671 -10.592  -3.355  0.00  0.00    +0.002 A 
ATOM      9  C   UNL     1       5.549  -9.256  -3.191  0.00  0.00    +0.027 A 
ATOM     10  C   UNL     1       5.199  -8.732  -1.862  0.00  0.00    +0.063 A 
ATOM     11  N   UNL     1       5.071  -7.450  -1.667  0.00  0.00    -0.359 N 
ATOM     12  H   UNL     1       5.204  -6.822  -2.394  0.00  0.00    +0.162 HD
ENDROOT
BRANCH   3  13
ATOM     13  S   UNL     1       4.008  -8.796   3.153  0.00  0.00    +0.100 S 
ATOM     14  O   UNL     1       2.859  -9.550   2.788  0.00  0.00    -0.146 OA
ATOM     15  O   UNL     1       5.278  -9.398   3.365  0.00  0.00    -0.146 OA
BRANCH  13  16
ATOM     16  C   UNL     1       3.600  -7.945   4.641  0.00  0.00    +0.113 A 
ATOM     17  C   UNL     1       4.602  -7.533   5.499  0.00  0.00    +0.030 A 
ATOM     18  C   UNL     1       4.283  -6.866   6.666  0.00  0.00    +0.022 A 
ATOM     19  C   UNL     1       2.959  -6.609   6.976  0.00  0.00    +0.041 A 
ATOM     20  C   UNL     1       1.956  -7.022   6.117  0.00  0.00    +0.022 A 
ATOM     21  C   UNL     1       2.277  -7.684   4.947  0.00  0.00    +0.030 A 
ATOM     22 CL   UNL     1       2.557  -5.771   8.442  0.00  0.00    -0.084 Cl
ENDBRANCH  13  16
ENDBRANCH   3  13
BRANCH   1  23
ATOM     23  N   UNL     1       3.481  -6.203  -0.424  0.00  0.00    -0.318 N 
ATOM     24  H   UNL     1       2.632  -6.660  -0.526  0.00  0.00    +0.148 HD
BRANCH  23  28
ATOM     25  C   UNL     1       3.603  -2.038  -0.290  0.00  0.00    +0.031 A 
ATOM     26  C   UNL     1       4.784  -2.765  -0.366  0.00  0.00    +0.025 A 
ATOM     27  C   UNL     1       4.743  -4.144  -0.410  0.00  0.00    +0.025 A 
ATOM     28  C   UNL     1       3.522  -4.805  -0.379  0.00  0.00    +0.029 A 
ATOM     29  C   UNL     1       2.341  -4.078  -0.304  0.00  0.00    +0.025 A 
ATOM     30  C   UNL     1       2.382  -2.698  -0.253  0.00  0.00    +0.025 A 
BRANCH  25  31
ATOM     31  N   UNL     1       3.644  -0.639  -0.245  0.00  0.00    -0.314 N 
ATOM     32  H   UNL     1       2.971  -0.150   0.253  0.00  0.00    +0.152 HD
BRANCH  31  36
ATOM     33  C   UNL     1       6.655   1.422  -2.251  0.00  0.00    +0.000 A 
ATOM     34  C   UNL     1       6.275   0.164  -2.682  0.00  0.00    +0.002 A 
ATOM     35  C   UNL     1       5.277  -0.523  -2.019  0.00  0.00    +0.023 A 
ATOM     36  C   UNL     1       4.654   0.052  -0.918  0.00  0.00    +0.031 A 
ATOM     37  C   UNL     1       5.039   1.316  -0.488  0.00  0.00    +0.023 A 
ATOM     38  C   UNL     1       6.037   1.997  -1.155  0.00  0.00    +0.002 A 
ENDBRANCH  31  36
ENDBRANCH  25  31
ENDBRANCH  23  28
ENDBRANCH   1  23
TORSDOF 6
