REMARK  Name = ZINC06300691
REMARK  6 active torsions:
REMARK  status: ('A' for Active; 'I' for Inactive)
REMARK    1  A    between atoms: C_1  and  C_2
REMARK    2  A    between atoms: C_4  and  C_37
REMARK    3  A    between atoms: C_9  and  C_14
REMARK    4  A    between atoms: C_14  and  C_16
REMARK    5  A    between atoms: C_14  and  N_76
REMARK    6  A    between atoms: N_20  and  C_21
REMARK                            x       y       z     vdW  Elec       q    Type
REMARK                         _______ _______ _______ _____ _____    ______ ____
ROOT
ATOM      1  C   UNL     1      -2.604   3.705   0.044  0.00  0.00    +0.039 C 
ENDROOT
BRANCH   1  10
ATOM      2  C   UNL     1       4.848   4.003   0.025  0.00  0.00    +0.044 C 
ATOM      3  C   UNL     1       3.564   3.214   0.008  0.00  0.00    -0.050 A 
ATOM      4  C   UNL     1       3.609   1.827  -0.030  0.00  0.00    +0.008 A 
ATOM      5  C   UNL     1       2.447   1.085  -0.047  0.00  0.00    -0.026 A 
ATOM      6  C   UNL     1       1.216   1.731  -0.025  0.00  0.00    +0.052 A 
ATOM      7  C   UNL     1       1.174   3.138   0.014  0.00  0.00    -0.001 A 
ATOM      8  C   UNL     1       2.366   3.870   0.030  0.00  0.00    +0.013 A 
ATOM      9  C   UNL     1      -0.127   3.808   0.038  0.00  0.00    +0.017 A 
ATOM     10  C   UNL     1      -1.249   3.047   0.021  0.00  0.00    +0.011 A 
ATOM     11  C   UNL     1      -1.152   1.639  -0.023  0.00  0.00    +0.251 A 
ATOM     12  O   UNL     1      -2.173   0.974  -0.041  0.00  0.00    -0.268 OA
ATOM     13  N   UNL     1       0.038   1.014  -0.040  0.00  0.00    -0.322 N 
ATOM     14  H   UNL     1       0.069   0.045  -0.067  0.00  0.00    +0.169 HD
ATOM     15  C   UNL     1       2.511  -0.420  -0.088  0.00  0.00    +0.046 C 
ENDBRANCH   1  10
BRANCH   1  26
ATOM     16  C   UNL     1      -4.711   3.807   1.232  0.00  0.00    -0.077 C 
ATOM     17  C   UNL     1      -5.560   3.116   2.302  0.00  0.00    -0.018 C 
ATOM     18  C   UNL     1      -4.844   3.208   3.652  0.00  0.00    +0.003 C 
ATOM     19  C   UNL     1      -3.458   2.568   3.530  0.00  0.00    -0.044 C 
ATOM     20  C   UNL     1      -2.670   3.275   2.425  0.00  0.00    -0.071 C 
ATOM     21  C   UNL     1      -3.610   1.087   3.182  0.00  0.00    +0.005 C 
ATOM     22  C   UNL     1      -4.402   0.382   4.285  0.00  0.00    +0.000 C 
ATOM     23  C   UNL     1      -3.657   0.521   5.615  0.00  0.00    +0.000 C 
ATOM     24  C   UNL     1      -3.505   2.003   5.963  0.00  0.00    +0.000 C 
ATOM     25  C   UNL     1      -2.714   2.707   4.859  0.00  0.00    +0.005 C 
ATOM     26  N   UNL     1      -3.400   3.129   1.148  0.00  0.00    +0.390 N 
ATOM     27  H   UNL     1      -3.552   2.131   0.963  0.00  0.00    -0.080 HD
ENDBRANCH   1  26
BRANCH   1  28
ATOM     28  C   UNL     1      -3.315   3.439  -1.258  0.00  0.00    +0.143 A 
ATOM     29  N   UNL     1      -3.938   2.338  -1.599  0.00  0.00    -0.115 NA
ATOM     30  N   UNL     1      -4.415   2.501  -2.784  0.00  0.00    -0.023 NA
ATOM     31  N   UNL     1      -4.106   3.675  -3.212  0.00  0.00    -0.044 NA
ATOM     32  N   UNL     1      -3.427   4.285  -2.300  0.00  0.00    -0.227 N 
BRANCH  32  33
ATOM     33  C   UNL     1      -2.881   5.641  -2.382  0.00  0.00    +0.111 C 
ATOM     34  C   UNL     1      -4.022   6.639  -2.591  0.00  0.00    +0.027 C 
ATOM     35  C   UNL     1      -3.452   8.056  -2.677  0.00  0.00    +0.002 C 
ATOM     36  C   UNL     1      -2.477   8.143  -3.853  0.00  0.00    +0.000 C 
ATOM     37  C   UNL     1      -1.335   7.146  -3.643  0.00  0.00    +0.002 C 
ATOM     38  C   UNL     1      -1.905   5.729  -3.558  0.00  0.00    +0.027 C 
ENDBRANCH  32  33
ENDBRANCH   1  28
TORSDOF 4
