REMARK  Name = ZINC11681027
REMARK  4 active torsions:
REMARK  status: ('A' for Active; 'I' for Inactive)
REMARK    1  A    between atoms: C_15  and  C_16
REMARK    2  A    between atoms: C_15  and  N_71
REMARK    3  A    between atoms: C_22  and  C_24
REMARK    4  A    between atoms: C_24  and  N_25
REMARK                            x       y       z     vdW  Elec       q    Type
REMARK                         _______ _______ _______ _____ _____    ______ ____
ROOT
ATOM      1  C   UNL     1       6.012   4.624   1.050  0.00  0.00    -0.023 C 
ATOM      2  C   UNL     1       6.278   5.420   2.329  0.00  0.00    +0.002 C 
ATOM      3  C   UNL     1       6.047   6.909   2.061  0.00  0.00    +0.000 C 
ATOM      4  C   UNL     1       4.600   7.128   1.615  0.00  0.00    +0.000 C 
ATOM      5  C   UNL     1       4.334   6.332   0.336  0.00  0.00    +0.005 C 
ATOM      6  C   UNL     1       4.565   4.844   0.604  0.00  0.00    +0.008 C 
ENDROOT
BRANCH   1   7
ATOM      7  C   UNL     1       6.963   5.098  -0.052  0.00  0.00    -0.075 C 
BRANCH   7  22
ATOM      8  C   UNL     1      10.840  -0.294  -4.711  0.00  0.00    +0.001 A 
ATOM      9  C   UNL     1      10.529  -1.033  -5.845  0.00  0.00    +0.001 A 
ATOM     10  C   UNL     1       9.327  -0.842  -6.475  0.00  0.00    +0.017 A 
ATOM     11  C   UNL     1       8.444   0.095  -5.981  0.00  0.00    +0.041 A 
ATOM     12  C   UNL     1       8.736   0.865  -4.832  0.00  0.00    +0.031 A 
ATOM     13  C   UNL     1       9.980   0.631  -4.206  0.00  0.00    +0.012 A 
ATOM     14  C   UNL     1       7.665   1.787  -4.485  0.00  0.00    +0.138 A 
ATOM     15  N   UNL     1       6.591   1.837  -5.219  0.00  0.00    -0.194 NA
ATOM     16  S   UNL     1       6.839   0.681  -6.452  0.00  0.00    +0.014 S 
ATOM     17  N   UNL     1       7.792   2.620  -3.372  0.00  0.00    -0.318 N 
ATOM     18  C   UNL     1       7.191   3.937  -3.628  0.00  0.00    +0.088 C 
ATOM     19  C   UNL     1       7.420   4.843  -2.416  0.00  0.00    -0.060 C 
ATOM     20  C   UNL     1       7.430   2.905  -0.967  0.00  0.00    -0.060 C 
ATOM     21  C   UNL     1       7.201   1.998  -2.179  0.00  0.00    +0.088 C 
ATOM     22  N   UNL     1       6.802   4.217  -1.229  0.00  0.00    +0.382 N 
ATOM     23  H   UNL     1       5.801   4.079  -1.408  0.00  0.00    -0.082 HD
ENDBRANCH   7  22
ENDBRANCH   1   7
BRANCH   6  24
ATOM     24  C   UNL     1       4.299   4.048  -0.675  0.00  0.00    +0.120 C 
BRANCH  24  25
ATOM     25  N   UNL     1       2.884   4.162  -1.036  0.00  0.00    -0.241 N 
ATOM     26  C   UNL     1       2.380   5.148  -1.849  0.00  0.00    +0.226 C 
ATOM     27  O   UNL     1       2.993   5.880  -2.596  0.00  0.00    -0.275 OA
ATOM     28  C   UNL     1       0.900   5.115  -1.605  0.00  0.00    +0.091 C 
ATOM     29  C   UNL     1      -0.118   5.374  -2.732  0.00  0.00    +0.002 C 
ATOM     30  C   UNL     1      -1.403   5.606  -1.845  0.00  0.00    +0.004 C 
ATOM     31  C   UNL     1      -1.567   4.222  -1.119  0.00  0.00    +0.004 C 
ATOM     32  C   UNL     1      -0.588   3.253  -1.835  0.00  0.00    +0.002 C 
ATOM     33  C   UNL     1      -0.525   3.952  -3.269  0.00  0.00    +0.008 C 
ATOM     34  C   UNL     1       0.826   3.534  -1.520  0.00  0.00    +0.091 C 
ATOM     35  C   UNL     1       1.902   3.296  -0.591  0.00  0.00    +0.226 C 
ATOM     36  O   UNL     1       1.938   2.530   0.348  0.00  0.00    -0.275 OA
ENDBRANCH  24  25
ENDBRANCH   6  24
TORSDOF 4
