REMARK  Name = ZINC60017305
REMARK  8 active torsions:
REMARK  status: ('A' for Active; 'I' for Inactive)
REMARK    1  A    between atoms: C_1  and  C_2
REMARK    2  A    between atoms: C_2  and  C_4
REMARK    3  A    between atoms: C_2  and  N_10
REMARK    4  A    between atoms: C_13  and  N_16
REMARK    5  A    between atoms: C_17  and  C_19
REMARK    6  A    between atoms: C_19  and  C_20
REMARK    7  A    between atoms: C_23  and  S_25
REMARK    8  A    between atoms: S_25  and  N_28
REMARK                            x       y       z     vdW  Elec       q    Type
REMARK                         _______ _______ _______ _____ _____    ______ ____
ROOT
ATOM      1  N   UNL     1       0.161  -3.514  -3.077  0.00  0.00    -0.314 N 
ATOM      2  C   UNL     1       0.516  -4.252  -4.147  0.00  0.00    +0.218 C 
ATOM      3  O   UNL     1       1.472  -3.926  -4.819  0.00  0.00    -0.275 OA
ATOM      4  H   UNL     1      -0.603  -3.775  -2.540  0.00  0.00    +0.149 HD
ENDROOT
BRANCH   1   8
ATOM      5  N   UNL     1       0.690  -0.478  -1.207  0.00  0.00    +0.385 N 
ATOM      6  C   UNL     1      -0.079  -0.104  -2.422  0.00  0.00    -0.076 C 
ATOM      7  C   UNL     1       0.401  -1.094  -3.505  0.00  0.00    +0.002 C 
ATOM      8  C   UNL     1       0.928  -2.317  -2.726  0.00  0.00    +0.055 C 
ATOM      9  C   UNL     1       0.723  -1.963  -1.237  0.00  0.00    -0.056 C 
ATOM     10  H   UNL     1       1.625  -0.103  -1.250  0.00  0.00    -0.081 HD
BRANCH   5  12
ATOM     11  C   UNL     1      -0.019   1.526   0.010  0.00  0.00    -0.008 C 
ATOM     12  C   UNL     1       0.002  -0.004   0.002  0.00  0.00    -0.041 C 
BRANCH  12  13
ATOM     13  C   UNL     1       0.731  -0.503   1.223  0.00  0.00    -0.061 A 
ATOM     14  C   UNL     1       2.113  -0.514   1.247  0.00  0.00    +0.002 A 
ATOM     15  C   UNL     1       2.782  -0.972   2.366  0.00  0.00    +0.000 A 
ATOM     16  C   UNL     1       2.068  -1.419   3.463  0.00  0.00    +0.000 A 
ATOM     17  C   UNL     1       0.686  -1.407   3.439  0.00  0.00    +0.000 A 
ATOM     18  C   UNL     1       0.017  -0.945   2.321  0.00  0.00    +0.002 A 
ENDBRANCH  12  13
ENDBRANCH   5  12
ENDBRANCH   1   8
BRANCH   2  19
ATOM     19  C   UNL     1      -0.273  -5.484  -4.509  0.00  0.00    +0.138 C 
BRANCH  19  20
ATOM     20  C   UNL     1       0.326  -6.123  -5.735  0.00  0.00    +0.000 A 
ATOM     21  C   UNL     1       1.291  -7.072  -5.818  0.00  0.00    +0.013 A 
ATOM     22  C   UNL     1       1.689  -7.515  -7.065  0.00  0.00    +0.036 A 
ATOM     23  C   UNL     1       1.103  -6.989  -8.168  0.00  0.00    +0.143 A 
ATOM     24  S   UNL     1      -0.055  -5.833  -7.455  0.00  0.00    -0.073 S 
BRANCH  23  25
ATOM     25  S   UNL     1       1.402  -7.355  -9.865  0.00  0.00    +0.067 S 
ATOM     26  O   UNL     1       0.992  -6.213 -10.606  0.00  0.00    -0.152 OA
ATOM     27  O   UNL     1       2.721  -7.879  -9.942  0.00  0.00    -0.152 OA
BRANCH  25  28
ATOM     28  N   UNL     1       0.379  -8.586 -10.289  0.00  0.00    -0.176 NA
ATOM     29  C   UNL     1       0.792  -9.988 -10.137  0.00  0.00    +0.109 C 
ATOM     30  C   UNL     1      -0.266 -10.727  -9.311  0.00  0.00    +0.017 C 
ATOM     31  C   UNL     1      -1.638 -10.543  -9.963  0.00  0.00    +0.003 C 
ATOM     32  C   UNL     1      -1.997  -9.055  -9.989  0.00  0.00    +0.017 C 
ATOM     33  C   UNL     1      -0.961  -8.297 -10.817  0.00  0.00    +0.109 C 
ENDBRANCH  25  28
ENDBRANCH  23  25
ENDBRANCH  19  20
ENDBRANCH   2  19
TORSDOF 7
