REMARK  Name = ZINC12855434
REMARK  6 active torsions:
REMARK  status: ('A' for Active; 'I' for Inactive)
REMARK    1  A    between atoms: C_1  and  C_2
REMARK    2  A    between atoms: C_4  and  N_24
REMARK    3  A    between atoms: C_7  and  N_8
REMARK    4  A    between atoms: C_9  and  C_11
REMARK    5  A    between atoms: C_20  and  O_21
REMARK    6  A    between atoms: O_21  and  C_22
REMARK                            x       y       z     vdW  Elec       q    Type
REMARK                         _______ _______ _______ _____ _____    ______ ____
ROOT
ATOM      1  N   UNL     1       2.352   3.525   3.239  0.00  0.00    -0.281 N 
ATOM      2  C   UNL     1       1.383   2.859   2.581  0.00  0.00    +0.252 C 
ATOM      3  O   UNL     1       1.470   1.657   2.424  0.00  0.00    -0.270 OA
ATOM      4  H   UNL     1       2.324   4.493   3.295  0.00  0.00    +0.155 HD
ENDROOT
BRANCH   2   5
ATOM      5  C   UNL     1       0.216   3.590   2.050  0.00  0.00    +0.080 A 
ATOM      6  C   UNL     1       0.123   4.961   2.227  0.00  0.00    +0.025 A 
ATOM      7  C   UNL     1      -0.991   5.649   1.726  0.00  0.00    -0.016 A 
ATOM      8  C   UNL     1      -1.120   7.040   1.893  0.00  0.00    +0.008 A 
ATOM      9  C   UNL     1      -2.213   7.680   1.397  0.00  0.00    +0.001 A 
ATOM     10  C   UNL     1      -3.211   6.977   0.722  0.00  0.00    +0.001 A 
ATOM     11  C   UNL     1      -3.121   5.631   0.541  0.00  0.00    +0.010 A 
ATOM     12  C   UNL     1      -2.006   4.934   1.040  0.00  0.00    -0.000 A 
ATOM     13  C   UNL     1      -1.886   3.545   0.868  0.00  0.00    +0.068 A 
ATOM     14  C   UNL     1      -0.796   2.889   1.361  0.00  0.00    +0.147 A 
ATOM     15 BR   UNL     1      -3.235   2.584  -0.046  0.00  0.00    -0.046 Br
BRANCH  14  16
ATOM     16  O   UNL     1      -0.687   1.546   1.192  0.00  0.00    -0.493 OA
ATOM     17  C   UNL     1      -0.023   1.093   0.010  0.00  0.00    +0.277 C 
ENDBRANCH  14  16
ENDBRANCH   2   5
BRANCH   1  24
ATOM     18  C   UNL     1       4.827   4.873   3.634  0.00  0.00    +0.046 C 
ATOM     19  C   UNL     1       4.623   3.440   4.054  0.00  0.00    -0.027 A 
ATOM     20  C   UNL     1       5.654   2.743   4.654  0.00  0.00    +0.038 A 
ATOM     21  C   UNL     1       5.470   1.426   5.034  0.00  0.00    +0.127 A 
ATOM     22  C   UNL     1       4.253   0.804   4.820  0.00  0.00    +0.034 A 
ATOM     23  C   UNL     1       3.218   1.497   4.225  0.00  0.00    +0.026 A 
ATOM     24  C   UNL     1       3.399   2.820   3.842  0.00  0.00    +0.037 A 
BRANCH  21  25
ATOM     25  N   UNL     1       6.578   0.680   5.672  0.00  0.00    +0.056 N 
ATOM     26  O   UNL     1       6.418  -0.480   6.007  0.00  0.00    -0.126 OA
ATOM     27  O   UNL     1       7.650   1.226   5.862  0.00  0.00    -0.126 OA
ENDBRANCH  21  25
ENDBRANCH   1  24
TORSDOF 4
