REMARK  Name = ZINC01422142
REMARK  9 active torsions:
REMARK  status: ('A' for Active; 'I' for Inactive)
REMARK    1  A    between atoms: C_1  and  C_2
REMARK    2  A    between atoms: C_2  and  O_3
REMARK    3  A    between atoms: O_3  and  C_4
REMARK    4  A    between atoms: C_4  and  C_6
REMARK    5  A    between atoms: C_7  and  C_23
REMARK    6  A    between atoms: C_12  and  C_14
REMARK    7  A    between atoms: C_23  and  S_24
REMARK    8  A    between atoms: S_24  and  C_25
REMARK    9  A    between atoms: C_28  and  C_31
REMARK                            x       y       z     vdW  Elec       q    Type
REMARK                         _______ _______ _______ _____ _____    ______ ____
ROOT
ATOM      1  C   UNL     1       1.161   4.191  -1.330  0.00  0.00    +0.079 C 
ATOM      2  C   UNL     1       2.352   4.647  -1.772  0.00  0.00    +0.034 C 
ATOM      3  N   UNL     1       3.373   4.906  -0.903  0.00  0.00    -0.272 N 
ATOM      4  C   UNL     1       3.282   4.734   0.422  0.00  0.00    +0.304 C 
ATOM      5  O   UNL     1       4.247   4.992   1.116  0.00  0.00    -0.252 OA
ATOM      6  N   UNL     1       2.157   4.284   1.011  0.00  0.00    -0.288 N 
ATOM      7  C   UNL     1       0.995   3.975   0.160  0.00  0.00    +0.144 C 
ATOM      8  H   UNL     1       4.211   5.232  -1.266  0.00  0.00    +0.156 HD
ATOM      9  H   UNL     1       2.113   4.167   1.973  0.00  0.00    +0.151 HD
ENDROOT
BRANCH   7  10
ATOM     10  C   UNL     1       0.627   2.531   0.383  0.00  0.00    -0.019 A 
ATOM     11  C   UNL     1       1.617   1.568   0.443  0.00  0.00    +0.009 A 
ATOM     12  C   UNL     1       1.284   0.242   0.645  0.00  0.00    +0.050 A 
ATOM     13  C   UNL     1      -0.044  -0.125   0.791  0.00  0.00    +0.166 A 
ATOM     14  C   UNL     1      -1.041   0.846   0.733  0.00  0.00    +0.167 A 
ATOM     15  C   UNL     1      -0.700   2.173   0.529  0.00  0.00    +0.055 A 
ATOM     16  O   UNL     1      -2.252   0.238   0.904  0.00  0.00    -0.453 OA
ATOM     17  C   UNL     1      -2.018  -1.161   0.659  0.00  0.00    +0.466 C 
ATOM     18  O   UNL     1      -0.630  -1.340   0.999  0.00  0.00    -0.453 OA
ENDBRANCH   7  10
BRANCH   1  19
ATOM     19  C   UNL     1       0.103   3.921  -2.230  0.00  0.00    +0.339 C 
ATOM     20  O   UNL     1       0.211   4.223  -3.404  0.00  0.00    -0.245 OA
BRANCH  19  21
ATOM     21  O   UNL     1      -1.026   3.330  -1.786  0.00  0.00    -0.462 OA
BRANCH  21  23
ATOM     22  C   UNL     1      -3.246   2.417  -2.066  0.00  0.00    +0.048 C 
ATOM     23  C   UNL     1      -2.053   3.088  -2.750  0.00  0.00    +0.229 C 
ENDBRANCH  21  23
ENDBRANCH  19  21
ENDBRANCH   1  19
BRANCH   2  24
ATOM     24  C   UNL     1       2.559   4.874  -3.247  0.00  0.00    +0.125 C 
BRANCH  24  25
ATOM     25  S   UNL     1       2.144   6.592  -3.658  0.00  0.00    -0.119 S 
BRANCH  25  26
ATOM     26  C   UNL     1       2.433   6.696  -5.393  0.00  0.00    +0.008 A 
ATOM     27  C   UNL     1       2.886   5.584  -6.092  0.00  0.00    +0.015 A 
ATOM     28  C   UNL     1       3.107   5.668  -7.453  0.00  0.00    +0.004 A 
ATOM     29  C   UNL     1       2.888   6.861  -8.118  0.00  0.00    -0.050 A 
ATOM     30  C   UNL     1       2.443   7.972  -7.424  0.00  0.00    +0.004 A 
ATOM     31  C   UNL     1       2.215   7.893  -6.065  0.00  0.00    +0.015 A 
ATOM     32  C   UNL     1       3.136   6.951  -9.602  0.00  0.00    +0.044 C 
ENDBRANCH  25  26
ENDBRANCH  24  25
ENDBRANCH   2  24
TORSDOF 7
