REMARK  Name = ZINC12713337
REMARK  13 active torsions:
REMARK  status: ('A' for Active; 'I' for Inactive)
REMARK    1  A    between atoms: C_1  and  C_2
REMARK    2  A    between atoms: C_2  and  C_3
REMARK    3  A    between atoms: C_2  and  C_4
REMARK    4  A    between atoms: C_4  and  C_5
REMARK    5  A    between atoms: C_5  and  N_6
REMARK    6  A    between atoms: C_7  and  C_9
REMARK    7  A    between atoms: C_9  and  C_11
REMARK    8  A    between atoms: C_9  and  N_17
REMARK    9  A    between atoms: N_17  and  C_18
REMARK   10  A    between atoms: C_21  and  C_24
REMARK   11  A    between atoms: C_24  and  C_26
REMARK   12  A    between atoms: C_27  and  C_29
REMARK   13  A    between atoms: C_29  and  N_30
REMARK                            x       y       z     vdW  Elec       q    Type
REMARK                         _______ _______ _______ _____ _____    ______ ____
ROOT
ATOM      1  N   UNL     1      -5.490   3.086  -1.764  0.00  0.00    -0.254 N 
ATOM      2  C   UNL     1      -4.187   3.332  -1.522  0.00  0.00    +0.242 C 
ATOM      3  O   UNL     1      -3.494   3.832  -2.383  0.00  0.00    -0.273 OA
ENDROOT
BRANCH   1   4
ATOM      4  C   UNL     1      -6.310   2.609  -0.744  0.00  0.00    +0.038 A 
ATOM      5  C   UNL     1      -6.643   3.437   0.325  0.00  0.00    +0.024 A 
ATOM      6  C   UNL     1      -7.453   2.973   1.328  0.00  0.00    +0.013 A 
ATOM      7  C   UNL     1      -7.937   1.660   1.283  0.00  0.00    +0.017 A 
ATOM      8  C   UNL     1      -7.596   0.828   0.209  0.00  0.00    +0.013 A 
ATOM      9  C   UNL     1      -6.789   1.303  -0.792  0.00  0.00    +0.024 A 
BRANCH   7  10
ATOM     10  C   UNL     1      -8.801   1.157   2.359  0.00  0.00    +0.160 C 
ATOM     11  O   UNL     1      -9.220   0.019   2.318  0.00  0.00    -0.292 OA
ATOM     12  C   UNL     1      -9.167   2.053   3.513  0.00  0.00    +0.091 C 
ENDBRANCH   7  10
ENDBRANCH   1   4
BRANCH   1  13
ATOM     13  C   UNL     1      -6.045   3.322  -3.099  0.00  0.00    +0.197 C 
BRANCH  13  14
ATOM     14  C   UNL     1      -7.470   2.835  -3.144  0.00  0.00    -0.018 A 
ATOM     15  C   UNL     1      -8.403   3.346  -2.261  0.00  0.00    +0.006 A 
ATOM     16  C   UNL     1      -9.712   2.903  -2.305  0.00  0.00    +0.000 A 
ATOM     17  C   UNL     1     -10.085   1.942  -3.226  0.00  0.00    +0.000 A 
ATOM     18  C   UNL     1      -9.152   1.428  -4.106  0.00  0.00    +0.000 A 
ATOM     19  C   UNL     1      -7.844   1.874  -4.065  0.00  0.00    +0.006 A 
ENDBRANCH  13  14
BRANCH  13  21
ATOM     20  N   UNL     1      -6.469   5.252  -4.588  0.00  0.00    -0.313 N 
ATOM     21  C   UNL     1      -6.007   4.797  -3.406  0.00  0.00    +0.238 C 
ATOM     22  O   UNL     1      -5.561   5.575  -2.589  0.00  0.00    -0.273 OA
ATOM     23  H   UNL     1      -6.826   4.629  -5.241  0.00  0.00    +0.149 HD
BRANCH  20  24
ATOM     24  C   UNL     1      -6.433   6.686  -4.885  0.00  0.00    +0.104 C 
BRANCH  24  25
ATOM     25  C   UNL     1      -7.012   6.931  -6.280  0.00  0.00    +0.022 C 
BRANCH  25  27
ATOM     26  C   UNL     1      -5.520   8.897  -6.668  0.00  0.00    +0.007 C 
ATOM     27  C   UNL     1      -6.974   8.429  -6.591  0.00  0.00    -0.016 C 
ATOM     28  C   UNL     1      -7.666   8.689  -7.931  0.00  0.00    +0.007 C 
ENDBRANCH  25  27
ENDBRANCH  24  25
ENDBRANCH  20  24
ENDBRANCH  13  21
ENDBRANCH   1  13
BRANCH   2  29
ATOM     29  C   UNL     1      -3.591   2.985  -0.183  0.00  0.00    +0.242 C 
BRANCH  29  30
ATOM     30  N   UNL     1      -2.146   3.227  -0.213  0.00  0.00    -0.235 N 
ATOM     31  C   UNL     1      -1.169   2.330  -0.573  0.00  0.00    +0.090 A 
ATOM     32  C   UNL     1      -1.182   1.006  -1.000  0.00  0.00    +0.029 A 
ATOM     33  C   UNL     1      -0.005   0.372  -1.284  0.00  0.00    +0.002 A 
ATOM     34  C   UNL     1       1.205   1.042  -1.161  0.00  0.00    +0.002 A 
ATOM     35  C   UNL     1       1.245   2.342  -0.750  0.00  0.00    +0.032 A 
ATOM     36  C   UNL     1       0.053   3.013  -0.447  0.00  0.00    +0.113 A 
ATOM     37  N   UNL     1      -0.220   4.265  -0.027  0.00  0.00    -0.129 NA
ATOM     38  N   UNL     1      -1.488   4.421   0.118  0.00  0.00    -0.064 NA
ENDBRANCH  29  30
ENDBRANCH   2  29
TORSDOF 10
