REMARK  Name = ZINC02411951
REMARK  6 active torsions:
REMARK  status: ('A' for Active; 'I' for Inactive)
REMARK    1  A    between atoms: C_1  and  C_2
REMARK    2  A    between atoms: C_8  and  C_9
REMARK    3  A    between atoms: C_8  and  N_50
REMARK    4  A    between atoms: C_10  and  O_28
REMARK    5  A    between atoms: C_17  and  O_20
REMARK    6  A    between atoms: O_20  and  C_21
REMARK                            x       y       z     vdW  Elec       q    Type
REMARK                         _______ _______ _______ _____ _____    ______ ____
ROOT
ATOM      1  C   UNL     1      -1.277   3.018  -0.168  0.00  0.00    +0.020 A 
ATOM      2  C   UNL     1      -1.267   1.640  -0.308  0.00  0.00    +0.122 A 
ATOM      3  C   UNL     1      -0.065   0.952  -0.457  0.00  0.00    +0.046 A 
ATOM      4  C   UNL     1       1.121   1.629  -0.476  0.00  0.00    +0.019 A 
ATOM      5  C   UNL     1       1.127   3.017  -0.342  0.00  0.00    +0.068 A 
ATOM      6  C   UNL     1      -0.081   3.720  -0.186  0.00  0.00    +0.143 A 
ATOM      7  O   UNL     1      -0.063   5.062  -0.055  0.00  0.00    -0.459 OA
ATOM      8  C   UNL     1       1.075   5.769  -0.068  0.00  0.00    +0.245 A 
ATOM      9  C   UNL     1       2.287   5.198  -0.211  0.00  0.00    +0.210 A 
ATOM     10  C   UNL     1       2.385   3.785  -0.357  0.00  0.00    +0.235 A 
ATOM     11  O   UNL     1       3.464   3.233  -0.489  0.00  0.00    -0.283 OA
ENDROOT
BRANCH   2  12
ATOM     12  O   UNL     1      -2.438   0.954  -0.296  0.00  0.00    -0.506 OA
ATOM     13  H   UNL     1      -2.718   0.669   0.585  0.00  0.00    +0.292 HD
ENDBRANCH   2  12
BRANCH   1  14
ATOM     14  C   UNL     1      -2.583   3.751  -0.003  0.00  0.00    -0.035 C 
BRANCH  14  21
ATOM     15  C   UNL     1      -5.321   3.413  -0.559  0.00  0.00    -0.013 C 
ATOM     16  C   UNL     1      -4.517   4.523  -1.238  0.00  0.00    -0.071 C 
ATOM     17  C   UNL     1      -5.067   4.763  -2.646  0.00  0.00    -0.016 C 
ATOM     18  C   UNL     1      -4.247   5.861  -3.329  0.00  0.00    -0.003 C 
ATOM     19  C   UNL     1      -2.775   5.441  -3.363  0.00  0.00    -0.019 C 
ATOM     20  C   UNL     1      -2.291   5.182  -1.934  0.00  0.00    -0.078 C 
ATOM     21  N   UNL     1      -3.104   4.099  -1.341  0.00  0.00    +0.384 N 
ATOM     22  H   UNL     1      -3.049   3.271  -1.946  0.00  0.00    -0.081 HD
ENDBRANCH  14  21
ENDBRANCH   1  14
BRANCH   9  23
ATOM     23  O   UNL     1       3.410   5.966  -0.216  0.00  0.00    -0.448 OA
BRANCH  23  24
ATOM     24  C   UNL     1       3.900   6.372  -1.417  0.00  0.00    +0.143 A 
ATOM     25  C   UNL     1       3.322   5.916  -2.593  0.00  0.00    +0.047 A 
ATOM     26  C   UNL     1       3.819   6.334  -3.813  0.00  0.00    +0.004 A 
ATOM     27  C   UNL     1       4.898   7.197  -3.863  0.00  0.00    +0.001 A 
ATOM     28  C   UNL     1       5.481   7.648  -2.693  0.00  0.00    +0.019 A 
ATOM     29  C   UNL     1       4.984   7.237  -1.470  0.00  0.00    +0.060 A 
ATOM     30 BR   UNL     1       5.781   7.855   0.130  0.00  0.00    -0.046 Br
ENDBRANCH  23  24
ENDBRANCH   9  23
TORSDOF 5
