REMARK  Name = ZINC33860038
REMARK  10 active torsions:
REMARK  status: ('A' for Active; 'I' for Inactive)
REMARK    1  A    between atoms: C_1  and  C_2
REMARK    2  A    between atoms: C_2  and  C_3
REMARK    3  A    between atoms: C_6  and  N_9
REMARK    4  A    between atoms: C_14  and  C_35
REMARK    5  A    between atoms: C_17  and  C_22
REMARK    6  A    between atoms: C_17  and  C_32
REMARK    7  A    between atoms: C_22  and  C_23
REMARK    8  A    between atoms: C_26  and  N_29
REMARK    9  A    between atoms: C_37  and  C_42
REMARK   10  A    between atoms: C_40  and  C_41
REMARK                            x       y       z     vdW  Elec       q    Type
REMARK                         _______ _______ _______ _____ _____    ______ ____
ROOT
ATOM      1  N   UNL     1       3.052  -1.653  -4.361  0.00  0.00    -0.210 N 
ATOM      2  C   UNL     1       2.258  -1.823  -5.468  0.00  0.00    +0.232 C 
ATOM      3  O   UNL     1       1.136  -1.399  -5.647  0.00  0.00    -0.274 OA
ATOM      4  C   UNL     1       3.056  -2.620  -6.370  0.00  0.00    +0.111 C 
ATOM      5  C   UNL     1       3.129  -2.980  -7.793  0.00  0.00    +0.098 C 
ATOM      6  N   UNL     1       4.530  -3.485  -7.976  0.00  0.00    -0.293 NA
ATOM      7  C   UNL     1       5.255  -3.283  -6.680  0.00  0.00    +0.138 C 
ATOM      8  C   UNL     1       4.510  -2.072  -6.079  0.00  0.00    +0.121 C 
ATOM      9  C   UNL     1       4.353  -2.004  -4.585  0.00  0.00    +0.232 C 
ATOM     10  O   UNL     1       5.206  -2.219  -3.751  0.00  0.00    -0.274 OA
ATOM     11  H   UNL     1       4.531  -4.458  -8.244  0.00  0.00    +0.124 HD
ENDROOT
BRANCH   5  12
ATOM     12  C   UNL     1       2.885  -1.769  -8.656  0.00  0.00    -0.027 A 
ATOM     13  C   UNL     1       3.953  -1.100  -9.226  0.00  0.00    +0.008 A 
ATOM     14  C   UNL     1       3.730   0.011 -10.018  0.00  0.00    -0.050 A 
ATOM     15  C   UNL     1       2.439   0.453 -10.239  0.00  0.00    +0.003 A 
ATOM     16  C   UNL     1       1.372  -0.215  -9.670  0.00  0.00    +0.004 A 
ATOM     17  C   UNL     1       1.595  -1.329  -8.882  0.00  0.00    -0.046 A 
ATOM     18  C   UNL     1       0.431  -2.062  -8.265  0.00  0.00    +0.044 C 
ATOM     19  C   UNL     1       4.893   0.740 -10.638  0.00  0.00    +0.044 C 
ENDBRANCH   5  12
BRANCH   1  23
ATOM     20  C   UNL     1       1.647  -0.206  -0.712  0.00  0.00    -0.048 A 
ATOM     21  C   UNL     1       0.777  -0.352  -1.778  0.00  0.00    +0.005 A 
ATOM     22  C   UNL     1       1.240  -0.832  -2.988  0.00  0.00    +0.024 A 
ATOM     23  C   UNL     1       2.579  -1.166  -3.134  0.00  0.00    +0.044 A 
ATOM     24  C   UNL     1       3.450  -1.018  -2.063  0.00  0.00    +0.024 A 
ATOM     25  C   UNL     1       2.982  -0.533  -0.857  0.00  0.00    +0.005 A 
BRANCH  20  27
ATOM     26  C   UNL     1       1.252   1.843   0.627  0.00  0.00    +0.009 C 
ATOM     27  C   UNL     1       1.139   0.317   0.606  0.00  0.00    +0.032 C 
ENDBRANCH  20  27
ENDBRANCH   1  23
BRANCH   7  28
ATOM     28  C   UNL     1       6.702  -2.941  -6.925  0.00  0.00    +0.377 C 
ATOM     29  O   UNL     1       7.132  -2.890  -8.065  0.00  0.00    -0.244 OA
ATOM     30  O   UNL     1       7.444  -2.715  -5.984  0.00  0.00    -0.244 OA
ENDBRANCH   7  28
BRANCH   7  31
ATOM     31  C   UNL     1       5.133  -4.522  -5.791  0.00  0.00    +0.069 C 
BRANCH  31  32
ATOM     32  C   UNL     1       5.804  -5.691  -6.464  0.00  0.00    -0.045 A 
ATOM     33  C   UNL     1       5.081  -6.508  -7.314  0.00  0.00    +0.006 A 
ATOM     34  C   UNL     1       5.697  -7.580  -7.932  0.00  0.00    +0.033 A 
ATOM     35  C   UNL     1       7.035  -7.836  -7.700  0.00  0.00    +0.126 A 
ATOM     36  C   UNL     1       7.758  -7.020  -6.850  0.00  0.00    +0.033 A 
ATOM     37  C   UNL     1       7.144  -5.945  -6.236  0.00  0.00    +0.006 A 
BRANCH  35  38
ATOM     38  N   UNL     1       7.694  -8.986  -8.360  0.00  0.00    +0.056 N 
ATOM     39  O   UNL     1       7.062  -9.700  -9.103  0.00  0.00    -0.126 OA
ATOM     40  O   UNL     1       8.865  -9.210  -8.157  0.00  0.00    -0.126 OA
ENDBRANCH  35  38
ENDBRANCH  31  32
ENDBRANCH   7  31
TORSDOF 7
