REMARK  Name = ZINC39962578
REMARK  7 active torsions:
REMARK  status: ('A' for Active; 'I' for Inactive)
REMARK    1  A    between atoms: C_1  and  C_2
REMARK    2  A    between atoms: C_4  and  C_16
REMARK    3  A    between atoms: C_6  and  C_14
REMARK    4  A    between atoms: C_7  and  N_13
REMARK    5  A    between atoms: C_19  and  O_22
REMARK    6  A    between atoms: O_22  and  C_23
REMARK    7  A    between atoms: C_23  and  C_24
REMARK                            x       y       z     vdW  Elec       q    Type
REMARK                         _______ _______ _______ _____ _____    ______ ____
ROOT
ATOM      1  C   UNL     1      -0.018   1.503   0.010  0.00  0.00    +0.067 C 
ATOM      2  C   UNL     1       0.002  -0.004   0.002  0.00  0.00    +0.066 C 
ATOM      3  C   UNL     1      -1.064  -0.768   0.003  0.00  0.00    +0.030 C 
ATOM      4  C   UNL     1      -2.537  -0.492  -0.122  0.00  0.00    +0.098 C 
ATOM      5  C   UNL     1      -3.075  -1.565  -1.050  0.00  0.00    +0.097 C 
ATOM      6  C   UNL     1      -2.317  -2.612  -1.438  0.00  0.00    +0.195 C 
ATOM      7  O   UNL     1      -1.033  -2.841  -1.107  0.00  0.00    -0.448 OA
ATOM      8  C   UNL     1      -0.528  -2.199   0.066  0.00  0.00    +0.343 C 
ATOM      9  N   UNL     1       0.921  -1.985   0.002  0.00  0.00    -0.138 NA
ATOM     10  N   UNL     1       1.127  -0.765  -0.013  0.00  0.00    -0.155 NA
ENDROOT
BRANCH   4  11
ATOM     11  C   UNL     1      -3.201  -0.585   1.227  0.00  0.00    -0.035 A 
ATOM     12  C   UNL     1      -3.148  -1.767   1.942  0.00  0.00    +0.008 A 
ATOM     13  C   UNL     1      -3.757  -1.855   3.179  0.00  0.00    +0.046 A 
ATOM     14  C   UNL     1      -4.420  -0.756   3.704  0.00  0.00    +0.121 A 
ATOM     15  C   UNL     1      -4.471   0.430   2.985  0.00  0.00    +0.046 A 
ATOM     16  C   UNL     1      -3.857   0.514   1.751  0.00  0.00    +0.008 A 
BRANCH  14  17
ATOM     17  O   UNL     1      -5.020  -0.840   4.921  0.00  0.00    -0.487 OA
BRANCH  17  18
ATOM     18  C   UNL     1      -5.685   0.331   5.399  0.00  0.00    +0.264 C 
BRANCH  18  19
ATOM     19  C   UNL     1      -6.285   0.051   6.753  0.00  0.00    -0.010 A 
ATOM     20  C   UNL     1      -7.573  -0.445   6.848  0.00  0.00    +0.010 A 
ATOM     21  C   UNL     1      -8.124  -0.702   8.089  0.00  0.00    +0.039 A 
ATOM     22  C   UNL     1      -7.387  -0.464   9.236  0.00  0.00    +0.123 A 
ATOM     23  C   UNL     1      -6.098   0.032   9.139  0.00  0.00    +0.039 A 
ATOM     24  C   UNL     1      -5.547   0.284   7.897  0.00  0.00    +0.010 A 
ATOM     25  F   UNL     1      -7.925  -0.716  10.450  0.00  0.00    -0.205 F 
ENDBRANCH  18  19
ENDBRANCH  17  18
ENDBRANCH  14  17
ENDBRANCH   4  11
BRANCH   6  26
ATOM     26  N   UNL     1      -2.917  -3.538  -2.254  0.00  0.00    -0.329 N 
ATOM     27  H   UNL     1      -3.842  -3.421  -2.523  0.00  0.00    +0.145 HD
ATOM     28  H   UNL     1      -2.417  -4.310  -2.562  0.00  0.00    +0.145 HD
ENDBRANCH   6  26
BRANCH   5  29
ATOM     29  C   UNL     1      -4.422  -1.466  -1.525  0.00  0.00    +0.101 C 
ATOM     30  N   UNL     1      -5.491  -1.387  -1.903  0.00  0.00    -0.191 NA
ENDBRANCH   5  29
TORSDOF 6
