REMARK  Name = ZINC09882811
REMARK  13 active torsions:
REMARK  status: ('A' for Active; 'I' for Inactive)
REMARK    1  A    between atoms: C_1  and  C_2
REMARK    2  A    between atoms: C_2  and  C_3
REMARK    3  A    between atoms: C_2  and  N_4
REMARK    4  A    between atoms: N_4  and  S_5
REMARK    5  A    between atoms: S_5  and  C_8
REMARK    6  A    between atoms: C_11  and  N_14
REMARK    7  A    between atoms: C_15  and  C_17
REMARK    8  A    between atoms: C_17  and  C_19
REMARK    9  A    between atoms: C_17  and  N_64
REMARK   10  A    between atoms: C_20  and  N_64
REMARK   11  A    between atoms: C_21  and  C_22
REMARK   12  A    between atoms: C_21  and  N_64
REMARK   13  A    between atoms: N_24  and  C_25
REMARK                            x       y       z     vdW  Elec       q    Type
REMARK                         _______ _______ _______ _____ _____    ______ ____
ROOT
ATOM      1  C   UNL     1      -3.484   4.566   6.722  0.00  0.00    +0.017 C 
ATOM      2  C   UNL     1      -4.995   4.604   6.486  0.00  0.00    -0.004 C 
ENDROOT
BRANCH   1   4
ATOM      3  N   UNL     1      -3.050   3.029   4.833  0.00  0.00    -0.287 N 
ATOM      4  C   UNL     1      -2.784   4.204   5.437  0.00  0.00    +0.203 C 
ATOM      5  O   UNL     1      -1.982   4.970   4.946  0.00  0.00    -0.277 OA
ATOM      6  H   UNL     1      -3.751   2.454   5.178  0.00  0.00    +0.155 HD
BRANCH   3  10
ATOM      7  C   UNL     1      -0.859   1.866   1.485  0.00  0.00    +0.105 A 
ATOM      8  C   UNL     1      -2.145   1.391   1.668  0.00  0.00    +0.030 A 
ATOM      9  C   UNL     1      -2.872   1.770   2.779  0.00  0.00    +0.025 A 
ATOM     10  C   UNL     1      -2.314   2.638   3.709  0.00  0.00    +0.033 A 
ATOM     11  C   UNL     1      -1.024   3.117   3.520  0.00  0.00    +0.025 A 
ATOM     12  C   UNL     1      -0.301   2.730   2.409  0.00  0.00    +0.030 A 
BRANCH   7  13
ATOM     13  S   UNL     1       0.067   1.374   0.069  0.00  0.00    +0.059 S 
ATOM     14  O   UNL     1       1.036   2.389  -0.154  0.00  0.00    -0.153 OA
ATOM     15  O   UNL     1      -0.878   0.992  -0.921  0.00  0.00    -0.153 OA
BRANCH  13  16
ATOM     16  N   UNL     1       0.901   0.005   0.481  0.00  0.00    -0.187 NA
ATOM     17  H   UNL     1       1.871   0.018   0.510  0.00  0.00    +0.148 HD
BRANCH  16  19
ATOM     18  C   UNL     1       0.975  -2.434   0.306  0.00  0.00    +0.025 C 
ATOM     19  C   UNL     1       0.175  -1.227   0.801  0.00  0.00    +0.070 C 
ATOM     20  C   UNL     1      -0.015  -1.327   2.316  0.00  0.00    +0.025 C 
ENDBRANCH  16  19
ENDBRANCH  13  16
ENDBRANCH   7  13
ENDBRANCH   3  10
ENDBRANCH   1   4
BRANCH   1  22
ATOM     21  C   UNL     1      -3.445   6.938   6.239  0.00  0.00    -0.094 C 
ATOM     22  N   UNL     1      -2.996   5.886   7.175  0.00  0.00    +0.391 N 
ATOM     23  H   UNL     1      -1.970   5.873   7.195  0.00  0.00    -0.080 HD
BRANCH  22  24
ATOM     24  C   UNL     1      -3.500   6.171   8.535  0.00  0.00    +0.020 C 
BRANCH  24  25
ATOM     25  C   UNL     1      -2.816   7.408   9.056  0.00  0.00    +0.201 C 
ATOM     26  O   UNL     1      -2.013   7.995   8.363  0.00  0.00    -0.278 OA
ATOM     27  N   UNL     1      -3.098   7.863  10.294  0.00  0.00    -0.287 N 
ATOM     28  H   UNL     1      -3.689   7.357  10.873  0.00  0.00    +0.155 HD
BRANCH  27  29
ATOM     29  C   UNL     1      -2.539   9.061  10.741  0.00  0.00    +0.041 A 
ATOM     30  C   UNL     1      -1.266   9.421  10.356  0.00  0.00    +0.024 A 
ATOM     31  C   UNL     1      -0.699  10.614  10.796  0.00  0.00    +0.002 A 
ATOM     32  C   UNL     1      -1.385  11.457  11.617  0.00  0.00    +0.008 A 
ATOM     33  C   UNL     1      -2.686  11.127  12.033  0.00  0.00    -0.016 A 
ATOM     34  C   UNL     1      -3.275   9.918  11.587  0.00  0.00    +0.003 A 
ATOM     35  C   UNL     1      -4.573   9.588  12.007  0.00  0.00    +0.010 A 
ATOM     36  C   UNL     1      -5.252  10.436  12.827  0.00  0.00    +0.001 A 
ATOM     37  C   UNL     1      -4.676  11.627  13.263  0.00  0.00    +0.001 A 
ATOM     38  C   UNL     1      -3.417  11.977  12.880  0.00  0.00    +0.008 A 
ENDBRANCH  27  29
ENDBRANCH  24  25
ENDBRANCH  22  24
ENDBRANCH   1  22
TORSDOF 9
