REMARK  Name = ZINC35006511
REMARK  7 active torsions:
REMARK  status: ('A' for Active; 'I' for Inactive)
REMARK    1  A    between atoms: C_1  and  C_2
REMARK    2  A    between atoms: C_3  and  C_32
REMARK    3  A    between atoms: C_8  and  C_27
REMARK    4  A    between atoms: C_10  and  C_11
REMARK    5  A    between atoms: C_11  and  C_12
REMARK    6  A    between atoms: C_32  and  O_34
REMARK    7  A    between atoms: O_34  and  C_35
REMARK                            x       y       z     vdW  Elec       q    Type
REMARK                         _______ _______ _______ _____ _____    ______ ____
ROOT
ATOM      1  C   UNL     1       0.009   1.489  -0.006  0.00  0.00    +0.067 C 
ATOM      2  C   UNL     1       0.000  -0.018  -0.014  0.00  0.00    +0.062 A 
ATOM      3  C   UNL     1      -0.037  -0.744  -1.197  0.00  0.00    +0.120 A 
ATOM      4  S   UNL     1      -0.029  -2.412  -0.559  0.00  0.00    -0.045 S 
ATOM      5  C   UNL     1       0.019  -2.034   1.080  0.00  0.00    +0.169 A 
ATOM      6  N   UNL     1       0.033  -0.713   1.094  0.00  0.00    -0.229 NA
ATOM      7  N   UNL     1       0.044  -2.901   2.157  0.00  0.00    -0.231 N 
ATOM      8  C   UNL     1       0.040  -4.366   2.086  0.00  0.00    +0.158 C 
ATOM      9  C   UNL     1       0.075  -4.857   3.515  0.00  0.00    +0.077 C 
ATOM     10  C   UNL     1       0.096  -3.757   4.304  0.00  0.00    +0.250 C 
ATOM     11  O   UNL     1       0.129  -3.764   5.657  0.00  0.00    -0.282 OA
ATOM     12  C   UNL     1       0.083  -2.549   3.455  0.00  0.00    +0.293 C 
ATOM     13  O   UNL     1       0.101  -1.407   3.868  0.00  0.00    -0.266 OA
ENDROOT
BRANCH   8  14
ATOM     14  C   UNL     1      -1.213  -4.849   1.402  0.00  0.00    +0.015 A 
ATOM     15  C   UNL     1      -1.352  -5.799   0.446  0.00  0.00    +0.013 A 
ATOM     16  C   UNL     1      -2.615  -6.081  -0.041  0.00  0.00    +0.008 A 
ATOM     17  C   UNL     1      -3.677  -5.398   0.453  0.00  0.00    +0.045 A 
ATOM     18  S   UNL     1      -2.901  -4.323   1.648  0.00  0.00    -0.099 S 
ENDBRANCH   8  14
BRANCH   9  19
ATOM     19  C   UNL     1       0.084  -6.254   3.960  0.00  0.00    +0.195 C 
ATOM     20  O   UNL     1      -0.864  -6.701   4.580  0.00  0.00    -0.287 OA
BRANCH  19  21
ATOM     21  C   UNL     1       1.241  -7.118   3.656  0.00  0.00    +0.026 A 
ATOM     22  C   UNL     1       2.382  -6.576   3.055  0.00  0.00    +0.015 A 
ATOM     23  C   UNL     1       3.459  -7.385   2.772  0.00  0.00    +0.050 A 
ATOM     24  C   UNL     1       3.419  -8.740   3.083  0.00  0.00    +0.162 A 
ATOM     25  C   UNL     1       2.287  -9.285   3.684  0.00  0.00    +0.163 A 
ATOM     26  C   UNL     1       1.203  -8.478   3.974  0.00  0.00    +0.061 A 
ATOM     27  O   UNL     1       2.236 -10.608   4.001  0.00  0.00    -0.485 OA
ATOM     28  C   UNL     1       3.194 -11.460   3.364  0.00  0.00    +0.270 C 
ATOM     29  C   UNL     1       4.570 -10.786   3.454  0.00  0.00    +0.270 C 
ATOM     30  O   UNL     1       4.494  -9.520   2.791  0.00  0.00    -0.485 OA
ENDBRANCH  19  21
ENDBRANCH   9  19
BRANCH   3  31
ATOM     31  C   UNL     1      -0.074  -0.274  -2.581  0.00  0.00    +0.347 C 
ATOM     32  O   UNL     1      -0.074   0.919  -2.818  0.00  0.00    -0.244 OA
BRANCH  31  33
ATOM     33  O   UNL     1      -0.107  -1.163  -3.595  0.00  0.00    -0.464 OA
ATOM     34  C   UNL     1      -0.142  -0.634  -4.921  0.00  0.00    +0.280 C 
ENDBRANCH  31  33
ENDBRANCH   3  31
TORSDOF 5
