REMARK  Name = ZINC35665257
REMARK  12 active torsions:
REMARK  status: ('A' for Active; 'I' for Inactive)
REMARK    1  A    between atoms: C_1  and  C_2
REMARK    2  A    between atoms: C_2  and  O_3
REMARK    3  A    between atoms: O_3  and  C_4
REMARK    4  A    between atoms: C_4  and  C_6
REMARK    5  A    between atoms: C_7  and  C_25
REMARK    6  A    between atoms: N_8  and  C_22
REMARK    7  A    between atoms: C_12  and  C_14
REMARK    8  A    between atoms: C_17  and  O_20
REMARK    9  A    between atoms: O_20  and  C_21
REMARK   10  A    between atoms: C_22  and  C_23
REMARK   11  A    between atoms: C_25  and  N_26
REMARK   12  A    between atoms: C_32  and  C_34
REMARK                            x       y       z     vdW  Elec       q    Type
REMARK                         _______ _______ _______ _____ _____    ______ ____
ROOT
ATOM      1  C   UNL     1      -0.119  -1.278  -1.931  0.00  0.00    +0.080 C 
ATOM      2  C   UNL     1       0.464  -2.475  -1.705  0.00  0.00    +0.041 C 
ATOM      3  N   UNL     1       1.580  -2.856  -2.393  0.00  0.00    -0.254 N 
ATOM      4  C   UNL     1       2.174  -2.098  -3.324  0.00  0.00    +0.307 C 
ATOM      5  O   UNL     1       3.165  -2.523  -3.884  0.00  0.00    -0.252 OA
ATOM      6  N   UNL     1       1.708  -0.878  -3.659  0.00  0.00    -0.288 N 
ATOM      7  C   UNL     1       0.503  -0.376  -2.977  0.00  0.00    +0.144 C 
ATOM      8  H   UNL     1       2.155  -0.345  -4.335  0.00  0.00    +0.151 HD
ENDROOT
BRANCH   7   9
ATOM      9  C   UNL     1       0.861   0.928  -2.313  0.00  0.00    -0.022 A 
ATOM     10  C   UNL     1       2.021   1.028  -1.566  0.00  0.00    +0.009 A 
ATOM     11  C   UNL     1       2.350   2.223  -0.956  0.00  0.00    +0.046 A 
ATOM     12  C   UNL     1       1.517   3.323  -1.093  0.00  0.00    +0.120 A 
ATOM     13  C   UNL     1       0.354   3.221  -1.843  0.00  0.00    +0.046 A 
ATOM     14  C   UNL     1       0.032   2.026  -2.455  0.00  0.00    +0.009 A 
BRANCH  12  15
ATOM     15  O   UNL     1       1.839   4.500  -0.493  0.00  0.00    -0.495 OA
ATOM     16  C   UNL     1       0.934   5.590  -0.677  0.00  0.00    +0.277 C 
ENDBRANCH  12  15
ENDBRANCH   7   9
BRANCH   1  17
ATOM     17  C   UNL     1      -1.275  -0.882  -1.218  0.00  0.00    +0.339 C 
ATOM     18  O   UNL     1      -2.375  -1.015  -1.721  0.00  0.00    -0.245 OA
BRANCH  17  19
ATOM     19  O   UNL     1      -1.159  -0.356   0.019  0.00  0.00    -0.462 OA
BRANCH  19  21
ATOM     20  C   UNL     1      -2.037   0.593   2.060  0.00  0.00    +0.048 C 
ATOM     21  C   UNL     1      -2.368   0.022   0.680  0.00  0.00    +0.229 C 
ENDBRANCH  19  21
ENDBRANCH  17  19
ENDBRANCH   1  17
BRANCH   3  22
ATOM     22  C   UNL     1       2.160  -4.168  -2.098  0.00  0.00    +0.141 C 
BRANCH  22  23
ATOM     23  C   UNL     1       1.540  -5.206  -2.998  0.00  0.00    -0.015 C 
ATOM     24  C   UNL     1       2.303  -5.966  -3.744  0.00  0.00    +0.005 C 
ENDBRANCH  22  23
ENDBRANCH   3  22
BRANCH   2  25
ATOM     25  C   UNL     1      -0.126  -3.405  -0.676  0.00  0.00    +0.136 C 
BRANCH  25  26
ATOM     26  N   UNL     1      -0.600  -4.628  -1.337  0.00  0.00    -0.294 NA
ATOM     27  C   UNL     1      -1.721  -4.339  -2.240  0.00  0.00    +0.104 C 
ATOM     28  C   UNL     1      -2.066  -5.599  -3.041  0.00  0.00    +0.123 C 
ATOM     29  N   UNL     1      -2.297  -6.704  -2.098  0.00  0.00    -0.295 N 
ATOM     30  C   UNL     1      -1.276  -6.967  -1.072  0.00  0.00    +0.123 C 
ATOM     31  C   UNL     1      -0.963  -5.653  -0.349  0.00  0.00    +0.104 C 
ATOM     32  C   UNL     1      -3.413  -7.455  -2.172  0.00  0.00    +0.253 C 
ATOM     33  O   UNL     1      -4.250  -7.219  -3.024  0.00  0.00    -0.269 OA
BRANCH  32  34
ATOM     34  C   UNL     1      -3.620  -8.555  -1.227  0.00  0.00    +0.074 A 
ATOM     35  C   UNL     1      -4.809  -9.103  -0.770  0.00  0.00    +0.021 A 
ATOM     36  C   UNL     1      -4.684 -10.139   0.124  0.00  0.00    +0.008 A 
ATOM     37  C   UNL     1      -3.445 -10.547   0.491  0.00  0.00    +0.046 A 
ATOM     38  S   UNL     1      -2.409  -9.544  -0.370  0.00  0.00    -0.092 S 
ENDBRANCH  32  34
ENDBRANCH  25  26
ENDBRANCH   2  25
TORSDOF 10
