REMARK  Name = ZINC03114197
REMARK  7 active torsions:
REMARK  status: ('A' for Active; 'I' for Inactive)
REMARK    1  A    between atoms: C_1  and  C_2
REMARK    2  A    between atoms: C_9  and  C_11
REMARK    3  A    between atoms: C_13  and  N_18
REMARK    4  A    between atoms: C_19  and  C_20
REMARK    5  A    between atoms: C_21  and  C_30
REMARK    6  A    between atoms: C_23  and  C_28
REMARK    7  A    between atoms: C_25  and  O_26
REMARK                            x       y       z     vdW  Elec       q    Type
REMARK                         _______ _______ _______ _____ _____    ______ ____
ROOT
ATOM      1  C   UNL     1       8.203   2.568   0.784  0.00  0.00    +0.057 A 
ATOM      2  C   UNL     1       7.009   1.850   0.798  0.00  0.00    +0.042 A 
ATOM      3  C   UNL     1       5.964   2.230  -0.043  0.00  0.00    +0.065 A 
ATOM      4  C   UNL     1       6.123   3.325  -0.898  0.00  0.00    +0.029 A 
ATOM      5  C   UNL     1       7.306   4.035  -0.904  0.00  0.00    +0.023 A 
ATOM      6  C   UNL     1       8.346   3.664  -0.072  0.00  0.00    +0.053 A 
ATOM      7 CL   UNL     1       9.832   4.560  -0.091  0.00  0.00    -0.083 Cl
ENDROOT
BRANCH   1  16
ATOM      8  C   UNL     1      14.452   1.696   4.628  0.00  0.00    +0.044 C 
ATOM      9  C   UNL     1      13.053   1.491   4.106  0.00  0.00    -0.047 A 
ATOM     10  C   UNL     1      12.280   0.451   4.601  0.00  0.00    +0.005 A 
ATOM     11  C   UNL     1      11.000   0.251   4.134  0.00  0.00    +0.032 A 
ATOM     12  C   UNL     1      10.478   1.101   3.156  0.00  0.00    +0.110 A 
ATOM     13  C   UNL     1      11.265   2.152   2.658  0.00  0.00    +0.156 A 
ATOM     14  C   UNL     1      12.552   2.338   3.140  0.00  0.00    +0.052 A 
ATOM     15  O   UNL     1      10.510   2.790   1.736  0.00  0.00    -0.435 OA
ATOM     16  C   UNL     1       9.316   2.172   1.673  0.00  0.00    +0.230 A 
ATOM     17  N   UNL     1       9.286   1.166   2.509  0.00  0.00    -0.209 NA
ENDBRANCH   1  16
BRANCH   3  18
ATOM     18  N   UNL     1       4.788   1.530  -0.036  0.00  0.00    -0.255 NA
ATOM     19  C   UNL     1       3.651   2.167  -0.022  0.00  0.00    +0.123 C 
BRANCH  19  20
ATOM     20  C   UNL     1       2.387   1.415  -0.014  0.00  0.00    +0.040 A 
ATOM     21  C   UNL     1       1.164   2.094   0.002  0.00  0.00    -0.020 A 
ATOM     22  C   UNL     1      -0.017   1.382   0.010  0.00  0.00    +0.049 A 
ATOM     23  C   UNL     1       0.002  -0.004   0.002  0.00  0.00    -0.014 A 
ATOM     24  C   UNL     1       1.203  -0.687  -0.013  0.00  0.00    +0.064 A 
ATOM     25  C   UNL     1       2.401   0.012  -0.021  0.00  0.00    +0.140 A 
ATOM     26 BR   UNL     1       1.214  -2.578  -0.023  0.00  0.00    -0.046 Br
ATOM     27  C   UNL     1      -1.295  -0.771   0.011  0.00  0.00    +0.046 C 
ATOM     28 CL   UNL     1      -1.534   2.226   0.021  0.00  0.00    -0.083 Cl
ATOM     29  C   UNL     1       1.138   3.600   0.010  0.00  0.00    +0.046 C 
BRANCH  25  30
ATOM     30  O   UNL     1       3.582  -0.658  -0.037  0.00  0.00    -0.505 OA
ATOM     31  H   UNL     1       3.915  -0.847  -0.925  0.00  0.00    +0.292 HD
ENDBRANCH  25  30
ENDBRANCH  19  20
ENDBRANCH   3  18
TORSDOF 4
