REMARK  Name = ZINC40091920
REMARK  14 active torsions:
REMARK  status: ('A' for Active; 'I' for Inactive)
REMARK    1  A    between atoms: C_1  and  C_2
REMARK    2  A    between atoms: C_4  and  C_12
REMARK    3  A    between atoms: C_7  and  O_8
REMARK    4  A    between atoms: O_8  and  C_9
REMARK    5  A    between atoms: C_9  and  C_10
REMARK    6  A    between atoms: C_12  and  C_14
REMARK    7  A    between atoms: N_18  and  C_30
REMARK    8  A    between atoms: C_19  and  C_21
REMARK    9  A    between atoms: C_24  and  N_27
REMARK   10  A    between atoms: C_30  and  C_31
REMARK   11  A    between atoms: C_31  and  O_32
REMARK   12  A    between atoms: O_32  and  C_33
REMARK   13  A    between atoms: C_33  and  C_34
REMARK   14  A    between atoms: C_34  and  O_35
REMARK                            x       y       z     vdW  Elec       q    Type
REMARK                         _______ _______ _______ _____ _____    ______ ____
ROOT
ATOM      1  C   UNL     1       0.714  -4.817  -2.326  0.00  0.00    +0.076 C 
ATOM      2  C   UNL     1       0.943  -5.812  -3.214  0.00  0.00    +0.249 C 
ATOM      3  C   UNL     1       0.560  -7.104  -2.607  0.00  0.00    +0.288 C 
ATOM      4  O   UNL     1       0.647  -8.185  -3.154  0.00  0.00    -0.266 OA
ATOM      5  N   UNL     1       0.100  -6.905  -1.358  0.00  0.00    -0.281 N 
ATOM      6  C   UNL     1       0.165  -5.466  -1.077  0.00  0.00    +0.145 C 
ATOM      7  O   UNL     1       1.444  -5.650  -4.461  0.00  0.00    -0.282 OA
ENDROOT
BRANCH   6   8
ATOM      8  C   UNL     1       1.081  -5.203   0.090  0.00  0.00    -0.022 A 
ATOM      9  C   UNL     1       2.260  -5.914   0.217  0.00  0.00    +0.008 A 
ATOM     10  C   UNL     1       3.100  -5.672   1.288  0.00  0.00    +0.033 A 
ATOM     11  C   UNL     1       2.762  -4.719   2.231  0.00  0.00    +0.126 A 
ATOM     12  C   UNL     1       1.584  -4.008   2.103  0.00  0.00    +0.033 A 
ATOM     13  C   UNL     1       0.746  -4.246   1.030  0.00  0.00    +0.008 A 
BRANCH  11  14
ATOM     14  N   UNL     1       3.662  -4.461   3.377  0.00  0.00    +0.056 N 
ATOM     15  O   UNL     1       4.692  -5.084   3.490  0.00  0.00    -0.126 OA
ATOM     16  O   UNL     1       3.366  -3.628   4.202  0.00  0.00    -0.126 OA
ENDBRANCH  11  14
ENDBRANCH   6   8
BRANCH   1  17
ATOM     17  C   UNL     1       0.959  -3.386  -2.533  0.00  0.00    +0.195 C 
ATOM     18  O   UNL     1       2.097  -2.977  -2.666  0.00  0.00    -0.287 OA
BRANCH  17  22
ATOM     19  C   UNL     1      -0.749   1.293  -2.779  0.00  0.00    +0.047 C 
ATOM     20  C   UNL     1      -1.001  -0.191  -2.700  0.00  0.00    -0.008 A 
ATOM     21  C   UNL     1       0.060  -1.067  -2.655  0.00  0.00    +0.018 A 
ATOM     22  C   UNL     1      -0.175  -2.443  -2.581  0.00  0.00    +0.023 A 
ATOM     23  C   UNL     1      -1.488  -2.924  -2.554  0.00  0.00    +0.015 A 
ATOM     24  C   UNL     1      -2.543  -2.041  -2.599  0.00  0.00    +0.046 A 
ATOM     25  C   UNL     1      -2.305  -0.672  -2.666  0.00  0.00    +0.124 A 
BRANCH  25  26
ATOM     26  O   UNL     1      -3.348   0.195  -2.705  0.00  0.00    -0.488 OA
BRANCH  26  27
ATOM     27  C   UNL     1      -4.661  -0.367  -2.667  0.00  0.00    +0.256 C 
BRANCH  27  28
ATOM     28  C   UNL     1      -5.683   0.739  -2.719  0.00  0.00    +0.006 C 
ATOM     29  C   UNL     1      -6.722   0.635  -3.510  0.00  0.00    +0.007 C 
ENDBRANCH  27  28
ENDBRANCH  26  27
ENDBRANCH  25  26
ENDBRANCH  17  22
ENDBRANCH   1  17
BRANCH   5  30
ATOM     30  C   UNL     1      -0.375  -7.942  -0.439  0.00  0.00    +0.137 C 
BRANCH  30  31
ATOM     31  C   UNL     1      -1.872  -8.170  -0.657  0.00  0.00    +0.179 C 
BRANCH  31  32
ATOM     32  O   UNL     1      -2.087  -8.709  -1.963  0.00  0.00    -0.376 OA
BRANCH  32  33
ATOM     33  C   UNL     1      -3.465  -8.858  -2.310  0.00  0.00    +0.187 C 
BRANCH  33  34
ATOM     34  C   UNL     1      -3.575  -9.550  -3.671  0.00  0.00    +0.184 C 
BRANCH  34  35
ATOM     35  O   UNL     1      -3.069 -10.882  -3.570  0.00  0.00    -0.393 OA
ATOM     36  H   UNL     1      -3.108 -11.381  -4.397  0.00  0.00    +0.209 HD
ENDBRANCH  34  35
ENDBRANCH  33  34
ENDBRANCH  32  33
ENDBRANCH  31  32
ENDBRANCH  30  31
ENDBRANCH   5  30
TORSDOF 13
