REMARK  Name = ZINC36595850
REMARK  12 active torsions:
REMARK  status: ('A' for Active; 'I' for Inactive)
REMARK    1  A    between atoms: C_1  and  C_2
REMARK    2  A    between atoms: C_2  and  C_3
REMARK    3  A    between atoms: C_3  and  C_4
REMARK    4  A    between atoms: C_4  and  N_5
REMARK    5  A    between atoms: C_6  and  C_8
REMARK    6  A    between atoms: C_8  and  C_10
REMARK    7  A    between atoms: C_8  and  N_20
REMARK    8  A    between atoms: C_12  and  N_17
REMARK    9  A    between atoms: N_20  and  C_21
REMARK   10  A    between atoms: C_21  and  C_22
REMARK   11  A    between atoms: C_25  and  C_27
REMARK   12  A    between atoms: C_28  and  C_30
REMARK                            x       y       z     vdW  Elec       q    Type
REMARK                         _______ _______ _______ _____ _____    ______ ____
ROOT
ATOM      1  C   UNL     1      -3.999  -4.492  -0.113  0.00  0.00    +0.194 C 
ENDROOT
BRANCH   1   2
ATOM      2  C   UNL     1      -4.922  -3.777   0.840  0.00  0.00    +0.002 A 
ATOM      3  C   UNL     1      -5.465  -4.455   1.915  0.00  0.00    +0.040 A 
ATOM      4  C   UNL     1      -6.312  -3.799   2.789  0.00  0.00    +0.127 A 
ATOM      5  C   UNL     1      -6.617  -2.466   2.588  0.00  0.00    +0.034 A 
ATOM      6  C   UNL     1      -6.074  -1.787   1.513  0.00  0.00    +0.022 A 
ATOM      7  C   UNL     1      -5.222  -2.441   0.641  0.00  0.00    +0.047 A 
ATOM      8 CL   UNL     1      -4.534  -1.588  -0.705  0.00  0.00    -0.083 Cl
BRANCH   4   9
ATOM      9  N   UNL     1      -6.894  -4.525   3.940  0.00  0.00    +0.056 N 
ATOM     10  O   UNL     1      -6.628  -5.691   4.116  0.00  0.00    -0.126 OA
ATOM     11  O   UNL     1      -7.635  -3.952   4.704  0.00  0.00    -0.126 OA
ENDBRANCH   4   9
ENDBRANCH   1   2
BRANCH   1  13
ATOM     12  N   UNL     1      -2.147  -2.880   0.192  0.00  0.00    -0.313 N 
ATOM     13  C   UNL     1      -2.569  -4.160   0.229  0.00  0.00    +0.238 C 
ATOM     14  O   UNL     1      -1.798  -5.044   0.536  0.00  0.00    -0.273 OA
ATOM     15  H   UNL     1      -2.764  -2.173  -0.054  0.00  0.00    +0.149 HD
BRANCH  12  16
ATOM     16  C   UNL     1      -0.758  -2.557   0.524  0.00  0.00    +0.104 C 
BRANCH  16  17
ATOM     17  C   UNL     1      -0.543  -1.047   0.406  0.00  0.00    +0.018 C 
BRANCH  17  19
ATOM     18  C   UNL     1       1.124   0.801   0.634  0.00  0.00    +0.004 C 
ATOM     19  C   UNL     1       0.909  -0.710   0.753  0.00  0.00    -0.002 C 
ENDBRANCH  17  19
ENDBRANCH  16  17
ENDBRANCH  12  16
ENDBRANCH   1  13
BRANCH   1  20
ATOM     20  N   UNL     1      -4.205  -5.938   0.000  0.00  0.00    -0.272 N 
ATOM     21  C   UNL     1      -3.832  -6.586   1.122  0.00  0.00    +0.283 C 
ATOM     22  O   UNL     1      -3.945  -7.795   1.192  0.00  0.00    -0.267 OA
BRANCH  21  23
ATOM     23  C   UNL     1      -3.289  -5.833   2.257  0.00  0.00    +0.189 A 
ATOM     24  C   UNL     1      -2.761  -6.370   3.397  0.00  0.00    +0.054 A 
ATOM     25  C   UNL     1      -2.368  -5.292   4.205  0.00  0.00    +0.042 A 
ATOM     26  C   UNL     1      -2.668  -4.159   3.533  0.00  0.00    +0.196 A 
ATOM     27  O   UNL     1      -3.219  -4.489   2.357  0.00  0.00    -0.458 OA
ENDBRANCH  21  23
BRANCH  20  28
ATOM     28  C   UNL     1      -4.816  -6.680  -1.105  0.00  0.00    +0.183 C 
BRANCH  28  29
ATOM     29  C   UNL     1      -3.739  -7.161  -2.043  0.00  0.00    +0.122 A 
ATOM     30  C   UNL     1      -3.095  -8.339  -1.963  0.00  0.00    +0.046 A 
ATOM     31  C   UNL     1      -2.174  -8.376  -3.035  0.00  0.00    +0.045 A 
ATOM     32  C   UNL     1      -2.310  -7.218  -3.707  0.00  0.00    +0.102 A 
ATOM     33  O   UNL     1      -3.264  -6.489  -3.105  0.00  0.00    -0.463 OA
ATOM     34  C   UNL     1      -1.530  -6.811  -4.930  0.00  0.00    +0.086 C 
ENDBRANCH  28  29
ENDBRANCH  20  28
ENDBRANCH   1  20
TORSDOF 10
