REMARK  Name = ZINC12848212
REMARK  13 active torsions:
REMARK  status: ('A' for Active; 'I' for Inactive)
REMARK    1  A    between atoms: C_1  and  C_2
REMARK    2  A    between atoms: C_2  and  C_3
REMARK    3  A    between atoms: C_3  and  C_4
REMARK    4  A    between atoms: C_4  and  N_5
REMARK    5  A    between atoms: N_5  and  C_6
REMARK    6  A    between atoms: C_7  and  N_18
REMARK    7  A    between atoms: N_8  and  C_15
REMARK    8  A    between atoms: C_15  and  C_16
REMARK    9  A    between atoms: C_16  and  C_17
REMARK   10  A    between atoms: C_19  and  C_21
REMARK   11  A    between atoms: C_21  and  C_22
REMARK   12  A    between atoms: C_22  and  N_23
REMARK   13  A    between atoms: N_26  and  C_27
REMARK                            x       y       z     vdW  Elec       q    Type
REMARK                         _______ _______ _______ _____ _____    ______ ____
ROOT
ATOM      1  N   UNL     1       1.420  -2.502  -2.465  0.00  0.00    -0.264 N 
ATOM      2  C   UNL     1       0.627  -2.825  -3.508  0.00  0.00    +0.221 C 
ATOM      3  O   UNL     1       1.109  -3.319  -4.506  0.00  0.00    -0.275 OA
ENDROOT
BRANCH   1   4
ATOM      4  C   UNL     1       2.820  -2.633  -2.576  0.00  0.00    +0.140 A 
ATOM      5  C   UNL     1       3.501  -3.555  -1.808  0.00  0.00    +0.127 A 
ATOM      6  N   UNL     1       4.867  -3.660  -1.938  0.00  0.00    -0.280 N 
ATOM      7  C   UNL     1       5.530  -2.873  -2.804  0.00  0.00    +0.331 A 
ATOM      8  O   UNL     1       6.737  -2.980  -2.904  0.00  0.00    -0.246 OA
ATOM      9  N   UNL     1       4.883  -1.969  -3.561  0.00  0.00    -0.273 N 
ATOM     10  H   UNL     1       5.384  -1.413  -4.178  0.00  0.00    +0.173 HD
ATOM     11  C   UNL     1       3.546  -1.830  -3.476  0.00  0.00    +0.277 A 
ATOM     12  O   UNL     1       2.968  -1.011  -4.170  0.00  0.00    -0.266 OA
BRANCH   5  13
ATOM     13  N   UNL     1       2.824  -4.359  -0.922  0.00  0.00    -0.343 N 
ATOM     14  H   UNL     1       1.872  -4.231  -0.782  0.00  0.00    +0.144 HD
ATOM     15  H   UNL     1       3.297  -5.053  -0.438  0.00  0.00    +0.144 HD
ENDBRANCH   5  13
BRANCH   6  16
ATOM     16  C   UNL     1       5.603  -4.635  -1.129  0.00  0.00    +0.128 C 
BRANCH  16  17
ATOM     17  C   UNL     1       5.684  -5.964  -1.881  0.00  0.00    +0.018 C 
ATOM     18  C   UNL     1       6.453  -6.982  -1.036  0.00  0.00    +0.005 C 
ENDBRANCH  16  17
ENDBRANCH   6  16
ENDBRANCH   1   4
BRANCH   1  19
ATOM     19  C   UNL     1       0.826  -2.014  -1.217  0.00  0.00    +0.114 C 
BRANCH  19  20
ATOM     20  C   UNL     1       0.816  -0.484  -1.221  0.00  0.00    +0.019 C 
BRANCH  20  22
ATOM     21  C   UNL     1       0.186   1.555   0.078  0.00  0.00    +0.004 C 
ATOM     22  C   UNL     1       0.196   0.025   0.082  0.00  0.00    -0.002 C 
ENDBRANCH  20  22
ENDBRANCH  19  20
ENDBRANCH   1  19
BRANCH   2  23
ATOM     23  C   UNL     1      -0.857  -2.572  -3.434  0.00  0.00    +0.115 C 
BRANCH  23  24
ATOM     24  C   UNL     1      -1.517  -3.025  -4.737  0.00  0.00    +0.115 C 
BRANCH  24  25
ATOM     25  N   UNL     1      -2.960  -2.779  -4.665  0.00  0.00    -0.299 N 
ATOM     26  C   UNL     1      -3.751  -3.102  -5.707  0.00  0.00    +0.300 C 
ATOM     27  O   UNL     1      -3.268  -3.597  -6.707  0.00  0.00    -0.253 OA
ATOM     28  N   UNL     1      -5.078  -2.876  -5.640  0.00  0.00    -0.294 N 
ATOM     29  H   UNL     1      -3.345  -2.384  -3.867  0.00  0.00    +0.150 HD
ATOM     30  H   UNL     1      -5.464  -2.481  -4.843  0.00  0.00    +0.151 HD
BRANCH  28  31
ATOM     31  C   UNL     1      -5.939  -3.227  -6.773  0.00  0.00    +0.037 C 
ATOM     32  C   UNL     1      -5.493  -2.449  -8.012  0.00  0.00    +0.029 C 
ATOM     33  C   UNL     1      -6.392  -2.815  -9.195  0.00  0.00    -0.008 C 
ATOM     34  C   UNL     1      -7.842  -2.458  -8.863  0.00  0.00    +0.007 C 
ATOM     35  C   UNL     1      -8.288  -3.236  -7.624  0.00  0.00    -0.008 C 
ATOM     36  C   UNL     1      -7.389  -2.870  -6.441  0.00  0.00    +0.029 C 
ATOM     37  C   UNL     1      -8.182  -4.738  -7.899  0.00  0.00    +0.007 C 
ATOM     38  C   UNL     1      -6.732  -5.095  -8.230  0.00  0.00    -0.008 C 
ATOM     39  C   UNL     1      -6.286  -4.317  -9.470  0.00  0.00    +0.007 C 
ATOM     40  C   UNL     1      -5.833  -4.728  -7.048  0.00  0.00    +0.029 C 
ENDBRANCH  28  31
ENDBRANCH  24  25
ENDBRANCH  23  24
ENDBRANCH   2  23
TORSDOF 11
