REMARK  Name = ZINC06301627
REMARK  7 active torsions:
REMARK  status: ('A' for Active; 'I' for Inactive)
REMARK    1  A    between atoms: C_1  and  C_2
REMARK    2  A    between atoms: C_4  and  C_33
REMARK    3  A    between atoms: C_7  and  C_14
REMARK    4  A    between atoms: C_14  and  C_16
REMARK    5  A    between atoms: C_14  and  N_66
REMARK    6  A    between atoms: N_20  and  C_21
REMARK    7  A    between atoms: C_29  and  C_32
REMARK                            x       y       z     vdW  Elec       q    Type
REMARK                         _______ _______ _______ _____ _____    ______ ____
ROOT
ATOM      1  C   UNL     1       4.873   4.287  -0.024  0.00  0.00    +0.039 C 
ENDROOT
BRANCH   1   8
ATOM      2  C   UNL     1      -1.297  -0.767   0.010  0.00  0.00    +0.044 C 
ATOM      3  C   UNL     1       0.002  -0.004   0.002  0.00  0.00    -0.048 A 
ATOM      4  C   UNL     1       1.205  -0.697  -0.013  0.00  0.00    +0.007 A 
ATOM      5  C   UNL     1       2.394  -0.024  -0.020  0.00  0.00    -0.041 A 
ATOM      6  C   UNL     1       2.400   1.375  -0.013  0.00  0.00    +0.002 A 
ATOM      7  C   UNL     1       3.656   2.127  -0.022  0.00  0.00    +0.018 A 
ATOM      8  C   UNL     1       3.599   3.482  -0.015  0.00  0.00    +0.011 A 
ATOM      9  C   UNL     1       2.351   4.141   0.001  0.00  0.00    +0.251 A 
ATOM     10  O   UNL     1       2.323   5.360   0.007  0.00  0.00    -0.268 OA
ATOM     11  N   UNL     1       1.193   3.459   0.009  0.00  0.00    -0.322 N 
ATOM     12  H   UNL     1       0.353   3.944   0.019  0.00  0.00    +0.169 HD
ATOM     13  C   UNL     1       1.182   2.080   0.002  0.00  0.00    +0.050 A 
ATOM     14  C   UNL     1      -0.017   1.374   0.010  0.00  0.00    +0.029 A 
ATOM     15  C   UNL     1       3.695  -0.785  -0.036  0.00  0.00    +0.044 C 
ENDBRANCH   1   8
BRANCH   1  22
ATOM     16  C   UNL     1       4.568   4.511   2.367  0.00  0.00    -0.077 C 
ATOM     17  C   UNL     1       4.435   5.526   3.505  0.00  0.00    -0.015 C 
ATOM     18  C   UNL     1       5.745   6.306   3.643  0.00  0.00    -0.018 C 
ATOM     19  C   UNL     1       6.066   6.990   2.311  0.00  0.00    -0.015 C 
ATOM     20  C   UNL     1       6.152   5.932   1.208  0.00  0.00    -0.077 C 
ATOM     21  C   UNL     1       5.597   7.364   4.738  0.00  0.00    +0.007 C 
ATOM     22  N   UNL     1       4.853   5.234   1.110  0.00  0.00    +0.389 N 
ATOM     23  H   UNL     1       4.113   5.928   0.950  0.00  0.00    -0.080 HD
ENDBRANCH   1  22
BRANCH   1  24
ATOM     24  C   UNL     1       4.965   5.069  -1.309  0.00  0.00    +0.143 A 
ATOM     25  N   UNL     1       4.283   6.144  -1.621  0.00  0.00    -0.115 NA
ATOM     26  N   UNL     1       4.644   6.516  -2.800  0.00  0.00    -0.023 NA
ATOM     27  N   UNL     1       5.534   5.702  -3.252  0.00  0.00    -0.044 NA
ATOM     28  N   UNL     1       5.758   4.796  -2.361  0.00  0.00    -0.227 N 
BRANCH  28  29
ATOM     29  C   UNL     1       6.700   3.679  -2.474  0.00  0.00    +0.111 C 
ATOM     30  C   UNL     1       8.115   4.225  -2.678  0.00  0.00    +0.027 C 
ATOM     31  C   UNL     1       9.099   3.059  -2.796  0.00  0.00    +0.002 C 
ATOM     32  C   UNL     1       8.712   2.184  -3.990  0.00  0.00    +0.000 C 
ATOM     33  C   UNL     1       7.298   1.639  -3.786  0.00  0.00    +0.002 C 
ATOM     34  C   UNL     1       6.314   2.804  -3.668  0.00  0.00    +0.027 C 
ENDBRANCH  28  29
ENDBRANCH   1  24
TORSDOF 4
