REMARK  Name = ZINC09124230
REMARK  19 active torsions:
REMARK  status: ('A' for Active; 'I' for Inactive)
REMARK    1  A    between atoms: C_1  and  C_2
REMARK    2  A    between atoms: C_2  and  O_3
REMARK    3  A    between atoms: O_3  and  C_4
REMARK    4  A    between atoms: C_6  and  C_16
REMARK    5  A    between atoms: C_9  and  O_10
REMARK    6  A    between atoms: O_10  and  C_11
REMARK    7  A    between atoms: C_11  and  C_12
REMARK    8  A    between atoms: C_12  and  C_13
REMARK    9  A    between atoms: C_13  and  C_14
REMARK   10  A    between atoms: C_13  and  C_15
REMARK   11  A    between atoms: C_18  and  C_28
REMARK   12  A    between atoms: C_19  and  O_27
REMARK   13  A    between atoms: N_22  and  C_23
REMARK   14  A    between atoms: C_23  and  C_24
REMARK   15  A    between atoms: C_24  and  N_79
REMARK   16  A    between atoms: C_25  and  N_79
REMARK   17  A    between atoms: C_26  and  N_79
REMARK   18  A    between atoms: C_28  and  C_30
REMARK   19  A    between atoms: C_37  and  C_40
REMARK                            x       y       z     vdW  Elec       q    Type
REMARK                         _______ _______ _______ _____ _____    ______ ____
ROOT
ATOM      1  C   UNL     1       4.767   1.241  -0.249  0.00  0.00    +0.144 C 
ATOM      2  C   UNL     1       5.397   1.388  -1.614  0.00  0.00    +0.071 C 
ATOM      3  C   UNL     1       6.630   1.913  -1.419  0.00  0.00    +0.188 C 
ATOM      4  C   UNL     1       6.847   2.120   0.028  0.00  0.00    +0.282 C 
ATOM      5  O   UNL     1       7.859   2.576   0.523  0.00  0.00    -0.267 OA
ATOM      6  N   UNL     1       5.760   1.728   0.716  0.00  0.00    -0.285 N 
ENDROOT
BRANCH   1   9
ATOM      7  C   UNL     1       1.120   2.215  -0.087  0.00  0.00    +0.162 A 
ATOM      8  C   UNL     1       2.275   1.453  -0.164  0.00  0.00    +0.055 A 
ATOM      9  C   UNL     1       3.512   2.071  -0.165  0.00  0.00    -0.019 A 
ATOM     10  C   UNL     1       3.600   3.449  -0.088  0.00  0.00    +0.009 A 
ATOM     11  C   UNL     1       2.452   4.214  -0.011  0.00  0.00    +0.050 A 
ATOM     12  C   UNL     1       1.209   3.602  -0.016  0.00  0.00    +0.162 A 
BRANCH   7  13
ATOM     13  O   UNL     1      -0.097   1.609  -0.087  0.00  0.00    -0.489 OA
BRANCH  13  15
ATOM     14  C   UNL     1      -1.554  -0.313   0.068  0.00  0.00    +0.048 C 
ATOM     15  C   UNL     1      -0.111   0.180  -0.051  0.00  0.00    +0.226 C 
ENDBRANCH  13  15
ENDBRANCH   7  13
BRANCH  12  16
ATOM     16  O   UNL     1       0.078   4.354   0.054  0.00  0.00    -0.488 OA
BRANCH  16  17
ATOM     17  C   UNL     1       0.245   5.772   0.124  0.00  0.00    +0.229 C 
BRANCH  17  18
ATOM     18  C   UNL     1      -1.127   6.444   0.197  0.00  0.00    +0.044 C 
BRANCH  18  19
ATOM     19  C   UNL     1      -0.948   7.962   0.272  0.00  0.00    -0.014 C 
ATOM     20  C   UNL     1      -2.319   8.640   0.219  0.00  0.00    +0.007 C 
ATOM     21  C   UNL     1      -0.249   8.328   1.583  0.00  0.00    +0.007 C 
ENDBRANCH  18  19
ENDBRANCH  17  18
ENDBRANCH  16  17
ENDBRANCH  12  16
ENDBRANCH   1   9
BRANCH   3  22
ATOM     22  O   UNL     1       7.522   2.201  -2.395  0.00  0.00    -0.502 OA
ATOM     23  H   UNL     1       8.354   2.577  -1.986  0.00  0.00    +0.292 HD
ENDBRANCH   3  22
BRANCH   2  24
ATOM     24  C   UNL     1       4.789   1.032  -2.901  0.00  0.00    +0.195 C 
ATOM     25  O   UNL     1       4.514   1.903  -3.705  0.00  0.00    -0.287 OA
BRANCH  24  26
ATOM     26  C   UNL     1       4.511  -0.382  -3.219  0.00  0.00    +0.023 A 
ATOM     27  C   UNL     1       4.752  -1.379  -2.269  0.00  0.00    +0.015 A 
ATOM     28  C   UNL     1       4.484  -2.694  -2.564  0.00  0.00    +0.046 A 
ATOM     29  C   UNL     1       3.981  -3.049  -3.818  0.00  0.00    +0.124 A 
ATOM     30  C   UNL     1       3.756  -2.054  -4.764  0.00  0.00    -0.002 A 
ATOM     31  C   UNL     1       4.011  -0.736  -4.477  0.00  0.00    +0.019 A 
ATOM     32  C   UNL     1       3.240  -2.740  -6.015  0.00  0.00    +0.083 C 
ATOM     33  C   UNL     1       3.597  -4.219  -5.739  0.00  0.00    +0.175 C 
ATOM     34  O   UNL     1       3.641  -4.274  -4.303  0.00  0.00    -0.488 OA
ATOM     35  C   UNL     1       4.962  -4.568  -6.336  0.00  0.00    +0.052 C 
ENDBRANCH  24  26
ENDBRANCH   2  24
BRANCH   6  36
ATOM     36  C   UNL     1       5.596   1.778   2.171  0.00  0.00    +0.090 C 
BRANCH  36  37
ATOM     37  C   UNL     1       6.086   0.465   2.785  0.00  0.00    -0.060 C 
BRANCH  37  40
ATOM     38  C   UNL     1       4.501   0.564   4.612  0.00  0.00    -0.097 C 
ATOM     39  C   UNL     1       6.595  -0.620   4.889  0.00  0.00    -0.097 C 
ATOM     40  N   UNL     1       5.934   0.540   4.253  0.00  0.00    +0.377 N 
ATOM     41  H   UNL     1       6.377   1.402   4.591  0.00  0.00    -0.083 HD
ENDBRANCH  37  40
ENDBRANCH  36  37
ENDBRANCH   6  36
TORSDOF 13
