REMARK  Name = ZINC31922881
REMARK  8 active torsions:
REMARK  status: ('A' for Active; 'I' for Inactive)
REMARK    1  A    between atoms: C_1  and  C_2
REMARK    2  A    between atoms: C_2  and  C_3
REMARK    3  A    between atoms: C_3  and  N_4
REMARK    4  A    between atoms: C_5  and  C_7
REMARK    5  A    between atoms: C_7  and  N_8
REMARK    6  A    between atoms: C_11  and  N_14
REMARK    7  A    between atoms: C_15  and  C_17
REMARK    8  A    between atoms: C_22  and  O_23
REMARK                            x       y       z     vdW  Elec       q    Type
REMARK                         _______ _______ _______ _____ _____    ______ ____
ROOT
ATOM      1  N   UNL     1      -5.374   8.230  -0.721  0.00  0.00    +0.385 N 
ATOM      2  C   UNL     1      -5.112   7.888   0.683  0.00  0.00    -0.076 C 
ATOM      3  C   UNL     1      -3.798   7.109   0.782  0.00  0.00    +0.004 C 
ATOM      4  C   UNL     1      -3.900   5.836  -0.063  0.00  0.00    +0.070 C 
ATOM      5  C   UNL     1      -4.221   6.218  -1.510  0.00  0.00    +0.004 C 
ATOM      6  C   UNL     1      -5.523   7.023  -1.543  0.00  0.00    -0.076 C 
ATOM      7  H   UNL     1      -4.504   8.788  -1.098  0.00  0.00    -0.081 HD
ENDROOT
BRANCH   4   8
ATOM      8  N   UNL     1      -2.625   5.116  -0.018  0.00  0.00    -0.309 N 
ATOM      9  C   UNL     1      -2.595   3.785  -0.233  0.00  0.00    +0.248 C 
ATOM     10  O   UNL     1      -3.626   3.183  -0.463  0.00  0.00    -0.270 OA
ATOM     11  H   UNL     1      -1.693   5.660   0.191  0.00  0.00    +0.149 HD
BRANCH   9  12
ATOM     12  C   UNL     1      -1.311   3.060  -0.188  0.00  0.00    +0.079 A 
ATOM     13  C   UNL     1      -0.124   3.748   0.077  0.00  0.00    +0.032 A 
ATOM     14  C   UNL     1       1.072   3.064   0.118  0.00  0.00    +0.019 A 
ATOM     15  C   UNL     1       1.103   1.696  -0.103  0.00  0.00    +0.019 A 
ATOM     16  C   UNL     1      -0.063   1.004  -0.365  0.00  0.00    +0.047 A 
ATOM     17  C   UNL     1      -1.275   1.678  -0.415  0.00  0.00    +0.129 A 
ATOM     18 BR   UNL     1       2.678   3.996   0.476  0.00  0.00    -0.050 Br
BRANCH  17  19
ATOM     19  O   UNL     1      -2.420   1.000  -0.679  0.00  0.00    -0.506 OA
ATOM     20  H   UNL     1      -2.389  -0.085  -0.858  0.00  0.00    +0.292 HD
ENDBRANCH  17  19
ENDBRANCH   9  12
ENDBRANCH   4   8
BRANCH   1  21
ATOM     21  C   UNL     1      -6.555   9.097  -0.840  0.00  0.00    +0.019 C 
BRANCH  21  23
ATOM     22  N   UNL     1      -7.247  11.346  -0.077  0.00  0.00    -0.317 N 
ATOM     23  C   UNL     1      -6.265  10.431  -0.201  0.00  0.00    +0.196 C 
ATOM     24  O   UNL     1      -5.149  10.680   0.202  0.00  0.00    -0.278 OA
ATOM     25  H   UNL     1      -8.259  11.119  -0.443  0.00  0.00    +0.149 HD
BRANCH  22  26
ATOM     26  C   UNL     1      -6.965  12.642   0.544  0.00  0.00    +0.104 C 
BRANCH  26  28
ATOM     27  C   UNL     1      -7.946  14.842   1.208  0.00  0.00    +0.005 C 
ATOM     28  C   UNL     1      -8.240  13.488   0.560  0.00  0.00    +0.015 C 
ENDBRANCH  26  28
ENDBRANCH  22  26
ENDBRANCH  21  23
ENDBRANCH   1  21
TORSDOF 7
