REMARK  Name = ZINC12705200
REMARK  13 active torsions:
REMARK  status: ('A' for Active; 'I' for Inactive)
REMARK    1  A    between atoms: C_1  and  C_2
REMARK    2  A    between atoms: C_5  and  N_8
REMARK    3  A    between atoms: N_8  and  C_9
REMARK    4  A    between atoms: C_9  and  C_11
REMARK    5  A    between atoms: C_9  and  C_15
REMARK    6  A    between atoms: C_11  and  C_12
REMARK    7  A    between atoms: C_12  and  C_13
REMARK    8  A    between atoms: C_12  and  C_14
REMARK    9  A    between atoms: N_17  and  C_18
REMARK   10  A    between atoms: C_24  and  C_26
REMARK   11  A    between atoms: C_26  and  N_27
REMARK   12  A    between atoms: C_29  and  C_32
REMARK   13  A    between atoms: C_35  and  C_37
REMARK                            x       y       z     vdW  Elec       q    Type
REMARK                         _______ _______ _______ _____ _____    ______ ____
ROOT
ATOM      1  N   UNL     1      -2.078   0.605   1.369  0.00  0.00    -0.258 N 
ATOM      2  C   UNL     1      -3.263   1.191   1.107  0.00  0.00    +0.244 C 
ATOM      3  O   UNL     1      -3.329   2.395   0.977  0.00  0.00    -0.273 OA
ENDROOT
BRANCH   1   8
ATOM      4  C   UNL     1      -1.698  -5.052   1.576  0.00  0.00    +0.044 C 
ATOM      5  C   UNL     1      -1.799  -3.549   1.521  0.00  0.00    -0.050 A 
ATOM      6  C   UNL     1      -2.453  -2.864   2.529  0.00  0.00    +0.005 A 
ATOM      7  C   UNL     1      -2.547  -1.487   2.482  0.00  0.00    +0.024 A 
ATOM      8  C   UNL     1      -1.984  -0.790   1.420  0.00  0.00    +0.037 A 
ATOM      9  C   UNL     1      -1.333  -1.481   0.407  0.00  0.00    +0.024 A 
ATOM     10  C   UNL     1      -1.238  -2.858   0.463  0.00  0.00    +0.005 A 
ENDBRANCH   1   8
BRANCH   1  11
ATOM     11  C   UNL     1      -0.889   1.428   1.600  0.00  0.00    +0.167 C 
BRANCH  11  12
ATOM     12  C   UNL     1      -0.320   1.119   2.961  0.00  0.00    +0.234 C 
ATOM     13  O   UNL     1      -0.856   0.292   3.668  0.00  0.00    -0.274 OA
ATOM     14  N   UNL     1       0.784   1.761   3.391  0.00  0.00    -0.311 N 
ATOM     15  H   UNL     1       1.212   2.422   2.825  0.00  0.00    +0.149 HD
BRANCH  14  16
ATOM     16  C   UNL     1       1.337   1.461   4.714  0.00  0.00    +0.073 C 
ATOM     17  C   UNL     1       0.615   2.299   5.771  0.00  0.00    +0.022 C 
ATOM     18  C   UNL     1       1.192   1.986   7.153  0.00  0.00    +0.002 C 
ATOM     19  C   UNL     1       2.685   2.319   7.169  0.00  0.00    +0.000 C 
ATOM     20  C   UNL     1       3.407   1.481   6.112  0.00  0.00    +0.002 C 
ATOM     21  C   UNL     1       2.830   1.795   4.731  0.00  0.00    +0.022 C 
ENDBRANCH  14  16
ENDBRANCH  11  12
BRANCH  11  22
ATOM     22  C   UNL     1       0.159   1.122   0.527  0.00  0.00    +0.035 C 
BRANCH  22  23
ATOM     23  C   UNL     1      -0.367   1.563  -0.840  0.00  0.00    -0.015 C 
ATOM     24  C   UNL     1      -0.514   3.086  -0.863  0.00  0.00    +0.007 C 
ATOM     25  C   UNL     1       0.616   1.129  -1.929  0.00  0.00    +0.007 C 
ENDBRANCH  22  23
ENDBRANCH  11  22
ENDBRANCH   1  11
BRANCH   2  26
ATOM     26  C   UNL     1      -4.507   0.351   0.977  0.00  0.00    +0.264 C 
BRANCH  26  27
ATOM     27  N   UNL     1      -5.630   1.200   0.569  0.00  0.00    -0.154 N 
ATOM     28  N   UNL     1      -6.433   1.810   1.372  0.00  0.00    -0.127 NA
ATOM     29  C   UNL     1      -7.308   2.473   0.639  0.00  0.00    +0.239 A 
ATOM     30  N   UNL     1      -6.999   2.228  -0.643  0.00  0.00    -0.105 NA
ATOM     31  N   UNL     1      -5.971   1.448  -0.647  0.00  0.00    -0.045 NA
BRANCH  29  32
ATOM     32  C   UNL     1      -8.415   3.318   1.136  0.00  0.00    +0.175 A 
ATOM     33  C   UNL     1      -9.307   3.996   0.367  0.00  0.00    +0.053 A 
ATOM     34  C   UNL     1     -10.182   4.661   1.250  0.00  0.00    +0.045 A 
ATOM     35  C   UNL     1      -9.778   4.366   2.501  0.00  0.00    +0.103 A 
ATOM     36  O   UNL     1      -8.711   3.555   2.428  0.00  0.00    -0.457 OA
ATOM     37  C   UNL     1     -10.418   4.865   3.771  0.00  0.00    +0.086 C 
ENDBRANCH  29  32
ENDBRANCH  26  27
ENDBRANCH   2  26
TORSDOF 9
