REMARK  Name = ZINC37311604
REMARK  3 active torsions:
REMARK  status: ('A' for Active; 'I' for Inactive)
REMARK    1  A    between atoms: C_1  and  C_2
REMARK    2  A    between atoms: C_5  and  C_9
REMARK    3  A    between atoms: C_6  and  O_8
REMARK                            x       y       z     vdW  Elec       q    Type
REMARK                         _______ _______ _______ _____ _____    ______ ____
ROOT
ATOM      1  C   UNL     1       0.061  -4.254  -0.034  0.00  0.00    +0.143 A 
ATOM      2  N   UNL     1       0.071  -5.032  -1.161  0.00  0.00    -0.338 N 
ATOM      3  H   UNL     1       0.067  -4.717  -2.079  0.00  0.00    +0.167 HD
ATOM      4  C   UNL     1       0.089  -6.352  -0.747  0.00  0.00    +0.070 A 
ATOM      5  C   UNL     1       0.104  -7.568  -1.414  0.00  0.00    +0.077 A 
ATOM      6  C   UNL     1       0.122  -8.751  -0.697  0.00  0.00    +0.164 A 
ATOM      7  C   UNL     1       0.126  -8.727   0.699  0.00  0.00    +0.164 A 
ATOM      8  C   UNL     1       0.108  -7.523   1.374  0.00  0.00    +0.079 A 
ATOM      9  C   UNL     1       0.090  -6.321   0.658  0.00  0.00    +0.093 A 
ATOM     10  N   UNL     1       0.077  -5.017   1.032  0.00  0.00    -0.227 NA
ATOM     11  O   UNL     1       0.152  -9.887   1.413  0.00  0.00    -0.485 OA
ATOM     12  C   UNL     1      -0.206 -11.083   0.713  0.00  0.00    +0.270 C 
ATOM     13  C   UNL     1       0.533 -11.093  -0.632  0.00  0.00    +0.270 C 
ATOM     14  O   UNL     1       0.134  -9.934  -1.372  0.00  0.00    -0.485 OA
ENDROOT
BRANCH   1  19
ATOM     15  C   UNL     1      -0.018   1.503   0.010  0.00  0.00    +0.044 C 
ATOM     16  C   UNL     1       0.002  -0.004   0.002  0.00  0.00    -0.047 A 
ATOM     17  C   UNL     1       0.006  -0.686  -1.203  0.00  0.00    +0.004 A 
ATOM     18  C   UNL     1       0.025  -2.065  -1.222  0.00  0.00    +0.015 A 
ATOM     19  C   UNL     1       0.041  -2.777  -0.021  0.00  0.00    +0.059 A 
ATOM     20  C   UNL     1       0.037  -2.083   1.196  0.00  0.00    +0.128 A 
ATOM     21  C   UNL     1       0.023  -0.698   1.197  0.00  0.00    +0.049 A 
BRANCH  20  22
ATOM     22  O   UNL     1       0.052  -2.766   2.369  0.00  0.00    -0.506 OA
ATOM     23  H   UNL     1       0.939  -2.952   2.705  0.00  0.00    +0.292 HD
ENDBRANCH  20  22
ENDBRANCH   1  19
TORSDOF 2
