REMARK  Name = ZINC39731372
REMARK  9 active torsions:
REMARK  status: ('A' for Active; 'I' for Inactive)
REMARK    1  A    between atoms: C_1  and  C_2
REMARK    2  A    between atoms: C_2  and  N_3
REMARK    3  A    between atoms: N_3  and  C_4
REMARK    4  A    between atoms: N_3  and  C_6
REMARK    5  A    between atoms: C_4  and  C_5
REMARK    6  A    between atoms: C_9  and  C_12
REMARK    7  A    between atoms: C_18  and  S_22
REMARK    8  A    between atoms: S_22  and  C_23
REMARK    9  A    between atoms: C_23  and  C_24
REMARK                            x       y       z     vdW  Elec       q    Type
REMARK                         _______ _______ _______ _____ _____    ______ ____
ROOT
ATOM      1  C   UNL     1      -3.986  -1.519   4.943  0.00  0.00    +0.073 C 
ATOM      2  C   UNL     1      -4.386  -2.989   5.022  0.00  0.00    +0.156 C 
ATOM      3  C   UNL     1      -5.320  -3.196   6.182  0.00  0.00    +0.145 C 
ATOM      4  N   UNL     1      -5.163  -4.221   6.994  0.00  0.00    -0.208 NA
ATOM      5  C   UNL     1      -4.123  -5.048   6.897  0.00  0.00    +0.182 C 
ATOM      6  N   UNL     1      -3.146  -4.862   6.018  0.00  0.00    -0.154 NA
ATOM      7  C   UNL     1      -3.195  -3.887   5.137  0.00  0.00    +0.250 C 
ATOM      8  O   UNL     1      -2.248  -3.724   4.391  0.00  0.00    -0.273 OA
ATOM      9  N   UNL     1      -6.270  -2.298   6.424  0.00  0.00    -0.236 NA
ATOM     10  C   UNL     1      -6.320  -1.134   5.805  0.00  0.00    +0.050 C 
ATOM     11  C   UNL     1      -5.242  -0.679   5.037  0.00  0.00    +0.025 C 
ATOM     12  C   UNL     1      -5.295   0.497   4.371  0.00  0.00    +0.162 C 
ATOM     13  O   UNL     1      -4.241   0.871   3.624  0.00  0.00    -0.292 OA
ATOM     14  C   UNL     1      -6.496   1.398   4.441  0.00  0.00    +0.080 C 
ATOM     15  C   UNL     1      -7.751   0.565   4.712  0.00  0.00    +0.014 C 
ATOM     16  C   UNL     1      -7.535  -0.256   5.987  0.00  0.00    +0.056 C 
ENDROOT
BRANCH   1  20
ATOM     17  C   UNL     1      -2.016  -0.759   1.227  0.00  0.00    +0.030 A 
ATOM     18  C   UNL     1      -1.356  -0.520   2.426  0.00  0.00    +0.023 A 
ATOM     19  C   UNL     1      -1.996  -0.767   3.625  0.00  0.00    +0.006 A 
ATOM     20  C   UNL     1      -3.291  -1.251   3.633  0.00  0.00    -0.039 A 
ATOM     21  C   UNL     1      -3.951  -1.490   2.441  0.00  0.00    +0.006 A 
ATOM     22  C   UNL     1      -3.319  -1.240   1.239  0.00  0.00    +0.023 A 
BRANCH  17  23
ATOM     23  N   UNL     1      -1.372  -0.511   0.012  0.00  0.00    -0.330 N 
BRANCH  23  25
ATOM     24  C   UNL     1      -0.019   1.526   0.010  0.00  0.00    +0.024 C 
ATOM     25  C   UNL     1       0.002  -0.004   0.002  0.00  0.00    +0.102 C 
ENDBRANCH  23  25
BRANCH  23  26
ATOM     26  C   UNL     1      -2.072  -0.758  -1.251  0.00  0.00    +0.102 C 
ATOM     27  C   UNL     1      -1.816  -2.197  -1.703  0.00  0.00    +0.024 C 
ENDBRANCH  23  26
ENDBRANCH  17  23
ENDBRANCH   1  20
BRANCH   5  28
ATOM     28  S   UNL     1      -4.041  -6.439   7.976  0.00  0.00    -0.084 S 
BRANCH  28  29
ATOM     29  C   UNL     1      -2.497  -7.268   7.507  0.00  0.00    +0.115 C 
BRANCH  29  30
ATOM     30  C   UNL     1      -2.303  -8.491   8.365  0.00  0.00    -0.002 A 
ATOM     31  C   UNL     1      -1.622  -8.394   9.563  0.00  0.00    +0.007 A 
ATOM     32  C   UNL     1      -1.443  -9.516  10.351  0.00  0.00    +0.000 A 
ATOM     33  C   UNL     1      -1.946 -10.737   9.940  0.00  0.00    +0.003 A 
ATOM     34  C   UNL     1      -2.627 -10.837   8.742  0.00  0.00    +0.038 A 
ATOM     35  C   UNL     1      -2.811  -9.712   7.955  0.00  0.00    +0.127 A 
ATOM     36  F   UNL     1      -3.482  -9.807   6.786  0.00  0.00    -0.205 F 
ENDBRANCH  29  30
ENDBRANCH  28  29
ENDBRANCH   5  28
TORSDOF 7
