REMARK  Name = ZINC37991171
REMARK  6 active torsions:
REMARK  status: ('A' for Active; 'I' for Inactive)
REMARK    1  A    between atoms: C_1  and  C_2
REMARK    2  A    between atoms: C_5  and  N_10
REMARK    3  A    between atoms: C_6  and  C_9
REMARK    4  A    between atoms: C_7  and  O_8
REMARK    5  A    between atoms: N_10  and  S_11
REMARK    6  A    between atoms: S_11  and  C_14
REMARK                            x       y       z     vdW  Elec       q    Type
REMARK                         _______ _______ _______ _____ _____    ______ ____
ROOT
ATOM      1  N   UNL     1       0.059  -4.171  -0.026  0.00  0.00    -0.216 N 
ATOM      2  H   UNL     1      -0.686  -4.668   0.346  0.00  0.00    +0.174 HD
ENDROOT
BRANCH   1   7
ATOM      3  C   UNL     1       0.138   1.494   0.289  0.00  0.00    +0.047 C 
ATOM      4  C   UNL     1       0.117  -0.011   0.207  0.00  0.00    -0.009 A 
ATOM      5  C   UNL     1       0.020  -0.633  -1.023  0.00  0.00    +0.009 A 
ATOM      6  C   UNL     1       0.001  -2.012  -1.103  0.00  0.00    +0.025 A 
ATOM      7  C   UNL     1       0.079  -2.777   0.055  0.00  0.00    +0.054 A 
ATOM      8  C   UNL     1       0.177  -2.153   1.291  0.00  0.00    +0.014 A 
ATOM      9  C   UNL     1       0.201  -0.769   1.366  0.00  0.00    +0.124 A 
ATOM     10  C   UNL     1       0.263  -2.979   2.548  0.00  0.00    +0.049 C 
BRANCH   9  11
ATOM     11  O   UNL     1       0.302  -0.155   2.574  0.00  0.00    -0.506 OA
ATOM     12  H   UNL     1      -0.549   0.030   2.993  0.00  0.00    +0.292 HD
ENDBRANCH   9  11
ENDBRANCH   1   7
BRANCH   1  13
ATOM     13  S   UNL     1       1.309  -4.976  -0.756  0.00  0.00    +0.075 S 
ATOM     14  O   UNL     1       0.999  -6.361  -0.681  0.00  0.00    -0.150 OA
ATOM     15  O   UNL     1       1.552  -4.315  -1.990  0.00  0.00    -0.150 OA
BRANCH  13  16
ATOM     16  C   UNL     1       2.741  -4.727   0.239  0.00  0.00    +0.143 A 
ATOM     17  C   UNL     1       3.338  -5.800   0.873  0.00  0.00    +0.032 A 
ATOM     18  C   UNL     1       4.462  -5.605   1.654  0.00  0.00    +0.002 A 
ATOM     19  C   UNL     1       4.991  -4.336   1.801  0.00  0.00    +0.003 A 
ATOM     20  C   UNL     1       4.396  -3.261   1.168  0.00  0.00    +0.040 A 
ATOM     21  C   UNL     1       3.273  -3.456   0.382  0.00  0.00    +0.150 A 
ATOM     22  F   UNL     1       2.694  -2.407  -0.242  0.00  0.00    -0.203 F 
ENDBRANCH  13  16
ENDBRANCH   1  13
TORSDOF 4
