REMARK  Name = ZINC04651210
REMARK  9 active torsions:
REMARK  status: ('A' for Active; 'I' for Inactive)
REMARK    1  A    between atoms: C_1  and  C_2
REMARK    2  A    between atoms: C_3  and  C_22
REMARK    3  A    between atoms: C_4  and  C_20
REMARK    4  A    between atoms: C_5  and  N_7
REMARK    5  A    between atoms: C_8  and  C_10
REMARK    6  A    between atoms: C_16  and  C_18
REMARK    7  A    between atoms: C_25  and  C_28
REMARK    8  A    between atoms: C_28  and  C_29
REMARK    9  A    between atoms: C_28  and  C_30
REMARK                            x       y       z     vdW  Elec       q    Type
REMARK                         _______ _______ _______ _____ _____    ______ ____
ROOT
ATOM      1  C   UNL     1      -3.533   4.092   6.281  0.00  0.00    +0.052 C 
ATOM      2  C   UNL     1      -2.758   4.173   4.991  0.00  0.00    -0.003 A 
ATOM      3  C   UNL     1      -2.288   5.279   4.359  0.00  0.00    +0.011 A 
ATOM      4  C   UNL     1      -1.559   5.096   3.120  0.00  0.00    +0.088 A 
ATOM      5  C   UNL     1      -1.407   3.791   2.667  0.00  0.00    +0.090 A 
ATOM      6  S   UNL     1      -2.238   2.842   3.926  0.00  0.00    -0.077 S 
ENDROOT
BRANCH   3   7
ATOM      7  C   UNL     1      -2.507   6.632   4.922  0.00  0.00    -0.016 A 
ATOM      8  C   UNL     1      -3.799   7.149   5.019  0.00  0.00    +0.009 A 
ATOM      9  C   UNL     1      -3.998   8.407   5.550  0.00  0.00    +0.004 A 
ATOM     10  C   UNL     1      -2.918   9.160   5.974  0.00  0.00    -0.045 A 
ATOM     11  C   UNL     1      -1.634   8.655   5.875  0.00  0.00    +0.004 A 
ATOM     12  C   UNL     1      -1.423   7.396   5.352  0.00  0.00    +0.009 A 
BRANCH  10  13
ATOM     13  C   UNL     1      -3.141  10.536   6.547  0.00  0.00    +0.013 C 
ATOM     14  C   UNL     1      -3.822  11.420   5.500  0.00  0.00    +0.012 C 
ATOM     15  C   UNL     1      -4.033  10.434   7.786  0.00  0.00    +0.012 C 
ENDBRANCH  10  13
ENDBRANCH   3   7
BRANCH   5  16
ATOM     16  N   UNL     1      -0.764   3.340   1.523  0.00  0.00    -0.279 N 
ATOM     17  C   UNL     1      -0.717   2.020   1.253  0.00  0.00    +0.222 C 
ATOM     18  O   UNL     1      -1.235   1.227   2.010  0.00  0.00    -0.275 OA
ATOM     19  H   UNL     1      -0.350   3.974   0.917  0.00  0.00    +0.155 HD
BRANCH  17  20
ATOM     20  C   UNL     1      -0.019   1.530   0.011  0.00  0.00    +0.093 C 
ATOM     21  C   UNL     1       0.733   0.234   0.320  0.00  0.00    +0.040 C 
ATOM     22  C   UNL     1      -0.239  -0.886   0.549  0.00  0.00    -0.030 C 
ATOM     23  C   UNL     1      -1.482  -0.853   0.188  0.00  0.00    -0.030 C 
ATOM     24  C   UNL     1      -2.126   0.315  -0.501  0.00  0.00    +0.042 C 
ATOM     25  C   UNL     1      -1.055   1.240  -1.083  0.00  0.00    +0.118 C 
BRANCH  25  26
ATOM     26  C   UNL     1      -1.687   2.530  -1.537  0.00  0.00    +0.360 C 
ATOM     27  O   UNL     1      -1.346   3.578  -1.040  0.00  0.00    -0.246 OA
ATOM     28  O   UNL     1      -2.628   2.517  -2.494  0.00  0.00    -0.246 OA
ENDBRANCH  25  26
ENDBRANCH  17  20
ENDBRANCH   5  16
BRANCH   4  29
ATOM     29  C   UNL     1      -1.023   6.208   2.395  0.00  0.00    +0.102 C 
ATOM     30  N   UNL     1      -0.598   7.090   1.819  0.00  0.00    -0.191 NA
ENDBRANCH   4  29
TORSDOF 6
