REMARK  Name = ZINC13065059
REMARK  12 active torsions:
REMARK  status: ('A' for Active; 'I' for Inactive)
REMARK    1  A    between atoms: C_1  and  C_2
REMARK    2  A    between atoms: C_2  and  C_3
REMARK    3  A    between atoms: C_3  and  C_5
REMARK    4  A    between atoms: C_3  and  N_68
REMARK    5  A    between atoms: N_9  and  C_10
REMARK    6  A    between atoms: C_10  and  C_11
REMARK    7  A    between atoms: C_17  and  C_18
REMARK    8  A    between atoms: C_17  and  N_68
REMARK    9  A    between atoms: C_24  and  C_25
REMARK   10  A    between atoms: C_24  and  N_68
REMARK   11  A    between atoms: C_30  and  C_38
REMARK   12  A    between atoms: C_31  and  C_37
REMARK                            x       y       z     vdW  Elec       q    Type
REMARK                         _______ _______ _______ _____ _____    ______ ____
ROOT
ATOM      1  N   UNL     1       4.262   0.523  -3.523  0.00  0.00    +0.392 N 
ATOM      2  H   UNL     1       4.592   0.539  -4.495  0.00  0.00    -0.080 HD
ENDROOT
BRANCH   1   3
ATOM      3  C   UNL     1       4.999   1.544  -2.749  0.00  0.00    +0.003 C 
BRANCH   3   4
ATOM      4  C   UNL     1       4.377   1.726  -1.388  0.00  0.00    +0.138 A 
ATOM      5  N   UNL     1       3.105   1.902  -1.126  0.00  0.00    -0.115 NA
ATOM      6  N   UNL     1       2.975   2.022   0.150  0.00  0.00    -0.023 NA
ATOM      7  N   UNL     1       4.130   1.922   0.709  0.00  0.00    -0.044 NA
ATOM      8  N   UNL     1       5.020   1.735  -0.206  0.00  0.00    -0.226 N 
BRANCH   8   9
ATOM      9  C   UNL     1       6.461   1.571   0.003  0.00  0.00    +0.182 C 
BRANCH   9  10
ATOM     10  C   UNL     1       6.778   0.109   0.189  0.00  0.00    -0.026 A 
ATOM     11  C   UNL     1       7.081  -0.677  -0.907  0.00  0.00    +0.005 A 
ATOM     12  C   UNL     1       7.372  -2.018  -0.737  0.00  0.00    +0.000 A 
ATOM     13  C   UNL     1       7.354  -2.574   0.528  0.00  0.00    +0.000 A 
ATOM     14  C   UNL     1       7.056  -1.786   1.625  0.00  0.00    +0.000 A 
ATOM     15  C   UNL     1       6.766  -0.446   1.455  0.00  0.00    +0.005 A 
ENDBRANCH   9  10
ENDBRANCH   8   9
ENDBRANCH   3   4
BRANCH   3  17
ATOM     16  C   UNL     1       5.588   2.686  -4.892  0.00  0.00    +0.002 C 
ATOM     17  C   UNL     1       4.953   2.869  -3.512  0.00  0.00    -0.011 C 
ENDBRANCH   3  17
ENDBRANCH   1   3
BRANCH   1  18
ATOM     18  C   UNL     1       2.814   0.820  -3.502  0.00  0.00    -0.040 C 
BRANCH  18  19
ATOM     19  C   UNL     1       2.548   1.991  -4.412  0.00  0.00    -0.046 A 
ATOM     20  C   UNL     1       2.020   3.169  -3.905  0.00  0.00    +0.005 A 
ATOM     21  C   UNL     1       1.795   4.221  -4.779  0.00  0.00    +0.020 A 
ATOM     22  C   UNL     1       2.093   4.059  -6.120  0.00  0.00    +0.111 A 
ATOM     23  N   UNL     1       2.589   2.922  -6.567  0.00  0.00    -0.263 NA
ATOM     24  C   UNL     1       2.820   1.902  -5.764  0.00  0.00    +0.112 A 
ENDBRANCH  18  19
ENDBRANCH   1  18
BRANCH   1  25
ATOM     25  C   UNL     1       4.511  -0.819  -2.954  0.00  0.00    -0.036 C 
BRANCH  25  26
ATOM     26  C   UNL     1       3.864  -1.851  -3.841  0.00  0.00    +0.001 A 
ATOM     27  C   UNL     1       4.587  -2.453  -4.817  0.00  0.00    +0.017 A 
ATOM     28  C   UNL     1       3.930  -3.455  -5.659  0.00  0.00    -0.001 A 
ATOM     29  C   UNL     1       4.626  -4.113  -6.678  0.00  0.00    +0.010 A 
ATOM     30  C   UNL     1       3.983  -5.039  -7.448  0.00  0.00    +0.004 A 
ATOM     31  C   UNL     1       2.644  -5.333  -7.229  0.00  0.00    -0.046 A 
ATOM     32  C   UNL     1       1.938  -4.698  -6.230  0.00  0.00    -0.024 A 
ATOM     33  C   UNL     1       2.572  -3.751  -5.433  0.00  0.00    +0.052 A 
ATOM     34  N   UNL     1       1.891  -3.100  -4.426  0.00  0.00    -0.322 N 
ATOM     35  H   UNL     1       0.956  -3.305  -4.272  0.00  0.00    +0.169 HD
ATOM     36  C   UNL     1       2.505  -2.184  -3.656  0.00  0.00    +0.251 A 
ATOM     37  O   UNL     1       1.871  -1.629  -2.775  0.00  0.00    -0.268 OA
ATOM     38  C   UNL     1       0.486  -5.028  -6.003  0.00  0.00    +0.046 C 
ATOM     39  C   UNL     1       1.955  -6.359  -8.092  0.00  0.00    +0.044 C 
ENDBRANCH  25  26
ENDBRANCH   1  25
TORSDOF 9
