REMARK  Name = ZINC12637872
REMARK  11 active torsions:
REMARK  status: ('A' for Active; 'I' for Inactive)
REMARK    1  A    between atoms: C_1  and  C_2
REMARK    2  A    between atoms: C_5  and  N_9
REMARK    3  A    between atoms: C_7  and  C_8
REMARK    4  A    between atoms: N_9  and  C_10
REMARK    5  A    between atoms: C_10  and  C_12
REMARK    6  A    between atoms: C_10  and  C_21
REMARK    7  A    between atoms: C_15  and  O_20
REMARK    8  A    between atoms: C_16  and  O_18
REMARK    9  A    between atoms: O_18  and  C_19
REMARK   10  A    between atoms: N_23  and  C_24
REMARK   11  A    between atoms: C_29  and  C_31
REMARK                            x       y       z     vdW  Elec       q    Type
REMARK                         _______ _______ _______ _____ _____    ______ ____
ROOT
ATOM      1  N   UNL     1       3.878  -2.119   0.359  0.00  0.00    -0.251 N 
ATOM      2  C   UNL     1       3.833  -0.777   0.472  0.00  0.00    +0.252 C 
ATOM      3  O   UNL     1       3.039  -0.257   1.231  0.00  0.00    -0.270 OA
ENDROOT
BRANCH   2   4
ATOM      4  C   UNL     1       4.749   0.061  -0.326  0.00  0.00    +0.041 A 
ATOM      5  C   UNL     1       5.961  -0.463  -0.782  0.00  0.00    +0.017 A 
ATOM      6  C   UNL     1       6.814   0.323  -1.525  0.00  0.00    +0.050 A 
ATOM      7  C   UNL     1       6.474   1.637  -1.824  0.00  0.00    +0.162 A 
ATOM      8  C   UNL     1       5.266   2.165  -1.375  0.00  0.00    +0.163 A 
ATOM      9  C   UNL     1       4.406   1.381  -0.628  0.00  0.00    +0.062 A 
ATOM     10  O   UNL     1       4.915   3.447  -1.667  0.00  0.00    -0.485 OA
ATOM     11  C   UNL     1       5.965   4.319  -2.100  0.00  0.00    +0.270 C 
ATOM     12  C   UNL     1       6.799   3.580  -3.155  0.00  0.00    +0.270 C 
ATOM     13  O   UNL     1       7.336   2.397  -2.552  0.00  0.00    -0.485 OA
ENDBRANCH   2   4
BRANCH   1  18
ATOM     14  C   UNL     1      -0.301  -5.288   2.521  0.00  0.00    +0.044 C 
ATOM     15  C   UNL     1       0.810  -4.446   1.946  0.00  0.00    -0.047 A 
ATOM     16  C   UNL     1       2.046  -4.419   2.566  0.00  0.00    +0.005 A 
ATOM     17  C   UNL     1       3.065  -3.648   2.042  0.00  0.00    +0.024 A 
ATOM     18  C   UNL     1       2.848  -2.901   0.892  0.00  0.00    +0.038 A 
ATOM     19  C   UNL     1       1.604  -2.927   0.275  0.00  0.00    +0.027 A 
ATOM     20  C   UNL     1       0.590  -3.703   0.801  0.00  0.00    -0.046 A 
ATOM     21  C   UNL     1      -0.759  -3.736   0.129  0.00  0.00    +0.044 C 
ENDBRANCH   1  18
BRANCH   1  22
ATOM     22  C   UNL     1       5.006  -2.760  -0.323  0.00  0.00    +0.198 C 
BRANCH  22  23
ATOM     23  C   UNL     1       4.793  -4.252  -0.353  0.00  0.00    -0.014 A 
ATOM     24  C   UNL     1       3.772  -4.787  -1.116  0.00  0.00    +0.010 A 
ATOM     25  C   UNL     1       3.572  -6.155  -1.148  0.00  0.00    +0.049 A 
ATOM     26  C   UNL     1       4.397  -6.992  -0.414  0.00  0.00    +0.158 A 
ATOM     27  C   UNL     1       5.425  -6.453   0.354  0.00  0.00    +0.162 A 
ATOM     28  C   UNL     1       5.622  -5.082   0.377  0.00  0.00    +0.055 A 
BRANCH  27  29
ATOM     29  O   UNL     1       6.237  -7.271   1.076  0.00  0.00    -0.491 OA
ATOM     30  C   UNL     1       7.271  -6.648   1.841  0.00  0.00    +0.277 C 
ENDBRANCH  27  29
BRANCH  26  31
ATOM     31  O   UNL     1       4.202  -8.338  -0.445  0.00  0.00    -0.503 OA
ATOM     32  H   UNL     1       4.695  -8.791  -1.143  0.00  0.00    +0.292 HD
ENDBRANCH  26  31
ENDBRANCH  22  23
BRANCH  22  33
ATOM     33  C   UNL     1       5.104  -2.238  -1.733  0.00  0.00    +0.239 C 
ATOM     34  O   UNL     1       4.309  -1.411  -2.130  0.00  0.00    -0.273 OA
ATOM     35  N   UNL     1       6.073  -2.688  -2.553  0.00  0.00    -0.311 N 
ATOM     36  H   UNL     1       6.709  -3.349  -2.235  0.00  0.00    +0.149 HD
BRANCH  35  37
ATOM     37  C   UNL     1       6.168  -2.180  -3.924  0.00  0.00    +0.073 C 
ATOM     38  C   UNL     1       5.283  -3.025  -4.863  0.00  0.00    +0.022 C 
ATOM     39  C   UNL     1       6.096  -3.108  -6.179  0.00  0.00    +0.002 C 
ATOM     40  C   UNL     1       7.553  -3.243  -5.672  0.00  0.00    +0.002 C 
ATOM     41  C   UNL     1       7.612  -2.319  -4.438  0.00  0.00    +0.022 C 
ENDBRANCH  35  37
ENDBRANCH  22  33
ENDBRANCH   1  22
TORSDOF 8
