REMARK  Name = ZINC63234404
REMARK  10 active torsions:
REMARK  status: ('A' for Active; 'I' for Inactive)
REMARK    1  A    between atoms: C_1  and  N_2
REMARK    2  A    between atoms: N_2  and  C_3
REMARK    3  A    between atoms: N_2  and  C_4
REMARK    4  A    between atoms: C_7  and  C_10
REMARK    5  A    between atoms: C_10  and  C_12
REMARK    6  A    between atoms: C_10  and  C_27
REMARK    7  A    between atoms: C_12  and  N_13
REMARK    8  A    between atoms: N_13  and  S_14
REMARK    9  A    between atoms: S_14  and  C_17
REMARK   10  A    between atoms: C_21  and  C_23
REMARK                            x       y       z     vdW  Elec       q    Type
REMARK                         _______ _______ _______ _____ _____    ______ ____
ROOT
ATOM      1  C   UNL     1      -0.006  -2.813  -4.924  0.00  0.00    +0.063 C 
ENDROOT
BRANCH   1   2
ATOM      2  C   UNL     1      -1.246  -2.457  -5.704  0.00  0.00    -0.033 C 
ATOM      3  C   UNL     1      -2.219  -3.301  -6.114  0.00  0.00    -0.000 A 
ATOM      4  C   UNL     1      -2.408  -4.749  -5.965  0.00  0.00    +0.010 A 
ATOM      5  C   UNL     1      -3.509  -5.326  -6.497  0.00  0.00    +0.001 A 
ATOM      6  C   UNL     1      -4.472  -4.578  -7.188  0.00  0.00    +0.002 A 
ATOM      7  C   UNL     1      -4.368  -3.244  -7.367  0.00  0.00    +0.026 A 
ATOM      8  C   UNL     1      -3.251  -2.533  -6.848  0.00  0.00    +0.043 A 
ATOM      9  N   UNL     1      -2.928  -1.264  -6.889  0.00  0.00    -0.380 N 
ATOM     10  C   UNL     1      -1.656  -1.081  -6.180  0.00  0.00    +0.145 C 
ATOM     11  H   UNL     1      -3.446  -0.561  -7.313  0.00  0.00    +0.160 HD
ENDBRANCH   1   2
BRANCH   1  15
ATOM     12  C   UNL     1       0.000  -0.696  -1.211  0.00  0.00    +0.029 A 
ATOM     13  C   UNL     1       0.013  -2.085  -1.221  0.00  0.00    +0.023 A 
ATOM     14  C   UNL     1       0.010  -2.766  -2.422  0.00  0.00    +0.006 A 
ATOM     15  C   UNL     1      -0.005  -2.066  -3.615  0.00  0.00    -0.039 A 
ATOM     16  C   UNL     1      -0.018  -0.684  -3.609  0.00  0.00    +0.006 A 
ATOM     17  C   UNL     1      -0.021   0.004  -2.411  0.00  0.00    +0.023 A 
BRANCH  12  19
ATOM     18  C   UNL     1      -0.018   1.461   0.010  0.00  0.00    +0.129 C 
ATOM     19  N   UNL     1       0.002  -0.004   0.002  0.00  0.00    -0.336 N 
ATOM     20  C   UNL     1       0.024  -0.743   1.267  0.00  0.00    +0.129 C 
ENDBRANCH  12  19
ENDBRANCH   1  15
BRANCH   1  21
ATOM     21  C   UNL     1       1.234  -2.427  -5.733  0.00  0.00    +0.118 C 
BRANCH  21  22
ATOM     22  N   UNL     1       1.295  -3.239  -6.951  0.00  0.00    -0.189 NA
ATOM     23  H   UNL     1       0.746  -4.035  -7.031  0.00  0.00    +0.148 HD
BRANCH  22  24
ATOM     24  S   UNL     1       2.302  -2.799  -8.190  0.00  0.00    +0.058 S 
ATOM     25  O   UNL     1       2.156  -3.787  -9.201  0.00  0.00    -0.153 OA
ATOM     26  O   UNL     1       2.067  -1.419  -8.433  0.00  0.00    -0.153 OA
BRANCH  24  27
ATOM     27  C   UNL     1       3.954  -2.932  -7.591  0.00  0.00    +0.106 A 
ATOM     28  C   UNL     1       4.557  -1.847  -6.981  0.00  0.00    +0.028 A 
ATOM     29  C   UNL     1       5.852  -1.951  -6.511  0.00  0.00    +0.002 A 
ATOM     30  C   UNL     1       6.545  -3.139  -6.650  0.00  0.00    +0.012 A 
ATOM     31  C   UNL     1       5.942  -4.224  -7.258  0.00  0.00    +0.057 A 
ATOM     32  C   UNL     1       4.644  -4.121  -7.725  0.00  0.00    +0.041 A 
BRANCH  31  33
ATOM     33  C   UNL     1       6.697  -5.519  -7.410  0.00  0.00    +0.417 C 
ATOM     34  F   UNL     1       7.977  -5.379  -6.864  0.00  0.00    -0.166 F 
ATOM     35  F   UNL     1       6.012  -6.539  -6.740  0.00  0.00    -0.166 F 
ATOM     36  F   UNL     1       6.802  -5.841  -8.768  0.00  0.00    -0.166 F 
ENDBRANCH  31  33
ENDBRANCH  24  27
ENDBRANCH  22  24
ENDBRANCH  21  22
ENDBRANCH   1  21
TORSDOF 8
