REMARK  Name = ZINC43527131
REMARK  7 active torsions:
REMARK  status: ('A' for Active; 'I' for Inactive)
REMARK    1  A    between atoms: C_4  and  C_7
REMARK    2  A    between atoms: C_7  and  C_8
REMARK    3  A    between atoms: N_11  and  C_14
REMARK    4  A    between atoms: C_14  and  C_15
REMARK    5  A    between atoms: C_24  and  C_26
REMARK    6  A    between atoms: C_26  and  N_27
REMARK    7  A    between atoms: C_28  and  C_30
REMARK                            x       y       z     vdW  Elec       q    Type
REMARK                         _______ _______ _______ _____ _____    ______ ____
ROOT
ATOM      1  C   UNL     1       6.727  -4.105   4.661  0.00  0.00    -0.041 C 
ATOM      2  C   UNL     1       7.907  -3.254   4.188  0.00  0.00    -0.076 C 
ATOM      3  N   UNL     1       8.972  -3.268   5.194  0.00  0.00    +0.383 N 
ATOM      4  C   UNL     1       8.496  -2.695   6.456  0.00  0.00    -0.078 C 
ATOM      5  C   UNL     1       7.335  -3.528   7.004  0.00  0.00    -0.015 C 
ATOM      6  C   UNL     1       7.057  -4.692   6.039  0.00  0.00    -0.015 C 
ATOM      7  C   UNL     1       8.337  -5.530   5.914  0.00  0.00    -0.010 C 
ATOM      8  C   UNL     1       9.467  -4.631   5.401  0.00  0.00    -0.051 C 
ATOM      9  H   UNL     1       9.734  -2.698   4.861  0.00  0.00    -0.081 HD
ENDROOT
BRANCH   1  10
ATOM     10  C   UNL     1       5.474  -3.233   4.762  0.00  0.00    -0.077 C 
BRANCH  10  14
ATOM     11  C   UNL     1       3.199  -2.449   1.245  0.00  0.00    -0.010 C 
ATOM     12  C   UNL     1       4.332  -3.478   1.196  0.00  0.00    -0.015 C 
ATOM     13  C   UNL     1       4.663  -3.934   2.618  0.00  0.00    -0.079 C 
ATOM     14  N   UNL     1       5.084  -2.779   3.421  0.00  0.00    +0.380 N 
ATOM     15  C   UNL     1       3.978  -1.821   3.532  0.00  0.00    -0.079 C 
ATOM     16  C   UNL     1       3.621  -1.284   2.145  0.00  0.00    -0.015 C 
ATOM     17  H   UNL     1       5.871  -2.332   2.976  0.00  0.00    -0.082 HD
BRANCH  11  18
ATOM     18  C   UNL     1       2.917  -1.930  -0.166  0.00  0.00    +0.038 C 
BRANCH  18  22
ATOM     19  C   UNL     1       1.409  -5.115  -2.582  0.00  0.00    +0.000 A 
ATOM     20  C   UNL     1       0.536  -4.319  -1.863  0.00  0.00    +0.000 A 
ATOM     21  C   UNL     1       1.024  -3.288  -1.082  0.00  0.00    +0.003 A 
ATOM     22  C   UNL     1       2.385  -3.054  -1.018  0.00  0.00    -0.047 A 
ATOM     23  C   UNL     1       3.258  -3.850  -1.735  0.00  0.00    +0.003 A 
ATOM     24  C   UNL     1       2.770  -4.880  -2.518  0.00  0.00    +0.000 A 
ENDBRANCH  18  22
ENDBRANCH  11  18
ENDBRANCH  10  14
ENDBRANCH   1  10
BRANCH   8  25
ATOM     25  C   UNL     1      10.604  -4.608   6.426  0.00  0.00    +0.089 C 
BRANCH  25  26
ATOM     26  N   UNL     1      11.639  -3.669   5.986  0.00  0.00    -0.310 N 
ATOM     27  C   UNL     1      12.742  -3.482   6.736  0.00  0.00    +0.279 C 
ATOM     28  O   UNL     1      12.879  -4.094   7.779  0.00  0.00    -0.267 OA
ATOM     29  H   UNL     1      11.529  -3.181   5.154  0.00  0.00    +0.149 HD
BRANCH  27  30
ATOM     30  C   UNL     1      13.778  -2.542   6.296  0.00  0.00    +0.189 A 
ATOM     31  C   UNL     1      14.942  -2.264   6.955  0.00  0.00    +0.054 A 
ATOM     32  C   UNL     1      15.628  -1.316   6.179  0.00  0.00    +0.042 A 
ATOM     33  C   UNL     1      14.863  -1.060   5.095  0.00  0.00    +0.196 A 
ATOM     34  O   UNL     1      13.751  -1.804   5.167  0.00  0.00    -0.458 OA
ENDBRANCH  27  30
ENDBRANCH  25  26
ENDBRANCH   8  25
TORSDOF 7
