REMARK  Name = ZINC09699859
REMARK  6 active torsions:
REMARK  status: ('A' for Active; 'I' for Inactive)
REMARK    1  A    between atoms: C_3  and  N_11
REMARK    2  A    between atoms: C_6  and  C_7
REMARK    3  A    between atoms: C_12  and  C_14
REMARK    4  A    between atoms: C_14  and  C_15
REMARK    5  A    between atoms: C_21  and  C_23
REMARK    6  A    between atoms: N_28  and  C_30
REMARK                            x       y       z     vdW  Elec       q    Type
REMARK                         _______ _______ _______ _____ _____    ______ ____
ROOT
ATOM      1  C   UNL     1      -1.904  -0.940  -6.583  0.00  0.00    +0.059 A 
ATOM      2  C   UNL     1      -1.211  -2.051  -6.234  0.00  0.00    +0.072 A 
ATOM      3  S   UNL     1      -0.705  -1.620  -4.576  0.00  0.00    -0.060 S 
ATOM      4  C   UNL     1      -1.445  -0.050  -4.515  0.00  0.00    +0.165 A 
ATOM      5  N   UNL     1      -2.009   0.037  -5.704  0.00  0.00    -0.229 NA
ATOM      6  N   UNL     1      -1.448   0.875  -3.477  0.00  0.00    -0.264 N 
ATOM      7  C   UNL     1      -0.812   0.594  -2.323  0.00  0.00    +0.224 C 
ATOM      8  O   UNL     1      -0.237  -0.465  -2.190  0.00  0.00    -0.275 OA
ATOM      9  H   UNL     1      -1.908   1.722  -3.584  0.00  0.00    +0.157 HD
ENDROOT
BRANCH   7  10
ATOM     10  C   UNL     1      -0.815   1.596  -1.198  0.00  0.00    +0.102 C 
ATOM     11  C   UNL     1      -2.235   1.761  -0.608  0.00  0.00    +0.110 C 
ATOM     12  C   UNL     1      -2.002   1.938   0.876  0.00  0.00    +0.221 C 
ATOM     13  O   UNL     1      -2.819   2.372   1.661  0.00  0.00    -0.275 OA
ATOM     14  N   UNL     1      -0.756   1.545   1.200  0.00  0.00    -0.271 N 
ATOM     15  C   UNL     1      -0.028   1.063   0.020  0.00  0.00    +0.127 C 
BRANCH  14  16
ATOM     16  C   UNL     1      -0.222   1.589   2.494  0.00  0.00    +0.036 A 
ATOM     17  C   UNL     1       1.077   1.155   2.725  0.00  0.00    +0.026 A 
ATOM     18  C   UNL     1       1.604   1.205   4.001  0.00  0.00    +0.040 A 
ATOM     19  C   UNL     1       0.834   1.678   5.051  0.00  0.00    +0.124 A 
ATOM     20  C   UNL     1      -0.462   2.107   4.823  0.00  0.00    +0.040 A 
ATOM     21  C   UNL     1      -0.991   2.063   3.548  0.00  0.00    +0.026 A 
ATOM     22  F   UNL     1       1.350   1.721   6.299  0.00  0.00    -0.205 F 
ENDBRANCH  14  16
ENDBRANCH   7  10
BRANCH   1  23
ATOM     23  C   UNL     1      -2.546  -0.827  -7.942  0.00  0.00    +0.152 C 
BRANCH  23  25
ATOM     24  N   UNL     1      -4.795  -0.379  -8.869  0.00  0.00    -0.285 N 
ATOM     25  C   UNL     1      -4.014  -0.524  -7.780  0.00  0.00    +0.223 C 
ATOM     26  O   UNL     1      -4.491  -0.411  -6.671  0.00  0.00    -0.275 OA
ATOM     27  H   UNL     1      -4.402  -0.402  -9.755  0.00  0.00    +0.155 HD
BRANCH  24  30
ATOM     28  C   UNL     1      -8.028   0.715  -7.500  0.00  0.00    +0.014 A 
ATOM     29  C   UNL     1      -6.667   0.534  -7.645  0.00  0.00    +0.024 A 
ATOM     30  C   UNL     1      -6.174  -0.194  -8.720  0.00  0.00    +0.033 A 
ATOM     31  C   UNL     1      -7.053  -0.734  -9.650  0.00  0.00    +0.024 A 
ATOM     32  C   UNL     1      -8.414  -0.554  -9.497  0.00  0.00    +0.014 A 
ATOM     33  C   UNL     1      -8.901   0.171  -8.425  0.00  0.00    +0.055 A 
BRANCH  33  34
ATOM     34  C   UNL     1     -10.386   0.370  -8.264  0.00  0.00    +0.417 C 
ATOM     35  F   UNL     1     -10.776   1.536  -8.931  0.00  0.00    -0.166 F 
ATOM     36  F   UNL     1     -11.065  -0.727  -8.807  0.00  0.00    -0.166 F 
ATOM     37  F   UNL     1     -10.697   0.484  -6.905  0.00  0.00    -0.166 F 
ENDBRANCH  33  34
ENDBRANCH  24  30
ENDBRANCH  23  25
ENDBRANCH   1  23
TORSDOF 6
