REMARK  Name = ZINC09262171
REMARK  8 active torsions:
REMARK  status: ('A' for Active; 'I' for Inactive)
REMARK    1  A    between atoms: C_1  and  C_2
REMARK    2  A    between atoms: C_4  and  C_17
REMARK    3  A    between atoms: C_5  and  C_16
REMARK    4  A    between atoms: N_6  and  C_7
REMARK    5  A    between atoms: C_11  and  N_13
REMARK    6  A    between atoms: N_18  and  C_19
REMARK    7  A    between atoms: C_20  and  C_28
REMARK    8  A    between atoms: N_30  and  C_31
REMARK                            x       y       z     vdW  Elec       q    Type
REMARK                         _______ _______ _______ _____ _____    ______ ____
ROOT
ATOM      1  C   UNL     1       6.783  -1.035   0.866  0.00  0.00    +0.114 A 
ATOM      2  C   UNL     1       6.047  -0.680  -0.270  0.00  0.00    +0.073 A 
ATOM      3  C   UNL     1       6.552  -1.032  -1.536  0.00  0.00    -0.023 A 
ATOM      4  C   UNL     1       7.736  -1.690  -1.562  0.00  0.00    -0.004 A 
ATOM      5  S   UNL     1       8.192  -1.860   0.142  0.00  0.00    -0.073 S 
ATOM      6  C   UNL     1       8.483  -2.170  -2.767  0.00  0.00    +0.043 C 
ATOM      7  C   UNL     1       7.536  -2.127  -3.975  0.00  0.00    +0.005 C 
ATOM      8  C   UNL     1       6.827  -0.769  -3.994  0.00  0.00    +0.005 C 
ATOM      9  C   UNL     1       5.831  -0.686  -2.837  0.00  0.00    +0.037 C 
ENDROOT
BRANCH   2  10
ATOM     10  C   UNL     1       4.775   0.038  -0.144  0.00  0.00    +0.251 C 
ATOM     11  O   UNL     1       4.761   1.255  -0.138  0.00  0.00    -0.270 OA
ATOM     12  N   UNL     1       3.621  -0.650  -0.035  0.00  0.00    -0.281 N 
ATOM     13  H   UNL     1       3.638  -1.617   0.037  0.00  0.00    +0.155 HD
BRANCH  12  14
ATOM     14  C   UNL     1       2.399   0.031  -0.026  0.00  0.00    +0.034 A 
ATOM     15  C   UNL     1       2.245   1.194  -0.770  0.00  0.00    +0.023 A 
ATOM     16  C   UNL     1       1.037   1.863  -0.759  0.00  0.00    +0.002 A 
ATOM     17  C   UNL     1      -0.018   1.377  -0.009  0.00  0.00    +0.000 A 
ATOM     18  C   UNL     1       0.132   0.219   0.732  0.00  0.00    +0.002 A 
ATOM     19  C   UNL     1       1.337  -0.455   0.726  0.00  0.00    +0.023 A 
ENDBRANCH  12  14
ENDBRANCH   2  10
BRANCH   1  21
ATOM     20  C   UNL     1       7.327  -1.228   3.096  0.00  0.00    +0.121 C 
ATOM     21  N   UNL     1       6.502  -0.813   2.167  0.00  0.00    -0.247 NA
BRANCH  20  25
ATOM     22  C   UNL     1       7.630  -1.141   8.184  0.00  0.00    +0.064 C 
ATOM     23  C   UNL     1       7.172  -0.957   6.760  0.00  0.00    +0.022 A 
ATOM     24  C   UNL     1       7.832  -1.381   5.668  0.00  0.00    +0.032 A 
ATOM     25  C   UNL     1       7.022  -0.986   4.509  0.00  0.00    +0.014 A 
ATOM     26  C   UNL     1       5.916  -0.335   5.021  0.00  0.00    +0.030 A 
ATOM     27  N   UNL     1       6.020  -0.332   6.373  0.00  0.00    -0.317 N 
ATOM     28  C   UNL     1       4.790   0.263   4.218  0.00  0.00    +0.064 C 
BRANCH  27  29
ATOM     29  C   UNL     1       5.084   0.236   7.248  0.00  0.00    +0.049 A 
ATOM     30  C   UNL     1       4.865   1.608   7.238  0.00  0.00    +0.026 A 
ATOM     31  C   UNL     1       3.942   2.165   8.101  0.00  0.00    +0.004 A 
ATOM     32  C   UNL     1       3.236   1.358   8.975  0.00  0.00    +0.033 A 
ATOM     33  C   UNL     1       3.451  -0.007   8.987  0.00  0.00    +0.128 A 
ATOM     34  C   UNL     1       4.369  -0.571   8.122  0.00  0.00    +0.058 A 
BRANCH  33  35
ATOM     35  N   UNL     1       2.693  -0.867   9.924  0.00  0.00    +0.056 N 
ATOM     36  O   UNL     1       1.881  -0.371  10.684  0.00  0.00    -0.126 OA
ATOM     37  O   UNL     1       2.883  -2.070   9.935  0.00  0.00    -0.126 OA
ENDBRANCH  33  35
ENDBRANCH  27  29
ENDBRANCH  20  25
ENDBRANCH   1  21
TORSDOF 6
