REMARK  Name = ZINC63165703
REMARK  4 active torsions:
REMARK  status: ('A' for Active; 'I' for Inactive)
REMARK    1  A    between atoms: C_8  and  C_25
REMARK    2  A    between atoms: C_12  and  C_17
REMARK    3  A    between atoms: C_28  and  N_34
REMARK    4  A    between atoms: C_29  and  N_31
REMARK                            x       y       z     vdW  Elec       q    Type
REMARK                         _______ _______ _______ _____ _____    ______ ____
ROOT
ATOM      1  C   UNL     1       0.091   1.365  -0.006  0.00  0.00    +0.001 A 
ATOM      2  C   UNL     1       1.290   2.092   0.002  0.00  0.00    +0.002 A 
ATOM      3  C   UNL     1       2.501   1.496   0.000  0.00  0.00    +0.026 A 
ATOM      4  C   UNL     1       2.608   0.080  -0.010  0.00  0.00    +0.043 A 
ATOM      5  N   UNL     1       3.654  -0.717   0.010  0.00  0.00    -0.376 N 
ATOM      6  C   UNL     1       3.187  -2.095  -0.109  0.00  0.00    +0.128 C 
ATOM      7  C   UNL     1       3.672  -2.983   1.040  0.00  0.00    +0.111 C 
ATOM      8  N   UNL     1       2.924  -4.249   0.994  0.00  0.00    -0.307 NA
ATOM      9  C   UNL     1       1.498  -4.089   1.293  0.00  0.00    +0.094 C 
ATOM     10  C   UNL     1       0.819  -3.248   0.195  0.00  0.00    +0.063 C 
ATOM     11  C   UNL     1       1.671  -2.015  -0.005  0.00  0.00    -0.028 C 
ATOM     12  C   UNL     1       1.354  -0.715  -0.010  0.00  0.00    -0.000 A 
ATOM     13  C   UNL     1       0.079   0.013  -0.012  0.00  0.00    +0.010 A 
ATOM     14  H   UNL     1       3.058  -4.716   0.110  0.00  0.00    +0.123 HD
ATOM     15  H   UNL     1       4.579  -0.437   0.091  0.00  0.00    +0.160 HD
ENDROOT
BRANCH  10  16
ATOM     16  C   UNL     1       0.760  -4.029  -1.093  0.00  0.00    -0.021 A 
ATOM     17  C   UNL     1       1.927  -4.347  -1.762  0.00  0.00    +0.007 A 
ATOM     18  C   UNL     1       1.874  -5.063  -2.943  0.00  0.00    +0.020 A 
ATOM     19  C   UNL     1       0.652  -5.461  -3.456  0.00  0.00    +0.042 A 
ATOM     20  C   UNL     1      -0.516  -5.144  -2.787  0.00  0.00    +0.040 A 
ATOM     21  C   UNL     1      -0.461  -4.431  -1.602  0.00  0.00    +0.046 A 
ATOM     22 CL   UNL     1      -1.926  -4.038  -0.757  0.00  0.00    -0.083 Cl
ATOM     23 CL   UNL     1       0.585  -6.360  -4.940  0.00  0.00    -0.083 Cl
ENDBRANCH  10  16
BRANCH   7  24
ATOM     24  C   UNL     1       5.145  -3.256   0.883  0.00  0.00    -0.026 A 
ATOM     25  C   UNL     1       5.576  -4.224  -0.005  0.00  0.00    +0.007 A 
ATOM     26  C   UNL     1       6.926  -4.477  -0.152  0.00  0.00    +0.026 A 
ATOM     27  C   UNL     1       7.851  -3.758   0.594  0.00  0.00    +0.060 A 
ATOM     28  C   UNL     1       7.415  -2.787   1.486  0.00  0.00    +0.147 A 
ATOM     29  C   UNL     1       6.064  -2.535   1.624  0.00  0.00    +0.040 A 
BRANCH  27  30
ATOM     30  N   UNL     1       9.217  -4.012   0.449  0.00  0.00    -0.328 N 
ATOM     31  C   UNL     1       9.993  -4.993   1.221  0.00  0.00    +0.105 C 
ATOM     32  C   UNL     1      11.455  -4.905   0.735  0.00  0.00    +0.020 C 
ATOM     33  C   UNL     1      11.530  -3.484   0.116  0.00  0.00    +0.020 C 
ATOM     34  C   UNL     1      10.117  -3.345  -0.509  0.00  0.00    +0.105 C 
ENDBRANCH  27  30
BRANCH  28  35
ATOM     35  N   UNL     1       8.397  -2.019   2.284  0.00  0.00    +0.058 N 
ATOM     36  O   UNL     1       8.016  -1.173   3.059  0.00  0.00    -0.126 OA
ATOM     37  O   UNL     1       9.579  -2.237   2.159  0.00  0.00    -0.126 OA
ENDBRANCH  28  35
ENDBRANCH   7  24
TORSDOF 4
