REMARK  Name = ZINC50563117
REMARK  7 active torsions:
REMARK  status: ('A' for Active; 'I' for Inactive)
REMARK    1  A    between atoms: C_1  and  C_2
REMARK    2  A    between atoms: C_8  and  C_10
REMARK    3  A    between atoms: C_11  and  C_13
REMARK    4  A    between atoms: C_14  and  N_22
REMARK    5  A    between atoms: C_15  and  C_19
REMARK    6  A    between atoms: C_19  and  C_20
REMARK    7  A    between atoms: C_19  and  C_21
REMARK                            x       y       z     vdW  Elec       q    Type
REMARK                         _______ _______ _______ _____ _____    ______ ____
ROOT
ATOM      1  C   UNL     1       0.476  -4.228   2.013  0.00  0.00    +0.168 A 
ATOM      2  C   UNL     1      -0.029  -5.179   2.936  0.00  0.00    +0.078 A 
ATOM      3  C   UNL     1       0.219  -6.393   2.377  0.00  0.00    +0.060 A 
ATOM      4  N   UNL     1       0.838  -6.166   1.189  0.00  0.00    -0.279 N 
ATOM      5  H   UNL     1       1.131  -6.857   0.574  0.00  0.00    +0.189 HD
ATOM      6  N   UNL     1       0.972  -4.904   0.993  0.00  0.00    -0.167 NA
ENDROOT
BRANCH   1  15
ATOM      7  C   UNL     1       0.470   1.521  -0.049  0.00  0.00    +0.009 C 
ATOM      8  C   UNL     1       0.481  -0.009  -0.050  0.00  0.00    +0.006 C 
ATOM      9  C   UNL     1       1.440  -0.513  -1.130  0.00  0.00    +0.006 C 
ATOM     10  C   UNL     1       1.427  -2.043  -1.153  0.00  0.00    +0.019 C 
ATOM     11  C   UNL     1       1.903  -2.575   0.202  0.00  0.00    +0.108 C 
ATOM     12  N   UNL     1       1.075  -1.980   1.260  0.00  0.00    -0.293 N 
ATOM     13  C   UNL     1       0.946  -0.518   1.319  0.00  0.00    +0.076 C 
ATOM     14  C   UNL     1       2.300   0.103   1.664  0.00  0.00    +0.028 C 
ATOM     15  C   UNL     1       0.447  -2.761   2.161  0.00  0.00    +0.269 C 
ATOM     16  O   UNL     1      -0.145  -2.256   3.096  0.00  0.00    -0.268 OA
ENDBRANCH   1  15
BRANCH   3  17
ATOM     17  C   UNL     1      -0.125  -7.738   2.965  0.00  0.00    +0.033 C 
ATOM     18  C   UNL     1      -1.067  -8.483   2.017  0.00  0.00    +0.014 C 
ATOM     19  C   UNL     1       1.155  -8.553   3.158  0.00  0.00    +0.014 C 
ENDBRANCH   3  17
BRANCH   2  20
ATOM     20  N   UNL     1      -0.653  -4.922   4.166  0.00  0.00    -0.355 N 
ATOM     21  H   UNL     1      -0.777  -4.007   4.464  0.00  0.00    +0.142 HD
ATOM     22  H   UNL     1      -0.960  -5.658   4.718  0.00  0.00    +0.142 HD
ENDBRANCH   2  20
TORSDOF 3
