REMARK  Name = ZINC13064680
REMARK  13 active torsions:
REMARK  status: ('A' for Active; 'I' for Inactive)
REMARK    1  A    between atoms: C_1  and  C_2
REMARK    2  A    between atoms: C_2  and  C_3
REMARK    3  A    between atoms: C_3  and  C_5
REMARK    4  A    between atoms: C_3  and  N_72
REMARK    5  A    between atoms: N_9  and  C_10
REMARK    6  A    between atoms: C_10  and  C_11
REMARK    7  A    between atoms: C_17  and  C_18
REMARK    8  A    between atoms: C_17  and  N_72
REMARK    9  A    between atoms: C_21  and  C_24
REMARK   10  A    between atoms: C_25  and  C_26
REMARK   11  A    between atoms: C_25  and  N_72
REMARK   12  A    between atoms: C_30  and  C_39
REMARK   13  A    between atoms: C_31  and  C_38
REMARK                            x       y       z     vdW  Elec       q    Type
REMARK                         _______ _______ _______ _____ _____    ______ ____
ROOT
ATOM      1  N   UNL     1      -0.450   1.495   1.362  0.00  0.00    +0.392 N 
ATOM      2  H   UNL     1      -0.334   0.791   2.100  0.00  0.00    -0.080 HD
ENDROOT
BRANCH   1   3
ATOM      3  C   UNL     1       0.426   2.649   1.657  0.00  0.00    +0.003 C 
BRANCH   3   4
ATOM      4  C   UNL     1      -0.044   3.872   0.912  0.00  0.00    +0.138 A 
ATOM      5  N   UNL     1      -1.222   4.439   1.003  0.00  0.00    -0.115 NA
ATOM      6  N   UNL     1      -1.236   5.456   0.212  0.00  0.00    -0.023 NA
ATOM      7  N   UNL     1      -0.098   5.553  -0.381  0.00  0.00    -0.044 NA
ATOM      8  N   UNL     1       0.667   4.597   0.028  0.00  0.00    -0.226 N 
BRANCH   8   9
ATOM      9  C   UNL     1       2.047   4.346  -0.392  0.00  0.00    +0.182 C 
BRANCH   9  10
ATOM     10  C   UNL     1       2.046   3.605  -1.705  0.00  0.00    -0.026 A 
ATOM     11  C   UNL     1       2.041   2.223  -1.718  0.00  0.00    +0.005 A 
ATOM     12  C   UNL     1       2.035   1.543  -2.922  0.00  0.00    +0.000 A 
ATOM     13  C   UNL     1       2.044   2.246  -4.112  0.00  0.00    +0.000 A 
ATOM     14  C   UNL     1       2.054   3.628  -4.099  0.00  0.00    +0.000 A 
ATOM     15  C   UNL     1       2.055   4.308  -2.895  0.00  0.00    +0.005 A 
ENDBRANCH   9  10
ENDBRANCH   8   9
ENDBRANCH   3   4
BRANCH   3  17
ATOM     16  C   UNL     1       0.916   1.702   3.917  0.00  0.00    +0.002 C 
ATOM     17  C   UNL     1       0.385   2.922   3.162  0.00  0.00    -0.011 C 
ENDBRANCH   3  17
ENDBRANCH   1   3
BRANCH   1  18
ATOM     18  C   UNL     1      -1.862   1.929   1.328  0.00  0.00    -0.042 C 
BRANCH  18  19
ATOM     19  C   UNL     1      -2.293   2.286   2.727  0.00  0.00    -0.064 A 
ATOM     20  C   UNL     1      -2.236   1.338   3.732  0.00  0.00    +0.002 A 
ATOM     21  C   UNL     1      -2.628   1.667   5.016  0.00  0.00    +0.003 A 
ATOM     22  C   UNL     1      -3.086   2.942   5.294  0.00  0.00    -0.050 A 
ATOM     23  C   UNL     1      -3.147   3.888   4.288  0.00  0.00    +0.003 A 
ATOM     24  C   UNL     1      -2.752   3.560   3.005  0.00  0.00    +0.002 A 
ATOM     25  C   UNL     1      -3.517   3.299   6.693  0.00  0.00    +0.044 C 
ENDBRANCH  18  19
ENDBRANCH   1  18
BRANCH   1  26
ATOM     26  C   UNL     1      -0.074   0.896   0.064  0.00  0.00    -0.036 C 
BRANCH  26  27
ATOM     27  C   UNL     1      -0.774  -0.431  -0.078  0.00  0.00    +0.001 A 
ATOM     28  C   UNL     1      -1.944  -0.508  -0.758  0.00  0.00    +0.017 A 
ATOM     29  C   UNL     1      -2.599  -1.813  -0.877  0.00  0.00    -0.001 A 
ATOM     30  C   UNL     1      -3.808  -1.955  -1.567  0.00  0.00    +0.013 A 
ATOM     31  C   UNL     1      -4.393  -3.186  -1.660  0.00  0.00    -0.047 A 
ATOM     32  C   UNL     1      -3.798  -4.297  -1.077  0.00  0.00    -0.046 A 
ATOM     33  C   UNL     1      -2.607  -4.180  -0.394  0.00  0.00    +0.030 A 
ATOM     34  C   UNL     1      -1.993  -2.937  -0.285  0.00  0.00    +0.049 A 
ATOM     35  N   UNL     1      -0.801  -2.791   0.392  0.00  0.00    -0.322 N 
ATOM     36  H   UNL     1      -0.385  -3.567   0.799  0.00  0.00    +0.169 HD
ATOM     37  C   UNL     1      -0.205  -1.590   0.492  0.00  0.00    +0.251 A 
ATOM     38  O   UNL     1       0.851  -1.499   1.095  0.00  0.00    -0.268 OA
ATOM     39  C   UNL     1      -4.462  -5.645  -1.193  0.00  0.00    +0.044 C 
ATOM     40  C   UNL     1      -5.695  -3.339  -2.403  0.00  0.00    +0.044 C 
ENDBRANCH  26  27
ENDBRANCH   1  26
TORSDOF 9
