REMARK  Name = ZINC40935434
REMARK  12 active torsions:
REMARK  status: ('A' for Active; 'I' for Inactive)
REMARK    1  A    between atoms: C_1  and  C_2
REMARK    2  A    between atoms: C_2  and  C_3
REMARK    3  A    between atoms: C_2  and  C_4
REMARK    4  A    between atoms: C_4  and  C_6
REMARK    5  A    between atoms: C_4  and  N_28
REMARK    6  A    between atoms: C_6  and  O_8
REMARK    7  A    between atoms: O_8  and  C_9
REMARK    8  A    between atoms: C_12  and  C_15
REMARK    9  A    between atoms: C_16  and  C_17
REMARK   10  A    between atoms: C_16  and  C_19
REMARK   11  A    between atoms: N_21  and  C_22
REMARK   12  A    between atoms: C_22  and  C_23
REMARK                            x       y       z     vdW  Elec       q    Type
REMARK                         _______ _______ _______ _____ _____    ______ ____
ROOT
ATOM      1  C   UNL     1      -1.596  -4.154   1.001  0.00  0.00    +0.132 A 
ATOM      2  C   UNL     1      -2.111  -5.019   0.042  0.00  0.00    +0.047 A 
ATOM      3  C   UNL     1      -1.840  -6.361   0.109  0.00  0.00    +0.011 A 
ATOM      4  C   UNL     1      -1.042  -6.861   1.148  0.00  0.00    -0.023 A 
ATOM      5  C   UNL     1      -0.525  -5.984   2.112  0.00  0.00    +0.011 A 
ATOM      6  C   UNL     1      -0.798  -4.643   2.031  0.00  0.00    +0.047 A 
ENDROOT
BRANCH   4   7
ATOM      7  C   UNL     1      -0.749  -8.294   1.226  0.00  0.00    +0.032 C 
ATOM      8  C   UNL     1      -0.588  -9.028   0.071  0.00  0.00    +0.114 C 
BRANCH   8   9
ATOM      9  C   UNL     1      -0.461 -10.492   0.142  0.00  0.00    +0.255 C 
ATOM     10  O   UNL     1      -0.498 -11.055   1.220  0.00  0.00    -0.269 OA
ATOM     11  N   UNL     1      -0.304 -11.210  -0.988  0.00  0.00    -0.304 N 
ATOM     12  H   UNL     1      -0.274 -10.762  -1.848  0.00  0.00    +0.149 HD
BRANCH  11  13
ATOM     13  C   UNL     1      -0.178 -12.668  -0.918  0.00  0.00    +0.179 C 
BRANCH  13  14
ATOM     14  C   UNL     1      -0.014 -13.226  -2.308  0.00  0.00    +0.122 A 
ATOM     15  C   UNL     1       1.155 -13.424  -2.944  0.00  0.00    +0.046 A 
ATOM     16  C   UNL     1       0.845 -13.958  -4.215  0.00  0.00    +0.041 A 
ATOM     17  C   UNL     1      -0.495 -14.054  -4.281  0.00  0.00    +0.195 A 
ATOM     18  O   UNL     1      -1.010 -13.615  -3.121  0.00  0.00    -0.466 OA
ENDBRANCH  13  14
ENDBRANCH  11  13
ENDBRANCH   8   9
BRANCH   8  19
ATOM     19  C   UNL     1      -0.544  -8.366  -1.198  0.00  0.00    +0.104 C 
ATOM     20  N   UNL     1      -0.510  -7.841  -2.204  0.00  0.00    -0.191 NA
ENDBRANCH   8  19
ENDBRANCH   4   7
BRANCH   1  21
ATOM     21  O   UNL     1      -1.867  -2.826   0.930  0.00  0.00    -0.425 OA
BRANCH  21  22
ATOM     22  C   UNL     1      -3.082  -2.409   1.321  0.00  0.00    +0.334 C 
ATOM     23  O   UNL     1      -3.925  -3.215   1.635  0.00  0.00    -0.248 OA
BRANCH  22  24
ATOM     24  C   UNL     1      -3.394  -0.935   1.368  0.00  0.00    +0.196 C 
BRANCH  24  25
ATOM     25  N   UNL     1      -4.773  -0.742   1.823  0.00  0.00    -0.220 N 
ATOM     26  C   UNL     1      -5.858  -1.231   1.195  0.00  0.00    +0.255 C 
ATOM     27  O   UNL     1      -5.849  -1.893   0.177  0.00  0.00    -0.270 OA
ATOM     28  C   UNL     1      -7.062  -0.830   1.953  0.00  0.00    +0.049 A 
ATOM     29  C   UNL     1      -8.422  -1.038   1.790  0.00  0.00    +0.014 A 
ATOM     30  C   UNL     1      -9.313  -0.508   2.709  0.00  0.00    +0.001 A 
ATOM     31  C   UNL     1      -8.855   0.227   3.786  0.00  0.00    +0.001 A 
ATOM     32  C   UNL     1      -7.497   0.443   3.962  0.00  0.00    +0.014 A 
ATOM     33  C   UNL     1      -6.594  -0.081   3.051  0.00  0.00    +0.049 A 
ATOM     34  C   UNL     1      -5.122  -0.057   2.927  0.00  0.00    +0.255 C 
ATOM     35  O   UNL     1      -4.354   0.492   3.693  0.00  0.00    -0.270 OA
ENDBRANCH  24  25
BRANCH  24  37
ATOM     36  C   UNL     1      -3.546   1.162   0.018  0.00  0.00    +0.009 C 
ATOM     37  C   UNL     1      -3.230  -0.334  -0.029  0.00  0.00    +0.015 C 
ATOM     38  C   UNL     1      -1.789  -0.535  -0.505  0.00  0.00    +0.009 C 
ENDBRANCH  24  37
ENDBRANCH  22  24
ENDBRANCH  21  22
ENDBRANCH   1  21
TORSDOF 10
