REMARK  Name = ZINC63531328
REMARK  12 active torsions:
REMARK  status: ('A' for Active; 'I' for Inactive)
REMARK    1  A    between atoms: C_1  and  C_2
REMARK    2  A    between atoms: C_5  and  S_8
REMARK    3  A    between atoms: S_8  and  C_9
REMARK    4  A    between atoms: C_13  and  O_33
REMARK    5  A    between atoms: C_17  and  C_19
REMARK    6  A    between atoms: N_21  and  C_22
REMARK    7  A    between atoms: C_22  and  C_23
REMARK    8  A    between atoms: C_26  and  O_29
REMARK    9  A    between atoms: O_29  and  C_30
REMARK   10  A    between atoms: C_30  and  C_31
REMARK   11  A    between atoms: C_30  and  C_32
REMARK   12  A    between atoms: O_33  and  C_34
REMARK                            x       y       z     vdW  Elec       q    Type
REMARK                         _______ _______ _______ _____ _____    ______ ____
ROOT
ATOM      1  C   UNL     1       1.195  -5.334   2.371  0.00  0.00    +0.030 C 
ATOM      2  C   UNL     1       1.268  -4.474   3.459  0.00  0.00    +0.010 A 
ATOM      3  C   UNL     1       1.173  -3.068   3.568  0.00  0.00    +0.014 A 
ATOM      4  C   UNL     1       1.285  -2.477   4.784  0.00  0.00    +0.046 A 
ATOM      5  C   UNL     1       1.495  -3.231   5.947  0.00  0.00    +0.122 A 
ATOM      6  C   UNL     1       1.596  -4.590   5.911  0.00  0.00    +0.071 A 
ATOM      7  C   UNL     1       1.488  -5.270   4.676  0.00  0.00    +0.048 A 
ATOM      8  N   UNL     1       1.550  -6.557   4.381  0.00  0.00    -0.369 N 
ATOM      9  C   UNL     1       1.370  -6.726   2.935  0.00  0.00    +0.204 C 
ATOM     10  H   UNL     1       1.689  -7.275   5.018  0.00  0.00    +0.161 HD
ENDROOT
BRANCH   9  11
ATOM     11  C   UNL     1       2.589  -7.380   2.336  0.00  0.00    +0.241 C 
ATOM     12  O   UNL     1       3.629  -7.409   2.959  0.00  0.00    -0.273 OA
ATOM     13  N   UNL     1       2.523  -7.931   1.108  0.00  0.00    -0.309 N 
ATOM     14  H   UNL     1       1.691  -7.908   0.610  0.00  0.00    +0.149 HD
BRANCH  13  15
ATOM     15  C   UNL     1       3.707  -8.566   0.526  0.00  0.00    +0.139 C 
BRANCH  15  16
ATOM     16  C   UNL     1       3.370  -9.100  -0.842  0.00  0.00    -0.030 A 
ATOM     17  C   UNL     1       2.888 -10.389  -0.981  0.00  0.00    +0.009 A 
ATOM     18  C   UNL     1       2.579 -10.880  -2.234  0.00  0.00    +0.046 A 
ATOM     19  C   UNL     1       2.751 -10.080  -3.354  0.00  0.00    +0.121 A 
ATOM     20  C   UNL     1       3.233  -8.787  -3.212  0.00  0.00    +0.046 A 
ATOM     21  C   UNL     1       3.537  -8.298  -1.956  0.00  0.00    +0.009 A 
BRANCH  19  22
ATOM     22  O   UNL     1       2.447 -10.562  -4.588  0.00  0.00    -0.489 OA
BRANCH  22  23
ATOM     23  C   UNL     1       1.867 -11.866  -4.651  0.00  0.00    +0.167 C 
ATOM     24  C   UNL     1       1.074 -12.010  -5.952  0.00  0.00    +0.051 C 
ATOM     25  C   UNL     1       2.976 -12.919  -4.611  0.00  0.00    +0.051 C 
ENDBRANCH  22  23
ENDBRANCH  19  22
ENDBRANCH  15  16
ENDBRANCH  13  15
ENDBRANCH   9  11
BRANCH   5  26
ATOM     26  O   UNL     1       1.600  -2.591   7.139  0.00  0.00    -0.495 OA
ATOM     27  C   UNL     1       1.488  -1.167   7.123  0.00  0.00    +0.277 C 
ENDBRANCH   5  26
BRANCH   1  28
ATOM     28  S   UNL     1       0.957  -4.920   0.781  0.00  0.00    -0.091 S 
BRANCH  28  33
ATOM     29  C   UNL     1      -4.636  -6.852  -0.409  0.00  0.00    +0.044 C 
ATOM     30  C   UNL     1      -3.240  -6.370  -0.112  0.00  0.00    -0.050 A 
ATOM     31  C   UNL     1      -2.449  -5.876  -1.133  0.00  0.00    +0.004 A 
ATOM     32  C   UNL     1      -1.169  -5.434  -0.865  0.00  0.00    +0.015 A 
ATOM     33  C   UNL     1      -0.676  -5.484   0.434  0.00  0.00    +0.013 A 
ATOM     34  C   UNL     1      -1.474  -5.980   1.457  0.00  0.00    +0.015 A 
ATOM     35  C   UNL     1      -2.755  -6.416   1.182  0.00  0.00    +0.004 A 
ENDBRANCH  28  33
ENDBRANCH   1  28
TORSDOF 8
