REMARK  Name = ZINC16623454
REMARK  4 active torsions:
REMARK  status: ('A' for Active; 'I' for Inactive)
REMARK    1  A    between atoms: C_1  and  N_2
REMARK    2  A    between atoms: C_12  and  S_13
REMARK    3  A    between atoms: S_13  and  C_14
REMARK    4  A    between atoms: C_14  and  C_15
REMARK                            x       y       z     vdW  Elec       q    Type
REMARK                         _______ _______ _______ _____ _____    ______ ____
ROOT
ATOM      1  C   UNL     1       7.328   2.790  -3.903  0.00  0.00    +0.154 C 
ATOM      2  N   UNL     1       7.896   2.815  -2.552  0.00  0.00    -0.290 N 
ATOM      3  C   UNL     1       9.238   2.884  -2.389  0.00  0.00    +0.262 A 
ATOM      4  O   UNL     1       9.990   2.924  -3.345  0.00  0.00    -0.267 OA
ATOM      5  C   UNL     1       9.754   2.900  -1.013  0.00  0.00    +0.065 A 
ATOM      6  C   UNL     1      11.119   2.964  -0.739  0.00  0.00    +0.015 A 
ATOM      7  C   UNL     1      11.545   2.977   0.561  0.00  0.00    +0.001 A 
ATOM      8  C   UNL     1      10.633   2.928   1.607  0.00  0.00    +0.002 A 
ATOM      9  C   UNL     1       9.290   2.865   1.367  0.00  0.00    +0.028 A 
ATOM     10  C   UNL     1       8.822   2.850   0.049  0.00  0.00    +0.079 A 
ATOM     11  N   UNL     1       7.506   2.789  -0.233  0.00  0.00    -0.223 NA
ATOM     12  C   UNL     1       7.068   2.775  -1.467  0.00  0.00    +0.172 A 
ENDROOT
BRANCH  12  13
ATOM     13  S   UNL     1       5.329   2.694  -1.741  0.00  0.00    -0.080 S 
BRANCH  13  14
ATOM     14  C   UNL     1       4.743   2.656  -0.029  0.00  0.00    +0.151 C 
BRANCH  14  15
ATOM     15  C   UNL     1       3.238   2.585  -0.015  0.00  0.00    +0.118 A 
ATOM     16  N   UNL     1       2.512   1.434  -0.014  0.00  0.00    -0.341 N 
ATOM     17  H   UNL     1       2.877   0.503  -0.022  0.00  0.00    +0.167 HD
ATOM     18  C   UNL     1       1.178   1.790   0.000  0.00  0.00    +0.066 A 
ATOM     19  C   UNL     1      -0.013   1.076   0.008  0.00  0.00    +0.028 A 
ATOM     20  C   UNL     1      -1.214   1.752   0.017  0.00  0.00    +0.002 A 
ATOM     21  C   UNL     1      -1.240   3.139   0.031  0.00  0.00    +0.002 A 
ATOM     22  C   UNL     1      -0.078   3.858   0.023  0.00  0.00    +0.030 A 
ATOM     23  C   UNL     1       1.151   3.194   0.008  0.00  0.00    +0.089 A 
ATOM     24  N   UNL     1       2.442   3.615  -0.002  0.00  0.00    -0.232 NA
ENDBRANCH  14  15
ENDBRANCH  13  14
ENDBRANCH  12  13
TORSDOF 3
