REMARK  Name = ZINC36207675
REMARK  11 active torsions:
REMARK  status: ('A' for Active; 'I' for Inactive)
REMARK    1  A    between atoms: C_1  and  C_2
REMARK    2  A    between atoms: C_7  and  C_8
REMARK    3  A    between atoms: C_17  and  C_19
REMARK    4  A    between atoms: C_19  and  N_20
REMARK    5  A    between atoms: N_20  and  C_21
REMARK    6  A    between atoms: N_20  and  C_34
REMARK    7  A    between atoms: C_21  and  C_22
REMARK    8  A    between atoms: C_22  and  C_24
REMARK    9  A    between atoms: C_22  and  O_33
REMARK   10  A    between atoms: C_24  and  O_25
REMARK   11  A    between atoms: O_25  and  C_26
REMARK                            x       y       z     vdW  Elec       q    Type
REMARK                         _______ _______ _______ _____ _____    ______ ____
ROOT
ATOM      1  C   UNL     1      -3.901   3.316   4.485  0.00  0.00    -0.003 C 
ENDROOT
BRANCH   1  11
ATOM      2  C   UNL     1      -4.198   7.861   1.058  0.00  0.00    +0.004 A 
ATOM      3  C   UNL     1      -3.838   9.007   1.684  0.00  0.00    +0.056 A 
ATOM      4  S   UNL     1      -3.434   8.467   3.334  0.00  0.00    -0.076 S 
ATOM      5  C   UNL     1      -3.754   6.732   3.147  0.00  0.00    +0.116 A 
ATOM      6  C   UNL     1      -4.172   6.613   1.811  0.00  0.00    +0.080 A 
ATOM      7  C   UNL     1      -4.507   5.289   1.382  0.00  0.00    +0.260 A 
ATOM      8  O   UNL     1      -4.877   5.084   0.238  0.00  0.00    -0.267 OA
ATOM      9  N   UNL     1      -4.408   4.274   2.260  0.00  0.00    -0.312 N 
ATOM     10  H   UNL     1      -4.633   3.374   1.975  0.00  0.00    +0.170 HD
ATOM     11  C   UNL     1      -3.997   4.483   3.537  0.00  0.00    +0.094 A 
ATOM     12  N   UNL     1      -3.676   5.678   3.955  0.00  0.00    -0.229 NA
BRANCH   2  19
ATOM     13  C   UNL     1      -6.918   7.166   0.356  0.00  0.00    +0.044 C 
ATOM     14  C   UNL     1      -5.924   7.543  -0.713  0.00  0.00    -0.043 A 
ATOM     15  C   UNL     1      -6.309   7.565  -2.038  0.00  0.00    +0.004 A 
ATOM     16  C   UNL     1      -5.398   7.911  -3.020  0.00  0.00    +0.000 A 
ATOM     17  C   UNL     1      -4.097   8.236  -2.680  0.00  0.00    +0.001 A 
ATOM     18  C   UNL     1      -3.701   8.218  -1.359  0.00  0.00    +0.009 A 
ATOM     19  C   UNL     1      -4.616   7.876  -0.364  0.00  0.00    -0.014 A 
ENDBRANCH   2  19
ENDBRANCH   1  11
BRANCH   1  20
ATOM     20  N   UNL     1      -3.570   3.804   5.831  0.00  0.00    +0.388 N 
ATOM     21  H   UNL     1      -2.744   4.382   5.786  0.00  0.00    -0.081 HD
BRANCH  20  22
ATOM     22  C   UNL     1      -3.320   2.661   6.719  0.00  0.00    -0.068 C 
ATOM     23  C   UNL     1      -1.968   2.605   7.434  0.00  0.00    -0.017 C 
ATOM     24  C   UNL     1      -2.264   1.644   6.280  0.00  0.00    -0.017 C 
ENDBRANCH  20  22
BRANCH  20  25
ATOM     25  C   UNL     1      -4.692   4.594   6.355  0.00  0.00    -0.043 C 
BRANCH  25  26
ATOM     26  C   UNL     1      -4.301   5.206   7.701  0.00  0.00    +0.135 C 
BRANCH  26  27
ATOM     27  O   UNL     1      -3.982   4.162   8.624  0.00  0.00    -0.390 OA
ATOM     28  H   UNL     1      -4.710   3.548   8.790  0.00  0.00    +0.210 HD
ENDBRANCH  26  27
BRANCH  26  29
ATOM     29  C   UNL     1      -5.470   6.028   8.247  0.00  0.00    +0.258 C 
BRANCH  29  30
ATOM     30  O   UNL     1      -5.066   6.693   9.445  0.00  0.00    -0.489 OA
BRANCH  30  31
ATOM     31  C   UNL     1      -5.994   7.472  10.062  0.00  0.00    +0.121 A 
ATOM     32  C   UNL     1      -7.269   7.589   9.527  0.00  0.00    +0.047 A 
ATOM     33  C   UNL     1      -8.211   8.381  10.155  0.00  0.00    +0.023 A 
ATOM     34  C   UNL     1      -7.883   9.057  11.316  0.00  0.00    +0.041 A 
ATOM     35  C   UNL     1      -6.612   8.943  11.851  0.00  0.00    +0.023 A 
ATOM     36  C   UNL     1      -5.670   8.147  11.230  0.00  0.00    +0.047 A 
ATOM     37 CL   UNL     1      -9.069  10.053  12.103  0.00  0.00    -0.084 Cl
ENDBRANCH  30  31
ENDBRANCH  29  30
ENDBRANCH  26  29
ENDBRANCH  25  26
ENDBRANCH  20  25
ENDBRANCH   1  20
TORSDOF 10
