REMARK  Name = ZINC26688675
REMARK  10 active torsions:
REMARK  status: ('A' for Active; 'I' for Inactive)
REMARK    1  A    between atoms: C_1  and  C_2
REMARK    2  A    between atoms: C_2  and  N_3
REMARK    3  A    between atoms: N_3  and  C_4
REMARK    4  A    between atoms: N_3  and  S_6
REMARK    5  A    between atoms: C_4  and  C_5
REMARK    6  A    between atoms: S_6  and  C_9
REMARK    7  A    between atoms: C_12  and  C_15
REMARK    8  A    between atoms: N_19  and  C_20
REMARK    9  A    between atoms: N_26  and  C_27
REMARK   10  A    between atoms: C_27  and  C_28
REMARK                            x       y       z     vdW  Elec       q    Type
REMARK                         _______ _______ _______ _____ _____    ______ ____
ROOT
ATOM      1  C   UNL     1       0.050  -4.266  -0.020  0.00  0.00    +0.058 A 
ATOM      2  C   UNL     1       0.175  -4.956   1.133  0.00  0.00    +0.075 A 
ATOM      3  S   UNL     1       0.149  -6.647   0.561  0.00  0.00    -0.059 S 
ATOM      4  C   UNL     1      -0.019  -6.316  -1.186  0.00  0.00    +0.152 A 
ATOM      5  N   UNL     1      -0.096  -7.166  -2.193  0.00  0.00    -0.336 N 
ATOM      6  N   UNL     1      -0.047  -4.942  -1.206  0.00  0.00    -0.316 N 
ATOM      7  H   UNL     1      -0.281  -6.796  -3.212  0.00  0.00    +0.168 HD
ENDROOT
BRANCH   1  11
ATOM      8  C   UNL     1      -0.025  -0.019   0.032  0.00  0.00    +0.106 A 
ATOM      9  C   UNL     1       1.008  -0.697   0.654  0.00  0.00    +0.029 A 
ATOM     10  C   UNL     1       1.036  -2.077   0.645  0.00  0.00    +0.012 A 
ATOM     11  C   UNL     1       0.024  -2.788  -0.002  0.00  0.00    -0.001 A 
ATOM     12  C   UNL     1      -1.012  -2.097  -0.632  0.00  0.00    +0.012 A 
ATOM     13  C   UNL     1      -1.031  -0.718  -0.611  0.00  0.00    +0.029 A 
BRANCH   8  14
ATOM     14  S   UNL     1      -0.057   1.742   0.054  0.00  0.00    +0.061 S 
ATOM     15  O   UNL     1       1.284   2.170   0.251  0.00  0.00    -0.153 OA
ATOM     16  O   UNL     1      -0.829   2.149  -1.067  0.00  0.00    -0.153 OA
BRANCH  14  17
ATOM     17  N   UNL     1      -0.902   2.200   1.402  0.00  0.00    -0.177 NA
BRANCH  17  19
ATOM     18  C   UNL     1       0.136   3.899   2.823  0.00  0.00    +0.022 C 
ATOM     19  C   UNL     1      -0.200   2.414   2.670  0.00  0.00    +0.106 C 
ENDBRANCH  17  19
BRANCH  17  20
ATOM     20  C   UNL     1      -2.353   2.392   1.327  0.00  0.00    +0.106 C 
ATOM     21  C   UNL     1      -3.060   1.109   1.766  0.00  0.00    +0.022 C 
ENDBRANCH  17  20
ENDBRANCH  14  17
ENDBRANCH   8  14
ENDBRANCH   1  11
BRANCH   5  22
ATOM     22  C   UNL     1       0.055  -8.507  -1.968  0.00  0.00    +0.041 A 
ATOM     23  C   UNL     1       1.332  -9.073  -1.936  0.00  0.00    +0.025 A 
ATOM     24  C   UNL     1       1.477 -10.425  -1.703  0.00  0.00    +0.002 A 
ATOM     25  C   UNL     1       0.361 -11.222  -1.514  0.00  0.00    +0.000 A 
ATOM     26  C   UNL     1      -0.907 -10.668  -1.551  0.00  0.00    +0.002 A 
ATOM     27  C   UNL     1      -1.067  -9.317  -1.777  0.00  0.00    +0.025 A 
ENDBRANCH   5  22
BRANCH   6  28
ATOM     28  C   UNL     1      -0.177  -4.215  -2.471  0.00  0.00    +0.159 C 
BRANCH  28  29
ATOM     29  C   UNL     1       1.182  -4.057  -3.102  0.00  0.00    -0.028 A 
ATOM     30  C   UNL     1       1.992  -2.997  -2.743  0.00  0.00    +0.005 A 
ATOM     31  C   UNL     1       3.241  -2.854  -3.319  0.00  0.00    +0.000 A 
ATOM     32  C   UNL     1       3.676  -3.767  -4.261  0.00  0.00    +0.000 A 
ATOM     33  C   UNL     1       2.864  -4.825  -4.624  0.00  0.00    +0.000 A 
ATOM     34  C   UNL     1       1.617  -4.970  -4.045  0.00  0.00    +0.005 A 
ENDBRANCH  28  29
ENDBRANCH   6  28
TORSDOF 8
