REMARK  Name = ZINC02111355
REMARK  13 active torsions:
REMARK  status: ('A' for Active; 'I' for Inactive)
REMARK    1  A    between atoms: C_1  and  C_2
REMARK    2  A    between atoms: C_2  and  O_3
REMARK    3  A    between atoms: O_3  and  C_4
REMARK    4  A    between atoms: C_4  and  C_6
REMARK    5  A    between atoms: C_7  and  C_38
REMARK    6  A    between atoms: C_11  and  C_13
REMARK    7  A    between atoms: C_15  and  C_21
REMARK    8  A    between atoms: C_16  and  C_20
REMARK    9  A    between atoms: C_18  and  C_19
REMARK   10  A    between atoms: C_21  and  O_22
REMARK   11  A    between atoms: O_22  and  C_23
REMARK   12  A    between atoms: C_34  and  C_36
REMARK   13  A    between atoms: C_34  and  C_37
REMARK                            x       y       z     vdW  Elec       q    Type
REMARK                         _______ _______ _______ _____ _____    ______ ____
ROOT
ATOM      1  C   UNL     1       7.096   3.601   0.686  0.00  0.00    +0.065 C 
ATOM      2  C   UNL     1       6.610   2.352   0.588  0.00  0.00    +0.016 C 
ATOM      3  N   UNL     1       6.040   1.919  -0.577  0.00  0.00    -0.321 N 
ATOM      4  C   UNL     1       6.293   2.563  -1.758  0.00  0.00    +0.016 C 
ATOM      5  C   UNL     1       6.772   3.825  -1.762  0.00  0.00    +0.024 C 
ATOM      6  C   UNL     1       7.024   4.557  -0.469  0.00  0.00    +0.092 C 
ATOM      7  C   UNL     1       7.050   4.491  -2.969  0.00  0.00    +0.162 C 
ATOM      8  O   UNL     1       7.474   5.630  -2.937  0.00  0.00    -0.292 OA
ATOM      9  C   UNL     1       6.833   3.821  -4.298  0.00  0.00    +0.086 C 
ATOM     10  C   UNL     1       6.998   2.308  -4.126  0.00  0.00    -0.023 C 
ATOM     11  C   UNL     1       6.021   1.831  -3.049  0.00  0.00    +0.058 C 
ATOM     12  C   UNL     1       8.432   1.993  -3.694  0.00  0.00    +0.011 C 
ATOM     13  C   UNL     1       6.692   1.600  -5.447  0.00  0.00    +0.011 C 
ATOM     14  C   UNL     1       6.694   1.421   1.771  0.00  0.00    +0.061 C 
ATOM     15  H   UNL     1       5.371   1.046  -0.571  0.00  0.00    +0.152 HD
ENDROOT
BRANCH   6  16
ATOM     16  C   UNL     1       5.906   5.538  -0.229  0.00  0.00    -0.032 A 
ATOM     17  C   UNL     1       4.608   5.085  -0.081  0.00  0.00    +0.012 A 
ATOM     18  C   UNL     1       3.582   5.985   0.138  0.00  0.00    -0.007 A 
ATOM     19  C   UNL     1       3.853   7.339   0.205  0.00  0.00    -0.044 A 
ATOM     20  C   UNL     1       5.151   7.792   0.062  0.00  0.00    +0.007 A 
ATOM     21  C   UNL     1       6.177   6.892  -0.157  0.00  0.00    -0.046 A 
ATOM     22  C   UNL     1       7.592   7.386  -0.318  0.00  0.00    +0.044 C 
ATOM     23  C   UNL     1       2.734   8.321   0.438  0.00  0.00    +0.044 C 
BRANCH  18  24
ATOM     24  C   UNL     1       2.168   5.490   0.299  0.00  0.00    +0.264 C 
BRANCH  24  25
ATOM     25  O   UNL     1       2.145   4.066   0.186  0.00  0.00    -0.486 OA
BRANCH  25  26
ATOM     26  C   UNL     1       0.936   3.456   0.308  0.00  0.00    +0.139 A 
ATOM     27  C   UNL     1      -0.204   4.214   0.533  0.00  0.00    +0.050 A 
ATOM     28  C   UNL     1      -1.432   3.593   0.657  0.00  0.00    +0.042 A 
ATOM     29  C   UNL     1      -1.526   2.215   0.553  0.00  0.00    +0.125 A 
ATOM     30  C   UNL     1      -0.389   1.457   0.334  0.00  0.00    +0.062 A 
ATOM     31  C   UNL     1       0.842   2.075   0.209  0.00  0.00    +0.085 A 
ATOM     32 CL   UNL     1       2.267   1.125  -0.073  0.00  0.00    -0.080 Cl
ATOM     33  F   UNL     1      -2.728   1.611   0.669  0.00  0.00    -0.205 F 
ENDBRANCH  25  26
ENDBRANCH  24  25
ENDBRANCH  18  24
ENDBRANCH   6  16
BRANCH   1  34
ATOM     34  C   UNL     1       7.688   4.022   1.899  0.00  0.00    +0.338 C 
ATOM     35  O   UNL     1       7.753   3.256   2.843  0.00  0.00    -0.245 OA
BRANCH  34  36
ATOM     36  O   UNL     1       8.181   5.273   2.011  0.00  0.00    -0.462 OA
BRANCH  36  38
ATOM     37  C   UNL     1       9.264   7.076   3.202  0.00  0.00    +0.048 C 
ATOM     38  C   UNL     1       8.765   5.631   3.266  0.00  0.00    +0.229 C 
ENDBRANCH  36  38
ENDBRANCH  34  36
ENDBRANCH   1  34
TORSDOF 7
