REMARK  Name = ZINC47442885
REMARK  9 active torsions:
REMARK  status: ('A' for Active; 'I' for Inactive)
REMARK    1  A    between atoms: C_1  and  C_2
REMARK    2  A    between atoms: C_2  and  C_4
REMARK    3  A    between atoms: C_2  and  O_16
REMARK    4  A    between atoms: N_12  and  C_13
REMARK    5  A    between atoms: O_16  and  C_17
REMARK    6  A    between atoms: C_17  and  C_19
REMARK    7  A    between atoms: C_19  and  S_20
REMARK    8  A    between atoms: S_20  and  C_21
REMARK    9  A    between atoms: N_25  and  C_26
REMARK                            x       y       z     vdW  Elec       q    Type
REMARK                         _______ _______ _______ _____ _____    ______ ____
ROOT
ATOM      1  C   UNL     1      -0.019   1.526   0.010  0.00  0.00    +0.060 C 
ATOM      2  C   UNL     1       0.002  -0.004   0.002  0.00  0.00    +0.239 C 
ENDROOT
BRANCH   2   3
ATOM      3  C   UNL     1       0.731  -0.503   1.223  0.00  0.00    +0.156 A 
ATOM      4  N   UNL     1       2.021  -0.470   1.386  0.00  0.00    -0.228 NA
ATOM      5  C   UNL     1       2.342  -0.998   2.595  0.00  0.00    +0.090 A 
ATOM      6  C   UNL     1       3.550  -1.205   3.267  0.00  0.00    +0.030 A 
ATOM      7  C   UNL     1       3.550  -1.775   4.508  0.00  0.00    +0.002 A 
ATOM      8  C   UNL     1       2.360  -2.154   5.113  0.00  0.00    +0.002 A 
ATOM      9  C   UNL     1       1.156  -1.959   4.470  0.00  0.00    +0.028 A 
ATOM     10  C   UNL     1       1.137  -1.380   3.208  0.00  0.00    +0.074 A 
ATOM     11  N   UNL     1       0.135  -1.049   2.317  0.00  0.00    -0.268 N 
BRANCH  11  12
ATOM     12  C   UNL     1      -1.302  -1.252   2.513  0.00  0.00    +0.450 C 
ATOM     13  F   UNL     1      -1.603  -1.171   3.877  0.00  0.00    -0.185 F 
ATOM     14  F   UNL     1      -2.011  -0.264   1.820  0.00  0.00    -0.185 F 
ENDBRANCH  11  12
ENDBRANCH   2   3
BRANCH   2  15
ATOM     15  O   UNL     1       0.671  -0.465  -1.174  0.00  0.00    -0.453 OA
BRANCH  15  16
ATOM     16  C   UNL     1      -0.085  -0.672  -2.263  0.00  0.00    +0.318 C 
ATOM     17  O   UNL     1      -1.276  -0.469  -2.220  0.00  0.00    -0.250 OA
BRANCH  16  18
ATOM     18  C   UNL     1       0.551  -1.158  -3.540  0.00  0.00    +0.198 C 
BRANCH  18  19
ATOM     19  S   UNL     1      -0.723  -1.340  -4.819  0.00  0.00    -0.073 S 
BRANCH  19  20
ATOM     20  C   UNL     1       0.167  -1.907  -6.230  0.00  0.00    +0.210 A 
ATOM     21  N   UNL     1       1.460  -2.140  -6.297  0.00  0.00    -0.101 NA
ATOM     22  N   UNL     1       1.784  -2.543  -7.472  0.00  0.00    -0.022 NA
ATOM     23  N   UNL     1       0.743  -2.598  -8.230  0.00  0.00    -0.043 NA
ATOM     24  N   UNL     1      -0.352  -2.191  -7.448  0.00  0.00    -0.217 N 
BRANCH  24  25
ATOM     25  C   UNL     1      -1.754  -2.093  -7.862  0.00  0.00    +0.112 C 
ATOM     26  C   UNL     1      -2.127  -2.661  -9.233  0.00  0.00    +0.029 C 
ATOM     27  C   UNL     1      -2.084  -1.147  -9.018  0.00  0.00    +0.029 C 
ENDBRANCH  24  25
ENDBRANCH  19  20
ENDBRANCH  18  19
ENDBRANCH  16  18
ENDBRANCH  15  16
ENDBRANCH   2  15
TORSDOF 8
