REMARK  Name = ZINC38902710
REMARK  15 active torsions:
REMARK  status: ('A' for Active; 'I' for Inactive)
REMARK    1  A    between atoms: C_1  and  C_2
REMARK    2  A    between atoms: C_2  and  C_3
REMARK    3  A    between atoms: C_2  and  O_4
REMARK    4  A    between atoms: O_4  and  C_5
REMARK    5  A    between atoms: C_5  and  C_6
REMARK    6  A    between atoms: C_6  and  C_7
REMARK    7  A    between atoms: C_7  and  N_8
REMARK    8  A    between atoms: C_9  and  C_11
REMARK    9  A    between atoms: N_16  and  C_18
REMARK   10  A    between atoms: C_18  and  C_19
REMARK   11  A    between atoms: C_21  and  C_24
REMARK   12  A    between atoms: C_27  and  C_30
REMARK   13  A    between atoms: C_30  and  C_31
REMARK   14  A    between atoms: C_30  and  C_32
REMARK   15  A    between atoms: C_30  and  C_33
REMARK                            x       y       z     vdW  Elec       q    Type
REMARK                         _______ _______ _______ _____ _____    ______ ____
ROOT
ATOM      1  C   UNL     1      -7.428  -2.715  -3.400  0.00  0.00    +0.058 C 
ATOM      2  C   UNL     1      -7.412  -4.049  -2.649  0.00  0.00    +0.009 C 
ATOM      3  C   UNL     1      -8.837  -4.608  -2.591  0.00  0.00    -0.018 C 
ATOM      4  C   UNL     1      -9.382  -4.749  -4.014  0.00  0.00    -0.078 C 
ATOM      5  N   UNL     1      -9.396  -3.435  -4.670  0.00  0.00    +0.386 N 
ATOM      6  C   UNL     1      -8.025  -2.925  -4.793  0.00  0.00    -0.065 C 
ATOM      7  H   UNL     1      -9.944  -2.792  -4.119  0.00  0.00    -0.081 HD
ENDROOT
BRANCH   1   9
ATOM      8  N   UNL     1      -5.292  -1.935  -2.425  0.00  0.00    -0.315 N 
ATOM      9  C   UNL     1      -6.019  -2.194  -3.530  0.00  0.00    +0.214 C 
ATOM     10  O   UNL     1      -5.541  -2.007  -4.628  0.00  0.00    -0.276 OA
ATOM     11  H   UNL     1      -5.675  -2.084  -1.546  0.00  0.00    +0.149 HD
BRANCH   8  12
ATOM     12  C   UNL     1      -3.923  -1.429  -2.551  0.00  0.00    +0.106 C 
BRANCH  12  13
ATOM     13  C   UNL     1      -3.326  -1.221  -1.157  0.00  0.00    +0.047 C 
BRANCH  13  14
ATOM     14  C   UNL     1      -1.896  -0.693  -1.289  0.00  0.00    +0.161 C 
BRANCH  14  15
ATOM     15  O   UNL     1      -1.339  -0.499   0.012  0.00  0.00    -0.377 OA
BRANCH  15  17
ATOM     16  C   UNL     1      -0.019   1.526   0.010  0.00  0.00    +0.037 C 
ATOM     17  C   UNL     1       0.002  -0.004   0.002  0.00  0.00    +0.112 C 
ATOM     18  C   UNL     1       0.742  -0.511   1.242  0.00  0.00    +0.037 C 
ENDBRANCH  15  17
ENDBRANCH  14  15
ENDBRANCH  13  14
ENDBRANCH  12  13
ENDBRANCH   8  12
ENDBRANCH   1   9
BRANCH   5  19
ATOM     19  C   UNL     1      -9.991  -3.563  -6.006  0.00  0.00    +0.022 C 
BRANCH  19  20
ATOM     20  C   UNL     1     -11.439  -3.959  -5.875  0.00  0.00    +0.211 A 
ATOM     21  N   UNL     1     -12.448  -3.139  -5.788  0.00  0.00    -0.193 NA
ATOM     22  C   UNL     1     -13.596  -3.832  -5.684  0.00  0.00    +0.202 A 
ATOM     23  N   UNL     1     -13.317  -5.111  -5.704  0.00  0.00    -0.056 NA
ATOM     24  O   UNL     1     -11.907  -5.213  -5.835  0.00  0.00    -0.340 OA
BRANCH  22  25
ATOM     25  C   UNL     1     -14.954  -3.244  -5.564  0.00  0.00    +0.022 A 
ATOM     26  C   UNL     1     -15.118  -1.860  -5.559  0.00  0.00    +0.012 A 
ATOM     27  C   UNL     1     -16.383  -1.319  -5.448  0.00  0.00    +0.005 A 
ATOM     28  C   UNL     1     -17.486  -2.147  -5.340  0.00  0.00    -0.042 A 
ATOM     29  C   UNL     1     -17.328  -3.521  -5.345  0.00  0.00    +0.005 A 
ATOM     30  C   UNL     1     -16.069  -4.073  -5.462  0.00  0.00    +0.012 A 
BRANCH  28  31
ATOM     31  C   UNL     1     -18.864  -1.550  -5.218  0.00  0.00    -0.013 C 
ATOM     32  C   UNL     1     -19.161  -0.694  -6.451  0.00  0.00    +0.015 C 
ATOM     33  C   UNL     1     -19.899  -2.672  -5.114  0.00  0.00    +0.015 C 
ATOM     34  C   UNL     1     -18.932  -0.676  -3.963  0.00  0.00    +0.015 C 
ENDBRANCH  28  31
ENDBRANCH  22  25
ENDBRANCH  19  20
ENDBRANCH   5  19
TORSDOF 10
