REMARK  Name = ZINC15181049
REMARK  9 active torsions:
REMARK  status: ('A' for Active; 'I' for Inactive)
REMARK    1  A    between atoms: C_1  and  C_2
REMARK    2  A    between atoms: C_2  and  C_3
REMARK    3  A    between atoms: C_6  and  N_9
REMARK    4  A    between atoms: C_12  and  C_15
REMARK    5  A    between atoms: C_15  and  O_16
REMARK    6  A    between atoms: O_16  and  C_17
REMARK    7  A    between atoms: C_17  and  C_19
REMARK    8  A    between atoms: C_24  and  O_25
REMARK    9  A    between atoms: C_27  and  C_29
REMARK                            x       y       z     vdW  Elec       q    Type
REMARK                         _______ _______ _______ _____ _____    ______ ____
ROOT
ATOM      1  N   UNL     1      -2.667   2.915   4.677  0.00  0.00    -0.219 N 
ATOM      2  C   UNL     1      -2.243   4.080   5.309  0.00  0.00    +0.172 A 
ATOM      3  N   UNL     1      -2.667   4.612   6.438  0.00  0.00    -0.226 NA
ATOM      4  C   UNL     1      -2.151   5.733   6.902  0.00  0.00    +0.088 A 
ATOM      5  C   UNL     1      -1.167   6.335   6.189  0.00  0.00    +0.075 A 
ATOM      6  S   UNL     1      -1.012   5.202   4.815  0.00  0.00    -0.060 S 
ATOM      7  C   UNL     1      -3.711   2.222   5.174  0.00  0.00    +0.223 C 
ATOM      8  O   UNL     1      -4.337   2.660   6.116  0.00  0.00    -0.275 OA
ATOM      9  C   UNL     1      -4.101   0.903   4.558  0.00  0.00    +0.110 C 
ENDROOT
BRANCH   1  13
ATOM     10  C   UNL     1      -0.712   1.571   1.252  0.00  0.00    -0.048 A 
ATOM     11  C   UNL     1      -1.475   2.723   1.203  0.00  0.00    +0.005 A 
ATOM     12  C   UNL     1      -2.129   3.168   2.335  0.00  0.00    +0.024 A 
ATOM     13  C   UNL     1      -2.010   2.463   3.526  0.00  0.00    +0.043 A 
ATOM     14  C   UNL     1      -1.238   1.310   3.573  0.00  0.00    +0.024 A 
ATOM     15  C   UNL     1      -0.592   0.867   2.436  0.00  0.00    +0.005 A 
BRANCH  10  17
ATOM     16  C   UNL     1      -0.921   0.132  -0.757  0.00  0.00    +0.009 C 
ATOM     17  C   UNL     1      -0.004   1.084   0.013  0.00  0.00    +0.032 C 
ENDBRANCH  10  17
ENDBRANCH   1  13
BRANCH   4  18
ATOM     18  C   UNL     1      -2.643   6.332   8.194  0.00  0.00    +0.288 C 
BRANCH  18  19
ATOM     19  O   UNL     1      -1.911   7.555   8.470  0.00  0.00    -0.455 OA
BRANCH  19  20
ATOM     20  C   UNL     1      -2.232   8.219   9.598  0.00  0.00    +0.343 C 
ATOM     21  O   UNL     1      -3.100   7.788  10.330  0.00  0.00    -0.245 OA
BRANCH  20  22
ATOM     22  C   UNL     1      -1.530   9.469   9.943  0.00  0.00    +0.101 A 
ATOM     23  C   UNL     1      -0.531   9.968   9.104  0.00  0.00    +0.034 A 
ATOM     24  C   UNL     1       0.121  11.138   9.432  0.00  0.00    +0.019 A 
ATOM     25  C   UNL     1      -0.210  11.821  10.592  0.00  0.00    +0.019 A 
ATOM     26  C   UNL     1      -1.195  11.338  11.430  0.00  0.00    +0.047 A 
ATOM     27  C   UNL     1      -1.865  10.166  11.112  0.00  0.00    +0.131 A 
ATOM     28 BR   UNL     1       1.473  11.813   8.295  0.00  0.00    -0.050 Br
BRANCH  27  29
ATOM     29  O   UNL     1      -2.837   9.693  11.932  0.00  0.00    -0.506 OA
ATOM     30  H   UNL     1      -2.515   9.093  12.619  0.00  0.00    +0.292 HD
ENDBRANCH  27  29
ENDBRANCH  20  22
ENDBRANCH  19  20
ENDBRANCH  18  19
ENDBRANCH   4  18
TORSDOF 7
