REMARK  Name = ZINC07573695
REMARK  6 active torsions:
REMARK  status: ('A' for Active; 'I' for Inactive)
REMARK    1  A    between atoms: C_1  and  C_2
REMARK    2  A    between atoms: C_5  and  N_9
REMARK    3  A    between atoms: C_6  and  C_8
REMARK    4  A    between atoms: C_10  and  C_12
REMARK    5  A    between atoms: N_16  and  C_19
REMARK    6  A    between atoms: C_19  and  C_20
REMARK                            x       y       z     vdW  Elec       q    Type
REMARK                         _______ _______ _______ _____ _____    ______ ____
ROOT
ATOM      1  C   UNL     1       3.713  -0.949   0.175  0.00  0.00    +0.101 A 
ATOM      2  C   UNL     1       3.759  -2.342   0.172  0.00  0.00    +0.020 A 
ATOM      3  C   UNL     1       4.998  -2.977   0.266  0.00  0.00    +0.019 A 
ATOM      4  C   UNL     1       6.135  -2.241   0.360  0.00  0.00    +0.089 A 
ATOM      5  N   UNL     1       6.098  -0.887   0.363  0.00  0.00    -0.310 N 
ATOM      6  C   UNL     1       4.929  -0.224   0.269  0.00  0.00    +0.264 A 
ATOM      7  O   UNL     1       4.916   0.994   0.269  0.00  0.00    -0.267 OA
ENDROOT
BRANCH   1   9
ATOM      8  N   UNL     1       2.402   1.099  -0.046  0.00  0.00    -0.281 N 
ATOM      9  C   UNL     1       2.426  -0.243   0.077  0.00  0.00    +0.254 C 
ATOM     10  O   UNL     1       1.385  -0.871   0.107  0.00  0.00    -0.270 OA
ATOM     11  H   UNL     1       3.231   1.592  -0.142  0.00  0.00    +0.155 HD
BRANCH   8  16
ATOM     12  C   UNL     1      -2.553   3.860   0.005  0.00  0.00    +0.044 C 
ATOM     13  C   UNL     1      -1.236   3.127  -0.009  0.00  0.00    -0.050 A 
ATOM     14  C   UNL     1      -1.151   1.873  -0.588  0.00  0.00    +0.005 A 
ATOM     15  C   UNL     1       0.053   1.196  -0.597  0.00  0.00    +0.024 A 
ATOM     16  C   UNL     1       1.181   1.780  -0.034  0.00  0.00    +0.037 A 
ATOM     17  C   UNL     1       1.092   3.040   0.542  0.00  0.00    -0.029 A 
ATOM     18  C   UNL     1      -0.116   3.710   0.553  0.00  0.00    +0.008 A 
ATOM     19  C   UNL     1       2.313   3.676   1.155  0.00  0.00    +0.045 C 
ENDBRANCH   8  16
ENDBRANCH   1   9
BRANCH   5  20
ATOM     20  C   UNL     1       7.348  -0.132   0.466  0.00  0.00    +0.160 C 
BRANCH  20  21
ATOM     21  C   UNL     1       7.952   0.030  -0.905  0.00  0.00    -0.020 A 
ATOM     22  C   UNL     1       7.277  -0.405  -2.005  0.00  0.00    +0.006 A 
ATOM     23  C   UNL     1       7.819  -0.264  -3.281  0.00  0.00    +0.001 A 
ATOM     24  C   UNL     1       9.039   0.313  -3.465  0.00  0.00    +0.008 A 
ATOM     25  C   UNL     1       9.764   0.774  -2.354  0.00  0.00    -0.018 A 
ATOM     26  C   UNL     1       9.211   0.635  -1.056  0.00  0.00    -0.013 A 
ATOM     27  C   UNL     1       9.939   1.092   0.056  0.00  0.00    +0.009 A 
ATOM     28  C   UNL     1      11.158   1.668  -0.128  0.00  0.00    +0.001 A 
ATOM     29  C   UNL     1      11.700   1.808  -1.405  0.00  0.00    +0.001 A 
ATOM     30  C   UNL     1      11.026   1.374  -2.504  0.00  0.00    +0.008 A 
ENDBRANCH  20  21
ENDBRANCH   5  20
TORSDOF 4
