REMARK  Name = ZINC39302160
REMARK  8 active torsions:
REMARK  status: ('A' for Active; 'I' for Inactive)
REMARK    1  A    between atoms: C_1  and  C_2
REMARK    2  A    between atoms: C_2  and  C_3
REMARK    3  A    between atoms: C_8  and  N_9
REMARK    4  A    between atoms: C_10  and  C_31
REMARK    5  A    between atoms: C_12  and  C_14
REMARK    6  A    between atoms: N_16  and  C_17
REMARK    7  A    between atoms: C_17  and  C_19
REMARK    8  A    between atoms: C_17  and  C_25
REMARK                            x       y       z     vdW  Elec       q    Type
REMARK                         _______ _______ _______ _____ _____    ______ ____
ROOT
ATOM      1  N   UNL     1      -1.621  -0.431  -2.516  0.00  0.00    -0.231 N 
ATOM      2  C   UNL     1      -2.394  -0.149  -3.607  0.00  0.00    +0.075 A 
ATOM      3  C   UNL     1      -1.592   0.502  -4.501  0.00  0.00    +0.063 A 
ATOM      4  C   UNL     1      -0.326   0.583  -3.882  0.00  0.00    +0.148 A 
ATOM      5  N   UNL     1      -0.428   0.009  -2.699  0.00  0.00    -0.161 NA
ENDROOT
BRANCH   2   6
ATOM      6  C   UNL     1      -3.825  -0.484  -3.785  0.00  0.00    +0.001 A 
ATOM      7  C   UNL     1      -4.639  -0.707  -2.674  0.00  0.00    +0.010 A 
ATOM      8  C   UNL     1      -5.967  -1.020  -2.856  0.00  0.00    +0.004 A 
ATOM      9  C   UNL     1      -6.506  -1.115  -4.134  0.00  0.00    -0.044 A 
ATOM     10  C   UNL     1      -5.708  -0.891  -5.235  0.00  0.00    -0.044 A 
ATOM     11  C   UNL     1      -4.370  -0.574  -5.063  0.00  0.00    +0.014 A 
ATOM     12  C   UNL     1      -6.234  -0.963  -6.645  0.00  0.00    +0.035 C 
ATOM     13  C   UNL     1      -7.561  -1.719  -6.686  0.00  0.00    +0.005 C 
ATOM     14  C   UNL     1      -8.497  -1.110  -5.636  0.00  0.00    +0.005 C 
ATOM     15  C   UNL     1      -7.966  -1.470  -4.250  0.00  0.00    +0.035 C 
ENDBRANCH   2   6
BRANCH   1  21
ATOM     16  C   UNL     1      -1.962  -0.484  -0.124  0.00  0.00    -0.022 A 
ATOM     17  C   UNL     1      -2.406  -1.140   1.007  0.00  0.00    +0.006 A 
ATOM     18  C   UNL     1      -2.948  -2.408   0.904  0.00  0.00    +0.000 A 
ATOM     19  C   UNL     1      -3.048  -3.023  -0.330  0.00  0.00    +0.002 A 
ATOM     20  C   UNL     1      -2.606  -2.372  -1.465  0.00  0.00    +0.028 A 
ATOM     21  C   UNL     1      -2.066  -1.096  -1.366  0.00  0.00    +0.069 A 
BRANCH  16  23
ATOM     22  C   UNL     1      -2.431   1.938  -0.379  0.00  0.00    +0.009 C 
ATOM     23  C   UNL     1      -1.370   0.898  -0.012  0.00  0.00    +0.034 C 
ENDBRANCH  16  23
ENDBRANCH   1  21
BRANCH   4  24
ATOM     24  C   UNL     1       0.888   1.203  -4.450  0.00  0.00    +0.265 C 
ATOM     25  O   UNL     1       0.853   1.707  -5.556  0.00  0.00    -0.268 OA
ATOM     26  N   UNL     1       2.036   1.209  -3.744  0.00  0.00    -0.299 N 
ATOM     27  H   UNL     1       2.065   0.807  -2.862  0.00  0.00    +0.150 HD
BRANCH  26  28
ATOM     28  C   UNL     1       3.240   1.824  -4.308  0.00  0.00    +0.135 C 
BRANCH  28  29
ATOM     29  C   UNL     1       4.155   2.256  -3.191  0.00  0.00    -0.023 A 
ATOM     30  C   UNL     1       4.319   1.448  -2.081  0.00  0.00    +0.006 A 
ATOM     31  C   UNL     1       5.158   1.844  -1.056  0.00  0.00    +0.000 A 
ATOM     32  C   UNL     1       5.832   3.048  -1.141  0.00  0.00    +0.000 A 
ATOM     33  C   UNL     1       5.668   3.855  -2.251  0.00  0.00    +0.000 A 
ATOM     34  C   UNL     1       4.833   3.457  -3.278  0.00  0.00    +0.006 A 
ENDBRANCH  28  29
BRANCH  28  35
ATOM     35  C   UNL     1       3.953   0.823  -5.182  0.00  0.00    -0.005 A 
ATOM     36  C   UNL     1       4.528   1.221  -6.379  0.00  0.00    +0.009 A 
ATOM     37  C   UNL     1       5.173   0.266  -7.150  0.00  0.00    +0.020 A 
ATOM     38  C   UNL     1       5.221  -1.041  -6.703  0.00  0.00    +0.111 A 
ATOM     39  N   UNL     1       4.662  -1.383  -5.559  0.00  0.00    -0.263 NA
ATOM     40  C   UNL     1       4.045  -0.501  -4.797  0.00  0.00    +0.116 A 
ENDBRANCH  28  35
ENDBRANCH  26  28
ENDBRANCH   4  24
TORSDOF 7
