REMARK  Name = ZINC15859549
REMARK  9 active torsions:
REMARK  status: ('A' for Active; 'I' for Inactive)
REMARK    1  A    between atoms: C_1  and  O_2
REMARK    2  A    between atoms: O_2  and  C_3
REMARK    3  A    between atoms: C_7  and  C_11
REMARK    4  A    between atoms: C_8  and  O_9
REMARK    5  A    between atoms: O_9  and  C_10
REMARK    6  A    between atoms: C_11  and  C_13
REMARK    7  A    between atoms: C_11  and  N_65
REMARK    8  A    between atoms: C_14  and  N_22
REMARK    9  A    between atoms: C_23  and  C_25
REMARK                            x       y       z     vdW  Elec       q    Type
REMARK                         _______ _______ _______ _____ _____    ______ ____
ROOT
ATOM      1  C   UNL     1       1.433  -2.566   2.506  0.00  0.00    +0.118 A 
ATOM      2  C   UNL     1       2.453  -3.432   2.375  0.00  0.00    +0.082 A 
ATOM      3  C   UNL     1       3.190  -3.389   3.648  0.00  0.00    +0.042 A 
ATOM      4  C   UNL     1       4.321  -4.038   4.140  0.00  0.00    +0.013 A 
ATOM      5  C   UNL     1       4.763  -3.765   5.405  0.00  0.00    +0.001 A 
ATOM      6  C   UNL     1       4.091  -2.848   6.200  0.00  0.00    +0.004 A 
ATOM      7  C   UNL     1       2.970  -2.197   5.731  0.00  0.00    +0.047 A 
ATOM      8  C   UNL     1       2.506  -2.460   4.448  0.00  0.00    +0.137 A 
ATOM      9  O   UNL     1       1.469  -1.991   3.724  0.00  0.00    -0.459 OA
ENDROOT
BRANCH   2  10
ATOM     10  N   UNL     1       2.754  -4.219   1.252  0.00  0.00    -0.278 N 
ATOM     11  C   UNL     1       3.380  -5.402   1.405  0.00  0.00    +0.248 C 
ATOM     12  O   UNL     1       3.602  -5.832   2.521  0.00  0.00    -0.270 OA
ATOM     13  H   UNL     1       2.511  -3.911   0.364  0.00  0.00    +0.155 HD
BRANCH  11  14
ATOM     14  C   UNL     1       3.798  -6.178   0.218  0.00  0.00    +0.037 A 
ATOM     15  C   UNL     1       3.540  -5.689  -1.064  0.00  0.00    +0.013 A 
ATOM     16  C   UNL     1       3.938  -6.415  -2.168  0.00  0.00    +0.001 A 
ATOM     17  C   UNL     1       4.581  -7.630  -2.006  0.00  0.00    +0.000 A 
ATOM     18  C   UNL     1       4.834  -8.122  -0.738  0.00  0.00    +0.001 A 
ATOM     19  C   UNL     1       4.447  -7.403   0.374  0.00  0.00    +0.013 A 
ENDBRANCH  11  14
ENDBRANCH   2  10
BRANCH   1  20
ATOM     20  C   UNL     1       0.404  -2.275   1.444  0.00  0.00    +0.035 C 
BRANCH  20  26
ATOM     21  C   UNL     1      -0.633  -0.502   0.163  0.00  0.00    -0.077 C 
ATOM     22  C   UNL     1      -0.858   1.011   0.107  0.00  0.00    -0.019 C 
ATOM     23  C   UNL     1       0.487   1.715  -0.090  0.00  0.00    -0.004 C 
ATOM     24  C   UNL     1       1.430   1.327   1.053  0.00  0.00    -0.019 C 
ATOM     25  C   UNL     1       1.589  -0.195   1.082  0.00  0.00    -0.077 C 
ATOM     26  N   UNL     1       0.263  -0.812   1.298  0.00  0.00    +0.389 N 
ATOM     27  H   UNL     1      -0.146  -0.429   2.159  0.00  0.00    -0.080 HD
ENDBRANCH  20  26
BRANCH  20  32
ATOM     28  C   UNL     1      -2.465  -4.696   1.932  0.00  0.00    +0.162 A 
ATOM     29  C   UNL     1      -3.369  -3.908   2.627  0.00  0.00    +0.049 A 
ATOM     30  C   UNL     1      -3.050  -2.599   2.937  0.00  0.00    +0.004 A 
ATOM     31  C   UNL     1      -1.830  -2.072   2.554  0.00  0.00    +0.006 A 
ATOM     32  C   UNL     1      -0.924  -2.853   1.860  0.00  0.00    -0.008 A 
ATOM     33  C   UNL     1      -1.240  -4.164   1.542  0.00  0.00    +0.163 A 
BRANCH  28  35
ATOM     34  C   UNL     1      -4.055  -6.460   2.053  0.00  0.00    +0.277 C 
ATOM     35  O   UNL     1      -2.777  -5.983   1.626  0.00  0.00    -0.491 OA
ENDBRANCH  28  35
BRANCH  33  36
ATOM     36  O   UNL     1      -0.351  -4.931   0.854  0.00  0.00    -0.491 OA
ATOM     37  C   UNL     1      -0.392  -4.850  -0.572  0.00  0.00    +0.277 C 
ENDBRANCH  33  36
ENDBRANCH  20  32
ENDBRANCH   1  20
TORSDOF 7
