REMARK  Name = ZINC13498651
REMARK  12 active torsions:
REMARK  status: ('A' for Active; 'I' for Inactive)
REMARK    1  A    between atoms: C_1  and  C_2
REMARK    2  A    between atoms: C_2  and  C_3
REMARK    3  A    between atoms: C_2  and  C_4
REMARK    4  A    between atoms: C_4  and  C_6
REMARK    5  A    between atoms: C_4  and  N_74
REMARK    6  A    between atoms: N_10  and  C_11
REMARK    7  A    between atoms: C_11  and  C_12
REMARK    8  A    between atoms: C_18  and  C_19
REMARK    9  A    between atoms: C_18  and  N_74
REMARK   10  A    between atoms: C_23  and  O_31
REMARK   11  A    between atoms: O_31  and  C_32
REMARK   12  A    between atoms: C_33  and  N_74
REMARK                            x       y       z     vdW  Elec       q    Type
REMARK                         _______ _______ _______ _____ _____    ______ ____
ROOT
ATOM      1  N   UNL     1      -7.760   2.619   5.352  0.00  0.00    +0.391 N 
ATOM      2  H   UNL     1      -7.983   1.876   4.679  0.00  0.00    -0.080 HD
ENDROOT
BRANCH   1   3
ATOM      3  C   UNL     1      -7.418   3.851   4.611  0.00  0.00    -0.067 C 
ATOM      4  C   UNL     1      -7.171   5.009   5.580  0.00  0.00    -0.015 C 
ATOM      5  C   UNL     1      -6.821   6.271   4.788  0.00  0.00    -0.002 C 
ATOM      6  C   UNL     1      -7.980   6.625   3.854  0.00  0.00    -0.000 C 
ATOM      7  C   UNL     1      -8.227   5.467   2.885  0.00  0.00    -0.002 C 
ATOM      8  C   UNL     1      -8.577   4.205   3.677  0.00  0.00    -0.015 C 
ENDBRANCH   1   3
BRANCH   1   9
ATOM      9  C   UNL     1      -8.938   2.858   6.211  0.00  0.00    +0.006 C 
BRANCH   9  10
ATOM     10  C   UNL     1      -8.532   3.566   7.478  0.00  0.00    +0.138 A 
ATOM     11  N   UNL     1      -7.617   3.178   8.333  0.00  0.00    -0.115 NA
ATOM     12  N   UNL     1      -7.564   4.049   9.281  0.00  0.00    -0.023 NA
ATOM     13  N   UNL     1      -8.421   4.982   9.053  0.00  0.00    -0.044 NA
ATOM     14  N   UNL     1      -9.034   4.723   7.948  0.00  0.00    -0.228 N 
BRANCH  14  15
ATOM     15  C   UNL     1     -10.082   5.534   7.323  0.00  0.00    +0.178 C 
BRANCH  15  16
ATOM     16  C   UNL     1     -11.434   5.192   7.952  0.00  0.00    +0.140 C 
ATOM     17  C   UNL     1     -12.548   6.028   7.285  0.00  0.00    +0.035 C 
ATOM     18  C   UNL     1     -13.458   6.387   8.491  0.00  0.00    +0.031 C 
ATOM     19  C   UNL     1     -12.406   6.531   9.620  0.00  0.00    +0.160 C 
ATOM     20  O   UNL     1     -11.420   5.523   9.345  0.00  0.00    -0.375 OA
ENDBRANCH  15  16
ENDBRANCH  14  15
ENDBRANCH   9  10
BRANCH   9  22
ATOM     21  C   UNL     1     -10.740   1.728   7.524  0.00  0.00    +0.006 C 
ATOM     22  C   UNL     1      -9.570   1.509   6.562  0.00  0.00    -0.024 C 
ATOM     23  C   UNL     1     -10.079   0.837   5.285  0.00  0.00    +0.006 C 
ENDBRANCH   9  22
ENDBRANCH   1   9
BRANCH   1  24
ATOM     24  C   UNL     1      -6.611   2.190   6.177  0.00  0.00    -0.036 C 
BRANCH  24  25
ATOM     25  C   UNL     1      -5.561   1.596   5.274  0.00  0.00    +0.001 A 
ATOM     26  C   UNL     1      -4.517   2.356   4.861  0.00  0.00    +0.017 A 
ATOM     27  C   UNL     1      -3.514   1.750   3.983  0.00  0.00    +0.002 A 
ATOM     28  C   UNL     1      -2.412   2.483   3.531  0.00  0.00    +0.055 A 
ATOM     29  C   UNL     1      -1.488   1.882   2.701  0.00  0.00    +0.121 A 
ATOM     30  C   UNL     1      -1.643   0.550   2.324  0.00  0.00    +0.047 A 
ATOM     31  C   UNL     1      -2.720  -0.184   2.768  0.00  0.00    +0.030 A 
ATOM     32  C   UNL     1      -3.666   0.404   3.600  0.00  0.00    +0.049 A 
ATOM     33  N   UNL     1      -4.753  -0.315   4.056  0.00  0.00    -0.322 N 
ATOM     34  H   UNL     1      -4.857  -1.242   3.791  0.00  0.00    +0.169 HD
ATOM     35  C   UNL     1      -5.669   0.251   4.861  0.00  0.00    +0.251 A 
ATOM     36  O   UNL     1      -6.616  -0.414   5.243  0.00  0.00    -0.268 OA
BRANCH  29  37
ATOM     37  O   UNL     1      -0.417   2.591   2.254  0.00  0.00    -0.495 OA
ATOM     38  C   UNL     1       0.505   1.907   1.404  0.00  0.00    +0.277 C 
ENDBRANCH  29  37
ENDBRANCH  24  25
ENDBRANCH   1  24
TORSDOF 9
