REMARK  Name = ZINC40323029
REMARK  7 active torsions:
REMARK  status: ('A' for Active; 'I' for Inactive)
REMARK    1  A    between atoms: C_4  and  C_7
REMARK    2  A    between atoms: C_7  and  C_9
REMARK    3  A    between atoms: C_7  and  N_28
REMARK    4  A    between atoms: C_9  and  N_10
REMARK    5  A    between atoms: C_11  and  C_13
REMARK    6  A    between atoms: C_16  and  S_18
REMARK    7  A    between atoms: S_18  and  C_21
REMARK                            x       y       z     vdW  Elec       q    Type
REMARK                         _______ _______ _______ _____ _____    ______ ____
ROOT
ATOM      1  N   UNL     1       4.207   0.003   2.234  0.00  0.00    -0.310 N 
ATOM      2  C   UNL     1       4.497  -0.176   3.538  0.00  0.00    +0.279 C 
ATOM      3  O   UNL     1       4.480  -1.295   4.017  0.00  0.00    -0.267 OA
ATOM      4  H   UNL     1       4.221   0.894   1.852  0.00  0.00    +0.149 HD
ENDROOT
BRANCH   2   5
ATOM      5  C   UNL     1       4.835   0.977   4.379  0.00  0.00    +0.192 A 
ATOM      6  C   UNL     1       5.154   0.936   5.706  0.00  0.00    +0.056 A 
ATOM      7  C   UNL     1       5.404   2.260   6.101  0.00  0.00    +0.070 A 
ATOM      8  C   UNL     1       5.229   3.040   5.012  0.00  0.00    +0.246 A 
ATOM      9  O   UNL     1       4.892   2.263   3.975  0.00  0.00    -0.433 OA
BRANCH   8  10
ATOM     10  S   UNL     1       5.420   4.791   4.963  0.00  0.00    +0.058 S 
ATOM     11  O   UNL     1       4.638   5.254   3.871  0.00  0.00    -0.161 OA
ATOM     12  O   UNL     1       5.226   5.258   6.292  0.00  0.00    -0.161 OA
BRANCH  10  13
ATOM     13  C   UNL     1       7.102   5.121   4.554  0.00  0.00    +0.097 A 
ATOM     14  C   UNL     1       8.045   5.246   5.556  0.00  0.00    +0.028 A 
ATOM     15  C   UNL     1       9.365   5.504   5.235  0.00  0.00    +0.017 A 
ATOM     16  C   UNL     1       9.741   5.637   3.911  0.00  0.00    +0.018 A 
ATOM     17  C   UNL     1       8.796   5.512   2.908  0.00  0.00    +0.017 A 
ATOM     18  C   UNL     1       7.478   5.248   3.230  0.00  0.00    +0.028 A 
ATOM     19 BR   UNL     1      11.546   5.991   3.471  0.00  0.00    -0.050 Br
ENDBRANCH  10  13
ENDBRANCH   8  10
ENDBRANCH   2   5
BRANCH   1  20
ATOM     20  C   UNL     1       3.869  -1.149   1.394  0.00  0.00    +0.094 C 
BRANCH  20  21
ATOM     21  C   UNL     1       3.457  -0.663   0.003  0.00  0.00    -0.020 C 
BRANCH  21  22
ATOM     22  N   UNL     1       3.195  -1.820  -0.863  0.00  0.00    +0.385 N 
ATOM     23  C   UNL     1       4.424  -2.609  -1.008  0.00  0.00    -0.078 C 
ATOM     24  C   UNL     1       4.137  -3.859  -1.842  0.00  0.00    -0.019 C 
ATOM     25  C   UNL     1       3.632  -3.438  -3.225  0.00  0.00    -0.004 C 
ATOM     26  C   UNL     1       2.393  -2.555  -3.059  0.00  0.00    -0.019 C 
ATOM     27  C   UNL     1       2.745  -1.353  -2.179  0.00  0.00    -0.078 C 
ATOM     28  H   UNL     1       2.476  -2.394  -0.447  0.00  0.00    -0.081 HD
ENDBRANCH  21  22
BRANCH  21  32
ATOM     29  C   UNL     1      -0.081   1.711   0.314  0.00  0.00    +0.000 A 
ATOM     30  C   UNL     1       1.153   2.322   0.201  0.00  0.00    +0.000 A 
ATOM     31  C   UNL     1       2.298   1.554   0.100  0.00  0.00    +0.002 A 
ATOM     32  C   UNL     1       2.209   0.174   0.114  0.00  0.00    -0.059 A 
ATOM     33  C   UNL     1       0.974  -0.437   0.228  0.00  0.00    +0.002 A 
ATOM     34  C   UNL     1      -0.171   0.331   0.327  0.00  0.00    +0.000 A 
ENDBRANCH  21  32
ENDBRANCH  20  21
ENDBRANCH   1  20
TORSDOF 7
