REMARK  Name = ZINC16431642
REMARK  10 active torsions:
REMARK  status: ('A' for Active; 'I' for Inactive)
REMARK    1  A    between atoms: C_1  and  C_2
REMARK    2  A    between atoms: C_2  and  C_4
REMARK    3  A    between atoms: C_2  and  N_11
REMARK    4  A    between atoms: N_11  and  C_12
REMARK    5  A    between atoms: N_11  and  C_13
REMARK    6  A    between atoms: C_13  and  C_14
REMARK    7  A    between atoms: N_19  and  C_22
REMARK    8  A    between atoms: C_22  and  C_23
REMARK    9  A    between atoms: N_25  and  C_26
REMARK   10  A    between atoms: C_31  and  C_32
REMARK                            x       y       z     vdW  Elec       q    Type
REMARK                         _______ _______ _______ _____ _____    ______ ____
ROOT
ATOM      1  C   UNL     1       1.495  -2.447  -2.374  0.00  0.00    +0.199 C 
ATOM      2  O   UNL     1       2.007  -1.642  -3.123  0.00  0.00    -0.278 OA
ATOM      3  N   UNL     1       1.658  -3.767  -2.591  0.00  0.00    -0.301 N 
ATOM      4  C   UNL     1       1.040  -4.760  -1.698  0.00  0.00    +0.123 C 
ATOM      5  C   UNL     1       2.119  -5.753  -1.253  0.00  0.00    +0.104 C 
ATOM      6  N   UNL     1       2.784  -6.311  -2.438  0.00  0.00    -0.291 NA
ATOM      7  C   UNL     1       3.481  -5.266  -3.200  0.00  0.00    +0.104 C 
ATOM      8  C   UNL     1       2.452  -4.253  -3.728  0.00  0.00    +0.123 C 
ENDROOT
BRANCH   1   9
ATOM      9  C   UNL     1       0.677  -1.970  -1.202  0.00  0.00    +0.019 C 
BRANCH   9  10
ATOM     10  N   UNL     1       0.652  -0.501  -1.187  0.00  0.00    +0.388 N 
ATOM     11  C   UNL     1      -0.053  -0.011  -2.378  0.00  0.00    -0.095 C 
ATOM     12  H   UNL     1       1.598  -0.149  -1.187  0.00  0.00    -0.081 HD
BRANCH  10  14
ATOM     13  C   UNL     1      -0.069   1.494   0.037  0.00  0.00    -0.008 C 
ATOM     14  C   UNL     1      -0.043  -0.036   0.021  0.00  0.00    -0.041 C 
BRANCH  14  15
ATOM     15  C   UNL     1       0.680  -0.539   1.243  0.00  0.00    -0.061 A 
ATOM     16  C   UNL     1       2.062  -0.545   1.274  0.00  0.00    +0.005 A 
ATOM     17  C   UNL     1       2.727  -1.006   2.394  0.00  0.00    +0.038 A 
ATOM     18  C   UNL     1       2.008  -1.462   3.486  0.00  0.00    +0.123 A 
ATOM     19  C   UNL     1       0.624  -1.455   3.454  0.00  0.00    +0.038 A 
ATOM     20  C   UNL     1      -0.039  -0.989   2.335  0.00  0.00    +0.005 A 
ATOM     21  F   UNL     1       2.657  -1.913   4.582  0.00  0.00    -0.205 F 
ENDBRANCH  14  15
ENDBRANCH  10  14
ENDBRANCH   9  10
ENDBRANCH   1   9
BRANCH   6  22
ATOM     22  C   UNL     1       3.706  -7.392  -2.064  0.00  0.00    +0.180 C 
BRANCH  22  23
ATOM     23  C   UNL     1       4.180  -8.101  -3.306  0.00  0.00    +0.231 C 
ATOM     24  O   UNL     1       3.789  -7.740  -4.396  0.00  0.00    -0.274 OA
ATOM     25  N   UNL     1       5.039  -9.135  -3.206  0.00  0.00    -0.284 N 
ATOM     26  H   UNL     1       5.414  -9.372  -2.344  0.00  0.00    +0.155 HD
BRANCH  25  27
ATOM     27  C   UNL     1       5.389  -9.866  -4.347  0.00  0.00    +0.045 A 
ATOM     28  C   UNL     1       4.532  -9.906  -5.439  0.00  0.00    +0.024 A 
ATOM     29  C   UNL     1       4.881 -10.628  -6.562  0.00  0.00    +0.002 A 
ATOM     30  C   UNL     1       6.083 -11.312  -6.601  0.00  0.00    +0.001 A 
ATOM     31  C   UNL     1       6.938 -11.274  -5.516  0.00  0.00    +0.014 A 
ATOM     32  C   UNL     1       6.598 -10.548  -4.391  0.00  0.00    +0.076 A 
BRANCH  32  33
ATOM     33  C   UNL     1       7.534 -10.502  -3.211  0.00  0.00    +0.419 C 
ATOM     34  F   UNL     1       8.676 -11.260  -3.492  0.00  0.00    -0.166 F 
ATOM     35  F   UNL     1       7.904  -9.176  -2.961  0.00  0.00    -0.166 F 
ATOM     36  F   UNL     1       6.891 -11.027  -2.085  0.00  0.00    -0.166 F 
ENDBRANCH  32  33
ENDBRANCH  25  27
ENDBRANCH  22  23
ENDBRANCH   6  22
TORSDOF 8
