REMARK  Name = ZINC28721860
REMARK  12 active torsions:
REMARK  status: ('A' for Active; 'I' for Inactive)
REMARK    1  A    between atoms: C_1  and  C_2
REMARK    2  A    between atoms: C_2  and  C_3
REMARK    3  A    between atoms: C_3  and  N_4
REMARK    4  A    between atoms: C_7  and  C_20
REMARK    5  A    between atoms: N_11  and  C_12
REMARK    6  A    between atoms: C_16  and  C_19
REMARK    7  A    between atoms: C_17  and  C_18
REMARK    8  A    between atoms: C_20  and  C_21
REMARK    9  A    between atoms: N_23  and  C_24
REMARK   10  A    between atoms: C_26  and  N_32
REMARK   11  A    between atoms: C_29  and  O_30
REMARK   12  A    between atoms: O_30  and  C_31
REMARK                            x       y       z     vdW  Elec       q    Type
REMARK                         _______ _______ _______ _____ _____    ______ ____
ROOT
ATOM      1  N   UNL     1       0.646  -1.674  -1.270  0.00  0.00    -0.250 N 
ATOM      2  C   UNL     1       1.635  -2.200  -0.566  0.00  0.00    +0.235 C 
ATOM      3  O   UNL     1       2.401  -1.516   0.078  0.00  0.00    -0.274 OA
ATOM      4  C   UNL     1       1.749  -3.715  -0.615  0.00  0.00    +0.149 C 
ATOM      5  S   UNL     1       0.336  -4.116  -1.724  0.00  0.00    -0.077 S 
ATOM      6  C   UNL     1      -0.233  -2.445  -2.001  0.00  0.00    +0.164 C 
ATOM      7  N   UNL     1      -1.249  -2.045  -2.729  0.00  0.00    -0.226 NA
ENDROOT
BRANCH   7   8
ATOM      8  C   UNL     1      -1.960  -2.952  -3.469  0.00  0.00    +0.070 A 
ATOM      9  C   UNL     1      -2.355  -4.165  -2.900  0.00  0.00    +0.028 A 
ATOM     10  C   UNL     1      -3.071  -5.074  -3.651  0.00  0.00    +0.002 A 
ATOM     11  C   UNL     1      -3.398  -4.786  -4.964  0.00  0.00    +0.004 A 
ATOM     12  C   UNL     1      -3.010  -3.586  -5.534  0.00  0.00    -0.046 A 
ATOM     13  C   UNL     1      -2.299  -2.666  -4.793  0.00  0.00    -0.022 A 
ATOM     14  C   UNL     1      -1.883  -1.356  -5.412  0.00  0.00    +0.046 C 
ATOM     15  C   UNL     1      -3.371  -3.282  -6.965  0.00  0.00    +0.044 C 
ENDBRANCH   7   8
BRANCH   1  16
ATOM     16  C   UNL     1       0.476  -0.219  -1.269  0.00  0.00    +0.115 C 
BRANCH  16  18
ATOM     17  C   UNL     1      -0.628   1.704  -0.118  0.00  0.00    +0.005 C 
ATOM     18  C   UNL     1      -0.449   0.185  -0.119  0.00  0.00    +0.016 C 
ENDBRANCH  16  18
ENDBRANCH   1  16
BRANCH   4  19
ATOM     19  C   UNL     1       3.080  -4.151  -1.230  0.00  0.00    +0.120 C 
BRANCH  19  20
ATOM     20  C   UNL     1       3.205  -5.650  -1.147  0.00  0.00    +0.219 C 
ATOM     21  O   UNL     1       2.317  -6.306  -0.645  0.00  0.00    -0.275 OA
ATOM     22  N   UNL     1       4.303  -6.263  -1.631  0.00  0.00    -0.282 N 
ATOM     23  H   UNL     1       5.050  -5.735  -1.956  0.00  0.00    +0.155 HD
BRANCH  22  24
ATOM     24  C   UNL     1       4.368  -7.662  -1.665  0.00  0.00    +0.078 A 
ATOM     25  C   UNL     1       3.201  -8.411  -1.704  0.00  0.00    +0.059 A 
ATOM     26  C   UNL     1       3.267  -9.791  -1.737  0.00  0.00    +0.128 A 
ATOM     27  C   UNL     1       4.494 -10.429  -1.731  0.00  0.00    +0.036 A 
ATOM     28  C   UNL     1       5.661  -9.689  -1.692  0.00  0.00    +0.050 A 
ATOM     29  C   UNL     1       5.604  -8.305  -1.665  0.00  0.00    +0.141 A 
BRANCH  26  30
ATOM     30  N   UNL     1       2.021 -10.589  -1.779  0.00  0.00    +0.056 N 
ATOM     31  O   UNL     1       0.947 -10.034  -1.784  0.00  0.00    -0.126 OA
ATOM     32  O   UNL     1       2.077 -11.797  -1.808  0.00  0.00    -0.126 OA
ENDBRANCH  26  30
BRANCH  29  33
ATOM     33  O   UNL     1       6.751  -7.576  -1.631  0.00  0.00    -0.493 OA
ATOM     34  C   UNL     1       7.982  -8.302  -1.633  0.00  0.00    +0.277 C 
ENDBRANCH  29  33
ENDBRANCH  22  24
ENDBRANCH  19  20
ENDBRANCH   4  19
TORSDOF 8
