REMARK  Name = ZINC35062182
REMARK  14 active torsions:
REMARK  status: ('A' for Active; 'I' for Inactive)
REMARK    1  A    between atoms: C_1  and  C_2
REMARK    2  A    between atoms: C_2  and  C_3
REMARK    3  A    between atoms: C_3  and  C_5
REMARK    4  A    between atoms: C_3  and  N_25
REMARK    5  A    between atoms: N_15  and  C_16
REMARK    6  A    between atoms: C_19  and  O_22
REMARK    7  A    between atoms: O_22  and  C_23
REMARK    8  A    between atoms: C_23  and  C_24
REMARK    9  A    between atoms: N_25  and  C_26
REMARK   10  A    between atoms: C_26  and  C_27
REMARK   11  A    between atoms: C_27  and  C_28
REMARK   12  A    between atoms: C_28  and  C_29
REMARK   13  A    between atoms: C_28  and  C_30
REMARK   14  A    between atoms: N_33  and  C_34
REMARK                            x       y       z     vdW  Elec       q    Type
REMARK                         _______ _______ _______ _____ _____    ______ ____
ROOT
ATOM      1  C   UNL     1      -1.165  -0.243  -0.125  0.00  0.00    +0.144 C 
ENDROOT
BRANCH   1   2
ATOM      2  C   UNL     1      -1.319  -1.739  -0.027  0.00  0.00    +0.138 A 
ATOM      3  N   UNL     1      -0.274  -2.481  -0.236  0.00  0.00    -0.231 NA
ATOM      4  C   UNL     1      -0.337  -3.834  -0.165  0.00  0.00    +0.078 A 
ATOM      5  C   UNL     1       0.787  -4.633  -0.388  0.00  0.00    +0.028 A 
ATOM      6  C   UNL     1       0.677  -6.003  -0.305  0.00  0.00    +0.002 A 
ATOM      7  C   UNL     1      -0.538  -6.602  -0.002  0.00  0.00    +0.001 A 
ATOM      8  C   UNL     1      -1.661  -5.836   0.223  0.00  0.00    +0.015 A 
ATOM      9  C   UNL     1      -1.571  -4.448   0.144  0.00  0.00    +0.065 A 
ATOM     10  C   UNL     1      -2.735  -3.580   0.375  0.00  0.00    +0.266 A 
ATOM     11  O   UNL     1      -3.827  -4.045   0.645  0.00  0.00    -0.267 OA
ATOM     12  N   UNL     1      -2.544  -2.243   0.280  0.00  0.00    -0.263 N 
BRANCH  12  13
ATOM     13  C   UNL     1      -3.620  -1.371   0.496  0.00  0.00    +0.051 A 
ATOM     14  C   UNL     1      -4.673  -1.330  -0.408  0.00  0.00    +0.030 A 
ATOM     15  C   UNL     1      -5.732  -0.470  -0.195  0.00  0.00    +0.047 A 
ATOM     16  C   UNL     1      -5.745   0.353   0.922  0.00  0.00    +0.121 A 
ATOM     17  C   UNL     1      -4.692   0.313   1.825  0.00  0.00    +0.047 A 
ATOM     18  C   UNL     1      -3.635  -0.551   1.617  0.00  0.00    +0.030 A 
BRANCH  16  19
ATOM     19  O   UNL     1      -6.787   1.199   1.131  0.00  0.00    -0.492 OA
BRANCH  19  20
ATOM     20  C   UNL     1      -6.734   2.018   2.301  0.00  0.00    +0.225 C 
ATOM     21  C   UNL     1      -7.985   2.897   2.366  0.00  0.00    +0.048 C 
ENDBRANCH  19  20
ENDBRANCH  16  19
ENDBRANCH  12  13
ENDBRANCH   1   2
BRANCH   1  22
ATOM     22  N   UNL     1      -1.722   0.223  -1.397  0.00  0.00    -0.275 N 
ATOM     23  C   UNL     1      -2.647   1.204  -1.408  0.00  0.00    +0.307 C 
ATOM     24  O   UNL     1      -3.018   1.701  -0.363  0.00  0.00    -0.252 OA
ATOM     25  N   UNL     1      -3.160   1.633  -2.578  0.00  0.00    -0.267 N 
ATOM     26  H   UNL     1      -2.922   1.185  -3.405  0.00  0.00    +0.156 HD
BRANCH  25  27
ATOM     27  C   UNL     1      -4.036   2.725  -2.600  0.00  0.00    +0.070 A 
ATOM     28  C   UNL     1      -3.888   3.755  -1.681  0.00  0.00    +0.026 A 
ATOM     29  C   UNL     1      -4.754   4.831  -1.705  0.00  0.00    +0.002 A 
ATOM     30  C   UNL     1      -5.768   4.884  -2.643  0.00  0.00    +0.003 A 
ATOM     31  C   UNL     1      -5.920   3.861  -3.561  0.00  0.00    +0.040 A 
ATOM     32  C   UNL     1      -5.053   2.784  -3.547  0.00  0.00    +0.145 A 
ATOM     33  F   UNL     1      -5.198   1.787  -4.447  0.00  0.00    -0.204 F 
ENDBRANCH  25  27
BRANCH  22  34
ATOM     34  C   UNL     1      -1.274  -0.376  -2.656  0.00  0.00    +0.110 C 
BRANCH  34  35
ATOM     35  C   UNL     1      -2.253  -1.476  -3.074  0.00  0.00    +0.022 C 
BRANCH  35  36
ATOM     36  C   UNL     1      -1.720  -2.186  -4.320  0.00  0.00    -0.016 C 
ATOM     37  C   UNL     1      -2.633  -3.365  -4.665  0.00  0.00    +0.007 C 
ATOM     38  C   UNL     1      -1.690  -1.204  -5.493  0.00  0.00    +0.007 C 
ENDBRANCH  35  36
ENDBRANCH  34  35
ENDBRANCH  22  34
ENDBRANCH   1  22
BRANCH   1  40
ATOM     39  C   UNL     1       0.471   1.645  -0.076  0.00  0.00    +0.006 C 
ATOM     40  C   UNL     1       0.319   0.122  -0.054  0.00  0.00    +0.027 C 
ENDBRANCH   1  40
TORSDOF 10
