REMARK  Name = ZINC34906073
REMARK  7 active torsions:
REMARK  status: ('A' for Active; 'I' for Inactive)
REMARK    1  A    between atoms: C_4  and  O_7
REMARK    2  A    between atoms: O_7  and  C_8
REMARK    3  A    between atoms: C_8  and  C_9
REMARK    4  A    between atoms: C_11  and  C_14
REMARK    5  A    between atoms: N_16  and  C_17
REMARK    6  A    between atoms: C_23  and  N_25
REMARK    7  A    between atoms: N_28  and  C_29
REMARK                            x       y       z     vdW  Elec       q    Type
REMARK                         _______ _______ _______ _____ _____    ______ ____
ROOT
ATOM      1  C   UNL     1       8.342  -4.009   4.146  0.00  0.00    +0.093 C 
ATOM      2  C   UNL     1       9.278  -2.833   4.435  0.00  0.00    +0.024 C 
ATOM      3  C   UNL     1      10.244  -3.213   5.558  0.00  0.00    +0.002 C 
ATOM      4  C   UNL     1       9.450  -3.554   6.821  0.00  0.00    +0.002 C 
ATOM      5  C   UNL     1       8.514  -4.730   6.532  0.00  0.00    +0.024 C 
ATOM      6  C   UNL     1       7.548  -4.350   5.409  0.00  0.00    +0.095 C 
ENDROOT
BRANCH   6   7
ATOM      7  N   UNL     1       6.758  -3.186   5.818  0.00  0.00    -0.295 N 
ATOM      8  C   UNL     1       5.638  -3.355   6.548  0.00  0.00    +0.304 C 
ATOM      9  O   UNL     1       5.283  -4.473   6.868  0.00  0.00    -0.252 OA
ATOM     10  N   UNL     1       4.911  -2.284   6.925  0.00  0.00    -0.269 N 
ATOM     11  H   UNL     1       7.040  -2.294   5.563  0.00  0.00    +0.151 HD
ATOM     12  H   UNL     1       5.235  -1.389   6.740  0.00  0.00    +0.156 HD
BRANCH  10  13
ATOM     13  C   UNL     1       3.691  -2.464   7.579  0.00  0.00    +0.042 A 
ATOM     14  C   UNL     1       2.975  -3.630   7.409  0.00  0.00    +0.024 A 
ATOM     15  C   UNL     1       1.758  -3.819   8.056  0.00  0.00    +0.002 A 
ATOM     16  C   UNL     1       1.241  -2.861   8.874  0.00  0.00    +0.008 A 
ATOM     17  C   UNL     1       1.939  -1.658   9.075  0.00  0.00    -0.016 A 
ATOM     18  C   UNL     1       3.182  -1.457   8.426  0.00  0.00    +0.003 A 
ATOM     19  C   UNL     1       3.881  -0.257   8.633  0.00  0.00    +0.010 A 
ATOM     20  C   UNL     1       3.360   0.693   9.457  0.00  0.00    +0.001 A 
ATOM     21  C   UNL     1       2.141   0.493  10.101  0.00  0.00    +0.001 A 
ATOM     22  C   UNL     1       1.429  -0.652   9.914  0.00  0.00    +0.008 A 
ENDBRANCH  10  13
ENDBRANCH   6   7
BRANCH   1  25
ATOM     23  C   UNL     1       7.789  -3.792   1.784  0.00  0.00    +0.263 C 
ATOM     24  O   UNL     1       8.892  -4.227   1.515  0.00  0.00    -0.269 OA
ATOM     25  N   UNL     1       7.417  -3.644   3.071  0.00  0.00    -0.305 N 
ATOM     26  H   UNL     1       6.537  -3.297   3.285  0.00  0.00    +0.149 HD
BRANCH  23  29
ATOM     27  C   UNL     1       4.871  -2.641  -0.060  0.00  0.00    +0.116 A 
ATOM     28  N   UNL     1       5.637  -2.943   0.952  0.00  0.00    -0.236 NA
ATOM     29  C   UNL     1       6.859  -3.426   0.702  0.00  0.00    +0.133 A 
ATOM     30  C   UNL     1       7.194  -3.559  -0.619  0.00  0.00    +0.080 A 
ATOM     31  S   UNL     1       5.808  -3.019  -1.400  0.00  0.00    -0.076 S 
BRANCH  27  32
ATOM     32  C   UNL     1       3.469  -2.088  -0.032  0.00  0.00    +0.291 C 
BRANCH  32  33
ATOM     33  O   UNL     1       3.521  -0.660  -0.031  0.00  0.00    -0.485 OA
BRANCH  33  37
ATOM     34  C   UNL     1      -0.085   1.344   0.041  0.00  0.00    +0.000 A 
ATOM     35  C   UNL     1       1.100   2.056   0.020  0.00  0.00    +0.004 A 
ATOM     36  C   UNL     1       2.309   1.388  -0.004  0.00  0.00    +0.045 A 
ATOM     37  C   UNL     1       2.333   0.001  -0.007  0.00  0.00    +0.121 A 
ATOM     38  C   UNL     1       1.143  -0.712   0.014  0.00  0.00    +0.045 A 
ATOM     39  C   UNL     1      -0.063  -0.038   0.038  0.00  0.00    +0.004 A 
ENDBRANCH  33  37
ENDBRANCH  32  33
ENDBRANCH  27  32
ENDBRANCH  23  29
ENDBRANCH   1  25
TORSDOF 7
