REMARK  Name = ZINC36579350
REMARK  17 active torsions:
REMARK  status: ('A' for Active; 'I' for Inactive)
REMARK    1  A    between atoms: C_1  and  C_2
REMARK    2  A    between atoms: C_2  and  C_3
REMARK    3  A    between atoms: C_2  and  C_4
REMARK    4  A    between atoms: C_2  and  N_5
REMARK    5  A    between atoms: C_6  and  C_8
REMARK    6  A    between atoms: C_8  and  C_10
REMARK    7  A    between atoms: C_8  and  N_19
REMARK    8  A    between atoms: C_13  and  N_16
REMARK    9  A    between atoms: N_16  and  C_17
REMARK   10  A    between atoms: N_16  and  C_18
REMARK   11  A    between atoms: N_19  and  C_36
REMARK   12  A    between atoms: C_20  and  C_22
REMARK   13  A    between atoms: C_22  and  C_30
REMARK   14  A    between atoms: C_23  and  C_24
REMARK   15  A    between atoms: C_36  and  C_37
REMARK   16  A    between atoms: C_36  and  C_38
REMARK   17  A    between atoms: C_36  and  C_39
REMARK                            x       y       z     vdW  Elec       q    Type
REMARK                         _______ _______ _______ _____ _____    ______ ____
ROOT
ATOM      1  N   UNL     1       4.137  -1.504  -2.463  0.00  0.00    -0.277 N 
ATOM      2  C   UNL     1       4.632  -0.254  -2.558  0.00  0.00    +0.248 C 
ATOM      3  O   UNL     1       4.404   0.417  -3.547  0.00  0.00    -0.270 OA
ENDROOT
BRANCH   1   4
ATOM      4  C   UNL     1       4.401  -2.307  -1.266  0.00  0.00    +0.030 C 
ATOM      5  C   UNL     1       4.310  -3.793  -1.619  0.00  0.00    +0.031 C 
ATOM      6  C   UNL     1       5.802  -1.993  -0.740  0.00  0.00    +0.031 C 
ATOM      7  C   UNL     1       3.365  -1.974  -0.190  0.00  0.00    +0.031 C 
ENDBRANCH   1   4
BRANCH   2   8
ATOM      8  C   UNL     1       5.448   0.300  -1.466  0.00  0.00    +0.045 C 
ATOM      9  C   UNL     1       4.847   0.898  -0.403  0.00  0.00    +0.021 C 
BRANCH   9  10
ATOM     10  C   UNL     1       3.419   1.240  -0.464  0.00  0.00    -0.024 A 
ATOM     11  C   UNL     1       2.629   1.169   0.689  0.00  0.00    +0.008 A 
ATOM     12  C   UNL     1       1.290   1.491   0.624  0.00  0.00    +0.001 A 
ATOM     13  C   UNL     1       0.727   1.885  -0.578  0.00  0.00    +0.000 A 
ATOM     14  C   UNL     1       1.501   1.957  -1.723  0.00  0.00    +0.001 A 
ATOM     15  C   UNL     1       2.843   1.643  -1.674  0.00  0.00    +0.008 A 
ENDBRANCH   9  10
BRANCH   8  16
ATOM     16  C   UNL     1       6.925   0.205  -1.523  0.00  0.00    -0.013 A 
ATOM     17  C   UNL     1       7.602   0.531  -2.698  0.00  0.00    +0.008 A 
ATOM     18  C   UNL     1       8.978   0.441  -2.746  0.00  0.00    +0.001 A 
ATOM     19  C   UNL     1       9.686   0.027  -1.631  0.00  0.00    +0.000 A 
ATOM     20  C   UNL     1       9.020  -0.299  -0.463  0.00  0.00    +0.001 A 
ATOM     21  C   UNL     1       7.645  -0.206  -0.401  0.00  0.00    +0.008 A 
ENDBRANCH   8  16
ENDBRANCH   2   8
BRANCH   1  22
ATOM     22  C   UNL     1       3.335  -2.059  -3.556  0.00  0.00    +0.193 C 
BRANCH  22  23
ATOM     23  C   UNL     1       2.040  -1.298  -3.666  0.00  0.00    -0.018 A 
ATOM     24  C   UNL     1       1.967  -0.173  -4.468  0.00  0.00    +0.008 A 
ATOM     25  C   UNL     1       0.781   0.527  -4.571  0.00  0.00    +0.023 A 
ATOM     26  C   UNL     1      -0.339   0.101  -3.869  0.00  0.00    +0.029 A 
ATOM     27  C   UNL     1      -0.262  -1.028  -3.064  0.00  0.00    +0.023 A 
ATOM     28  C   UNL     1       0.925  -1.728  -2.970  0.00  0.00    +0.008 A 
BRANCH  26  29
ATOM     29  N   UNL     1      -1.540   0.808  -3.971  0.00  0.00    -0.336 N 
ATOM     30  C   UNL     1      -1.619   1.999  -4.819  0.00  0.00    +0.129 C 
ATOM     31  C   UNL     1      -2.720   0.357  -3.229  0.00  0.00    +0.129 C 
ENDBRANCH  26  29
ENDBRANCH  22  23
BRANCH  22  33
ATOM     32  N   UNL     1       3.595  -2.473  -5.981  0.00  0.00    -0.309 N 
ATOM     33  C   UNL     1       4.099  -1.941  -4.849  0.00  0.00    +0.239 C 
ATOM     34  O   UNL     1       5.168  -1.368  -4.872  0.00  0.00    -0.273 OA
ATOM     35  H   UNL     1       2.740  -2.931  -5.962  0.00  0.00    +0.149 HD
BRANCH  32  37
ATOM     36  C   UNL     1       5.702  -3.034  -7.088  0.00  0.00    +0.031 C 
ATOM     37  C   UNL     1       4.338  -2.358  -7.238  0.00  0.00    +0.026 C 
ATOM     38  C   UNL     1       4.536  -0.880  -7.580  0.00  0.00    +0.031 C 
ATOM     39  C   UNL     1       3.551  -3.040  -8.359  0.00  0.00    +0.031 C 
ENDBRANCH  32  37
ENDBRANCH  22  33
ENDBRANCH   1  22
TORSDOF 9
