REMARK  Name = ZINC39840590
REMARK  6 active torsions:
REMARK  status: ('A' for Active; 'I' for Inactive)
REMARK    1  A    between atoms: C_1  and  C_2
REMARK    2  A    between atoms: C_2  and  C_3
REMARK    3  A    between atoms: C_3  and  C_4
REMARK    4  A    between atoms: C_10  and  C_26
REMARK    5  A    between atoms: C_30  and  O_32
REMARK    6  A    between atoms: O_32  and  C_33
REMARK                            x       y       z     vdW  Elec       q    Type
REMARK                         _______ _______ _______ _____ _____    ______ ____
ROOT
ATOM      1  C   UNL     1      -1.019  -3.671  -1.435  0.00  0.00    +0.104 A 
ATOM      2  N   UNL     1      -1.023  -4.269  -0.259  0.00  0.00    -0.145 NA
ATOM      3  N   UNL     1      -1.236  -5.505  -0.136  0.00  0.00    -0.125 NA
ATOM      4  C   UNL     1      -1.471  -6.283  -1.184  0.00  0.00    +0.191 A 
ATOM      5  S   UNL     1      -1.375  -5.068  -2.496  0.00  0.00    -0.035 S 
ATOM      6  N   UNL     1      -1.724  -7.647  -1.246  0.00  0.00    -0.230 N 
ATOM      7  C   UNL     1      -1.794  -8.567  -0.099  0.00  0.00    +0.152 C 
ATOM      8  C   UNL     1      -2.084  -9.914  -0.674  0.00  0.00    +0.072 A 
ATOM      9  C   UNL     1      -2.256 -11.222  -0.034  0.00  0.00    +0.199 A 
ATOM     10  O   UNL     1      -2.352 -11.366   1.172  0.00  0.00    -0.287 OA
ATOM     11  C   UNL     1      -2.303 -12.353  -0.995  0.00  0.00    +0.067 A 
ATOM     12  C   UNL     1      -2.262 -13.669  -0.536  0.00  0.00    +0.053 A 
ATOM     13  C   UNL     1      -2.301 -14.708  -1.443  0.00  0.00    +0.124 A 
ATOM     14  C   UNL     1      -2.380 -14.439  -2.805  0.00  0.00    +0.042 A 
ATOM     15  C   UNL     1      -2.422 -13.144  -3.266  0.00  0.00    +0.050 A 
ATOM     16  C   UNL     1      -2.386 -12.077  -2.369  0.00  0.00    +0.140 A 
ATOM     17  O   UNL     1      -2.439 -10.813  -2.850  0.00  0.00    -0.450 OA
ATOM     18  C   UNL     1      -2.177  -9.776  -2.031  0.00  0.00    +0.199 A 
ATOM     19  C   UNL     1      -1.953  -8.360  -2.367  0.00  0.00    +0.289 C 
ATOM     20  O   UNL     1      -1.970  -7.902  -3.493  0.00  0.00    -0.266 OA
ATOM     21  F   UNL     1      -2.263 -15.986  -1.008  0.00  0.00    -0.205 F 
ENDROOT
BRANCH   7  22
ATOM     22  C   UNL     1      -2.900  -8.149   0.835  0.00  0.00    -0.019 A 
ATOM     23  C   UNL     1      -4.095  -7.676   0.323  0.00  0.00    +0.006 A 
ATOM     24  C   UNL     1      -5.112  -7.293   1.177  0.00  0.00    +0.004 A 
ATOM     25  C   UNL     1      -4.938  -7.381   2.545  0.00  0.00    +0.046 A 
ATOM     26  C   UNL     1      -3.741  -7.856   3.061  0.00  0.00    +0.129 A 
ATOM     27  C   UNL     1      -2.723  -8.245   2.202  0.00  0.00    +0.052 A 
BRANCH  26  28
ATOM     28  O   UNL     1      -3.567  -7.944   4.406  0.00  0.00    -0.456 OA
BRANCH  28  29
ATOM     29  C   UNL     1      -2.374  -8.405   4.866  0.00  0.00    +0.128 A 
ATOM     30  C   UNL     1      -1.337  -7.519   5.118  0.00  0.00    +0.046 A 
ATOM     31  C   UNL     1      -0.126  -7.990   5.586  0.00  0.00    +0.004 A 
ATOM     32  C   UNL     1       0.053  -9.344   5.803  0.00  0.00    +0.000 A 
ATOM     33  C   UNL     1      -0.979 -10.229   5.552  0.00  0.00    +0.004 A 
ATOM     34  C   UNL     1      -2.194  -9.762   5.090  0.00  0.00    +0.046 A 
ENDBRANCH  28  29
ENDBRANCH  26  28
ENDBRANCH   7  22
BRANCH   1  35
ATOM     35  C   UNL     1      -0.789  -2.223  -1.784  0.00  0.00    +0.064 C 
BRANCH  35  37
ATOM     36  C   UNL     1       0.936  -0.521  -2.392  0.00  0.00    +0.004 C 
ATOM     37  C   UNL     1       0.702  -1.991  -2.037  0.00  0.00    +0.003 C 
ENDBRANCH  35  37
ENDBRANCH   1  35
TORSDOF 5
