REMARK  Name = ZINC40929268
REMARK  6 active torsions:
REMARK  status: ('A' for Active; 'I' for Inactive)
REMARK    1  A    between atoms: C_5  and  N_7
REMARK    2  A    between atoms: C_13  and  C_15
REMARK    3  A    between atoms: N_18  and  C_21
REMARK    4  A    between atoms: C_21  and  C_22
REMARK    5  A    between atoms: C_24  and  C_27
REMARK    6  A    between atoms: C_30  and  C_33
REMARK                            x       y       z     vdW  Elec       q    Type
REMARK                         _______ _______ _______ _____ _____    ______ ____
ROOT
ATOM      1  C   UNL     1      -0.006  -6.651  -1.341  0.00  0.00    +0.072 C 
ATOM      2  C   UNL     1      -1.275  -6.213  -2.079  0.00  0.00    -0.006 C 
ATOM      3  C   UNL     1      -1.421  -7.033  -3.363  0.00  0.00    -0.077 C 
ATOM      4  N   UNL     1      -1.515  -8.459  -3.029  0.00  0.00    +0.386 N 
ATOM      5  C   UNL     1      -0.273  -8.903  -2.386  0.00  0.00    -0.077 C 
ATOM      6  C   UNL     1      -0.083  -8.155  -1.064  0.00  0.00    -0.006 C 
ATOM      7  H   UNL     1      -2.289  -8.606  -2.399  0.00  0.00    -0.081 HD
ENDROOT
BRANCH   1  14
ATOM      8  N   UNL     1       2.631  -2.835   0.281  0.00  0.00    -0.325 N 
ATOM      9  C   UNL     1       2.086  -3.440   1.504  0.00  0.00    +0.124 C 
ATOM     10  C   UNL     1       0.642  -3.881   1.232  0.00  0.00    +0.126 C 
ATOM     11  N   UNL     1       0.617  -4.658  -0.016  0.00  0.00    -0.298 N 
ATOM     12  C   UNL     1       1.162  -4.053  -1.239  0.00  0.00    +0.126 C 
ATOM     13  C   UNL     1       2.600  -3.610  -0.967  0.00  0.00    +0.124 C 
ATOM     14  C   UNL     1       0.102  -5.904  -0.037  0.00  0.00    +0.219 C 
ATOM     15  O   UNL     1      -0.273  -6.423   0.992  0.00  0.00    -0.275 OA
BRANCH   8  20
ATOM     16  C   UNL     1       2.877   0.828   0.084  0.00  0.00    +0.002 A 
ATOM     17  C   UNL     1       4.221   1.016   0.347  0.00  0.00    +0.003 A 
ATOM     18  C   UNL     1       5.040  -0.071   0.590  0.00  0.00    +0.040 A 
ATOM     19  C   UNL     1       4.517  -1.351   0.569  0.00  0.00    +0.144 A 
ATOM     20  C   UNL     1       3.165  -1.542   0.304  0.00  0.00    +0.065 A 
ATOM     21  C   UNL     1       2.347  -0.448   0.061  0.00  0.00    +0.026 A 
ATOM     22  F   UNL     1       5.317  -2.413   0.805  0.00  0.00    -0.204 F 
ENDBRANCH   8  20
ENDBRANCH   1  14
BRANCH   4  23
ATOM     23  C   UNL     1      -1.733  -9.235  -4.258  0.00  0.00    +0.022 C 
BRANCH  23  24
ATOM     24  C   UNL     1      -1.952 -10.683  -3.905  0.00  0.00    +0.211 A 
ATOM     25  N   UNL     1      -3.103 -11.241  -3.658  0.00  0.00    -0.193 NA
ATOM     26  C   UNL     1      -2.932 -12.546  -3.379  0.00  0.00    +0.202 A 
ATOM     27  N   UNL     1      -1.654 -12.825  -3.449  0.00  0.00    -0.056 NA
ATOM     28  O   UNL     1      -0.997 -11.616  -3.798  0.00  0.00    -0.340 OA
BRANCH  26  29
ATOM     29  C   UNL     1      -4.012 -13.508  -3.047  0.00  0.00    +0.022 A 
ATOM     30  C   UNL     1      -5.339 -13.085  -3.010  0.00  0.00    +0.012 A 
ATOM     31  C   UNL     1      -6.339 -13.985  -2.700  0.00  0.00    +0.013 A 
ATOM     32  C   UNL     1      -6.025 -15.304  -2.427  0.00  0.00    +0.055 A 
ATOM     33  C   UNL     1      -4.710 -15.729  -2.462  0.00  0.00    +0.013 A 
ATOM     34  C   UNL     1      -3.702 -14.840  -2.777  0.00  0.00    +0.012 A 
BRANCH  32  35
ATOM     35  C   UNL     1      -7.122 -16.281  -2.089  0.00  0.00    +0.417 C 
ATOM     36  F   UNL     1      -7.591 -16.880  -3.263  0.00  0.00    -0.166 F 
ATOM     37  F   UNL     1      -6.620 -17.267  -1.232  0.00  0.00    -0.166 F 
ATOM     38  F   UNL     1      -8.171 -15.605  -1.458  0.00  0.00    -0.166 F 
ENDBRANCH  32  35
ENDBRANCH  26  29
ENDBRANCH  23  24
ENDBRANCH   4  23
TORSDOF 6
