REMARK  Name = ZINC36308866
REMARK  17 active torsions:
REMARK  status: ('A' for Active; 'I' for Inactive)
REMARK    1  A    between atoms: C_1  and  C_2
REMARK    2  A    between atoms: C_2  and  N_3
REMARK    3  A    between atoms: N_3  and  C_4
REMARK    4  A    between atoms: N_3  and  C_17
REMARK    5  A    between atoms: C_4  and  C_5
REMARK    6  A    between atoms: C_5  and  C_7
REMARK    7  A    between atoms: C_5  and  O_16
REMARK    8  A    between atoms: C_7  and  O_8
REMARK    9  A    between atoms: O_8  and  C_9
REMARK   10  A    between atoms: C_9  and  C_10
REMARK   11  A    between atoms: C_17  and  C_18
REMARK   12  A    between atoms: C_28  and  C_30
REMARK   13  A    between atoms: C_30  and  O_31
REMARK   14  A    between atoms: O_31  and  C_32
REMARK   15  A    between atoms: C_35  and  C_38
REMARK   16  A    between atoms: C_38  and  C_39
REMARK   17  A    between atoms: C_38  and  C_40
REMARK                            x       y       z     vdW  Elec       q    Type
REMARK                         _______ _______ _______ _____ _____    ______ ____
ROOT
ATOM      1  C   UNL     1      -1.083  -2.227  -1.558  0.00  0.00    +0.200 C 
ATOM      2  O   UNL     1      -1.892  -1.329  -1.465  0.00  0.00    -0.278 OA
ATOM      3  N   UNL     1      -1.501  -3.494  -1.746  0.00  0.00    -0.292 N 
ATOM      4  C   UNL     1      -0.529  -4.593  -1.854  0.00  0.00    +0.113 C 
ATOM      5  C   UNL     1      -0.730  -5.534  -0.656  0.00  0.00    +0.061 C 
ATOM      6  C   UNL     1      -2.196  -5.740  -0.450  0.00  0.00    -0.004 A 
ATOM      7  C   UNL     1      -3.223  -4.999  -0.948  0.00  0.00    -0.014 A 
ATOM      8  C   UNL     1      -4.511  -5.400  -0.596  0.00  0.00    +0.013 A 
ATOM      9  C   UNL     1      -4.691  -6.481   0.197  0.00  0.00    +0.046 A 
ATOM     10  S   UNL     1      -3.008  -7.001   0.496  0.00  0.00    -0.101 S 
ATOM     11  C   UNL     1      -2.936  -3.799  -1.841  0.00  0.00    +0.144 C 
ENDROOT
BRANCH   1  12
ATOM     12  C   UNL     1       0.391  -1.927  -1.462  0.00  0.00    +0.019 C 
BRANCH  12  13
ATOM     13  N   UNL     1       0.584  -0.485  -1.258  0.00  0.00    +0.387 N 
ATOM     14  H   UNL     1       0.117   0.024  -1.993  0.00  0.00    -0.081 HD
BRANCH  13  16
ATOM     15  C   UNL     1       0.094   1.426   0.192  0.00  0.00    -0.017 C 
ATOM     16  C   UNL     1       0.023  -0.095   0.042  0.00  0.00    -0.081 C 
ENDBRANCH  13  16
BRANCH  13  17
ATOM     17  C   UNL     1       2.020  -0.175  -1.285  0.00  0.00    -0.044 C 
BRANCH  17  18
ATOM     18  C   UNL     1       2.573  -0.440  -2.687  0.00  0.00    +0.124 C 
BRANCH  18  19
ATOM     19  O   UNL     1       1.895   0.392  -3.631  0.00  0.00    -0.391 OA
ATOM     20  H   UNL     1       2.052   1.338  -3.506  0.00  0.00    +0.210 HD
ENDBRANCH  18  19
BRANCH  18  21
ATOM     21  C   UNL     1       4.070  -0.125  -2.712  0.00  0.00    +0.189 C 
BRANCH  21  22
ATOM     22  O   UNL     1       4.610  -0.481  -3.986  0.00  0.00    -0.373 OA
BRANCH  22  23
ATOM     23  C   UNL     1       6.010  -0.227  -4.116  0.00  0.00    +0.195 C 
BRANCH  23  24
ATOM     24  C   UNL     1       6.471  -0.638  -5.491  0.00  0.00    -0.022 A 
ATOM     25  C   UNL     1       6.915  -1.928  -5.713  0.00  0.00    +0.006 A 
ATOM     26  C   UNL     1       7.337  -2.305  -6.975  0.00  0.00    +0.000 A 
ATOM     27  C   UNL     1       7.314  -1.393  -8.013  0.00  0.00    +0.000 A 
ATOM     28  C   UNL     1       6.870  -0.103  -7.790  0.00  0.00    +0.000 A 
ATOM     29  C   UNL     1       6.444   0.273  -6.530  0.00  0.00    +0.006 A 
ENDBRANCH  23  24
ENDBRANCH  22  23
ENDBRANCH  21  22
ENDBRANCH  18  21
ENDBRANCH  17  18
ENDBRANCH  13  17
ENDBRANCH  12  13
ENDBRANCH   1  12
BRANCH  11  30
ATOM     30  C   UNL     1      -3.299  -4.137  -3.288  0.00  0.00    +0.256 C 
BRANCH  30  31
ATOM     31  O   UNL     1      -2.634  -5.340  -3.677  0.00  0.00    -0.490 OA
BRANCH  31  32
ATOM     32  C   UNL     1      -2.852  -5.783  -4.944  0.00  0.00    +0.121 A 
ATOM     33  C   UNL     1      -3.683  -5.071  -5.796  0.00  0.00    +0.046 A 
ATOM     34  C   UNL     1      -3.902  -5.523  -7.083  0.00  0.00    +0.007 A 
ATOM     35  C   UNL     1      -3.294  -6.684  -7.522  0.00  0.00    -0.045 A 
ATOM     36  C   UNL     1      -2.465  -7.396  -6.674  0.00  0.00    +0.007 A 
ATOM     37  C   UNL     1      -2.238  -6.945  -5.388  0.00  0.00    +0.046 A 
BRANCH  35  38
ATOM     38  C   UNL     1      -3.535  -7.175  -8.926  0.00  0.00    +0.013 C 
ATOM     39  C   UNL     1      -2.204  -7.241  -9.679  0.00  0.00    +0.012 C 
ATOM     40  C   UNL     1      -4.163  -8.569  -8.878  0.00  0.00    +0.012 C 
ENDBRANCH  35  38
ENDBRANCH  31  32
ENDBRANCH  30  31
ENDBRANCH  11  30
TORSDOF 14
