REMARK  Name = ZINC36476291
REMARK  9 active torsions:
REMARK  status: ('A' for Active; 'I' for Inactive)
REMARK    1  A    between atoms: C_1  and  C_2
REMARK    2  A    between atoms: C_5  and  C_8
REMARK    3  A    between atoms: C_9  and  C_32
REMARK    4  A    between atoms: C_16  and  C_18
REMARK    5  A    between atoms: C_18  and  N_19
REMARK    6  A    between atoms: N_19  and  C_20
REMARK    7  A    between atoms: N_19  and  C_21
REMARK    8  A    between atoms: C_21  and  C_22
REMARK    9  A    between atoms: C_24  and  N_29
REMARK                            x       y       z     vdW  Elec       q    Type
REMARK                         _______ _______ _______ _____ _____    ______ ____
ROOT
ATOM      1  C   UNL     1      -0.305  -4.386   0.733  0.00  0.00    +0.007 A 
ATOM      2  C   UNL     1      -1.310  -5.084   0.150  0.00  0.00    -0.003 A 
ATOM      3  S   UNL     1      -0.660  -6.742   0.064  0.00  0.00    -0.075 S 
ATOM      4  C   UNL     1       0.925  -6.459   0.805  0.00  0.00    +0.092 A 
ATOM      5  C   UNL     1       0.918  -5.091   1.096  0.00  0.00    +0.080 A 
ATOM      6  C   UNL     1       2.152  -4.578   1.730  0.00  0.00    +0.282 A 
ATOM      7  O   UNL     1       2.250  -3.399   2.030  0.00  0.00    -0.265 OA
ATOM      8  N   UNL     1       3.162  -5.428   1.971  0.00  0.00    -0.197 NA
ATOM      9  C   UNL     1       3.098  -6.694   1.667  0.00  0.00    +0.095 A 
ATOM     10  N   UNL     1       2.001  -7.233   1.096  0.00  0.00    -0.339 N 
ATOM     11  C   UNL     1      -2.652  -4.580  -0.314  0.00  0.00    +0.052 C 
ATOM     12  H   UNL     1       1.986  -8.179   0.882  0.00  0.00    +0.167 HD
ENDROOT
BRANCH   1  17
ATOM     13  C   UNL     1      -0.852   1.257   1.739  0.00  0.00    +0.044 C 
ATOM     14  C   UNL     1      -0.709  -0.220   1.476  0.00  0.00    -0.050 A 
ATOM     15  C   UNL     1      -0.694  -0.690   0.175  0.00  0.00    +0.004 A 
ATOM     16  C   UNL     1      -0.564  -2.041  -0.072  0.00  0.00    +0.009 A 
ATOM     17  C   UNL     1      -0.446  -2.933   0.992  0.00  0.00    -0.016 A 
ATOM     18  C   UNL     1      -0.461  -2.454   2.301  0.00  0.00    +0.009 A 
ATOM     19  C   UNL     1      -0.586  -1.100   2.536  0.00  0.00    +0.004 A 
ENDBRANCH   1  17
BRANCH   9  20
ATOM     20  C   UNL     1       4.277  -7.581   1.971  0.00  0.00    -0.003 C 
BRANCH  20  21
ATOM     21  N   UNL     1       5.341  -6.784   2.595  0.00  0.00    +0.385 N 
ATOM     22  C   UNL     1       5.839  -5.793   1.633  0.00  0.00    -0.095 C 
ATOM     23  H   UNL     1       4.974  -6.311   3.407  0.00  0.00    -0.081 HD
BRANCH  21  24
ATOM     24  C   UNL     1       6.442  -7.669   3.001  0.00  0.00    -0.041 C 
BRANCH  24  25
ATOM     25  C   UNL     1       7.470  -6.874   3.763  0.00  0.00    -0.043 A 
ATOM     26  C   UNL     1       8.649  -6.497   3.147  0.00  0.00    +0.036 A 
ATOM     27  C   UNL     1       9.593  -5.769   3.846  0.00  0.00    +0.126 A 
ATOM     28  C   UNL     1       9.359  -5.416   5.162  0.00  0.00    +0.034 A 
ATOM     29  C   UNL     1       8.181  -5.792   5.779  0.00  0.00    +0.022 A 
ATOM     30  C   UNL     1       7.233  -6.517   5.078  0.00  0.00    +0.042 A 
ATOM     31 CL   UNL     1       5.750  -6.983   5.851  0.00  0.00    -0.083 Cl
BRANCH  27  32
ATOM     32  N   UNL     1      10.854  -5.366   3.185  0.00  0.00    +0.056 N 
ATOM     33  O   UNL     1      11.059  -5.674   2.034  0.00  0.00    -0.126 OA
ATOM     34  O   UNL     1      11.680  -4.729   3.797  0.00  0.00    -0.126 OA
ENDBRANCH  27  32
ENDBRANCH  24  25
ENDBRANCH  21  24
ENDBRANCH  20  21
ENDBRANCH   9  20
TORSDOF 6
