REMARK  Name = ZINC12421300
REMARK  11 active torsions:
REMARK  status: ('A' for Active; 'I' for Inactive)
REMARK    1  A    between atoms: C_1  and  N_60
REMARK    2  A    between atoms: C_2  and  N_60
REMARK    3  A    between atoms: C_3  and  C_4
REMARK    4  A    between atoms: C_3  and  N_60
REMARK    5  A    between atoms: C_4  and  C_5
REMARK    6  A    between atoms: C_5  and  N_6
REMARK    7  A    between atoms: N_6  and  C_7
REMARK    8  A    between atoms: C_8  and  C_31
REMARK    9  A    between atoms: C_10  and  C_12
REMARK   10  A    between atoms: C_15  and  S_18
REMARK   11  A    between atoms: S_18  and  N_21
REMARK                            x       y       z     vdW  Elec       q    Type
REMARK                         _______ _______ _______ _____ _____    ______ ____
ROOT
ATOM      1  C   UNL     1       1.514   4.685   0.013  0.00  0.00    +0.037 A 
ATOM      2  C   UNL     1       0.951   5.962   0.019  0.00  0.00    +0.015 A 
ATOM      3  C   UNL     1       1.769   7.073   0.023  0.00  0.00    +0.029 A 
ATOM      4  C   UNL     1       3.144   6.924   0.010  0.00  0.00    +0.106 A 
ATOM      5  C   UNL     1       3.709   5.660  -0.002  0.00  0.00    +0.029 A 
ATOM      6  C   UNL     1       2.902   4.541  -0.001  0.00  0.00    +0.015 A 
ENDROOT
BRANCH   1  10
ATOM      7  C   UNL     1      -1.143   2.239   0.019  0.00  0.00    +0.225 A 
ATOM      8  C   UNL     1      -0.017   1.428   0.010  0.00  0.00    +0.201 A 
ATOM      9  N   UNL     1       1.063   2.252   0.004  0.00  0.00    -0.196 NA
ATOM     10  C   UNL     1       0.644   3.490   0.014  0.00  0.00    +0.231 A 
ATOM     11  O   UNL     1      -0.703   3.510   0.027  0.00  0.00    -0.421 OA
BRANCH   7  12
ATOM     12  N   UNL     1      -2.456   1.823   0.022  0.00  0.00    -0.313 N 
ATOM     13  H   UNL     1      -2.665   0.875   0.018  0.00  0.00    +0.149 HD
BRANCH  12  14
ATOM     14  C   UNL     1      -3.537   2.811   0.032  0.00  0.00    +0.102 C 
BRANCH  14  15
ATOM     15  C   UNL     1      -4.887   2.090   0.034  0.00  0.00    +0.000 C 
BRANCH  15  16
ATOM     16  C   UNL     1      -6.016   3.123   0.044  0.00  0.00    -0.078 C 
BRANCH  16  19
ATOM     17  C   UNL     1      -7.509   1.685   1.295  0.00  0.00    -0.097 C 
ATOM     18  C   UNL     1      -8.414   3.375  -0.183  0.00  0.00    -0.097 C 
ATOM     19  N   UNL     1      -7.312   2.412   0.024  0.00  0.00    +0.376 N 
ATOM     20  H   UNL     1      -7.310   1.736  -0.750  0.00  0.00    -0.083 HD
ENDBRANCH  16  19
ENDBRANCH  15  16
ENDBRANCH  14  15
ENDBRANCH  12  14
ENDBRANCH   7  12
BRANCH   8  21
ATOM     21  C   UNL     1       0.002  -0.004   0.002  0.00  0.00    +0.124 C 
ATOM     22  N   UNL     1       0.018  -1.140  -0.004  0.00  0.00    -0.189 NA
ENDBRANCH   8  21
ENDBRANCH   1  10
BRANCH   4  23
ATOM     23  S   UNL     1       4.181   8.348   0.007  0.00  0.00    +0.061 S 
ATOM     24  O   UNL     1       3.419   9.407   0.571  0.00  0.00    -0.153 OA
ATOM     25  O   UNL     1       5.432   7.941   0.544  0.00  0.00    -0.153 OA
BRANCH  23  26
ATOM     26  N   UNL     1       4.455   8.752  -1.575  0.00  0.00    -0.172 NA
ATOM     27  C   UNL     1       5.601   8.203  -2.318  0.00  0.00    +0.114 C 
ATOM     28  C   UNL     1       5.046   7.337  -3.455  0.00  0.00    +0.052 C 
ATOM     29  C   UNL     1       3.958   8.064  -4.200  0.00  0.00    -0.042 A 
ATOM     30  C   UNL     1       3.646   7.620  -5.479  0.00  0.00    +0.004 A 
ATOM     31  C   UNL     1       2.652   8.233  -6.212  0.00  0.00    +0.000 A 
ATOM     32  C   UNL     1       1.958   9.301  -5.672  0.00  0.00    +0.000 A 
ATOM     33  C   UNL     1       2.269   9.747  -4.404  0.00  0.00    +0.005 A 
ATOM     34  C   UNL     1       3.272   9.132  -3.666  0.00  0.00    -0.028 A 
ATOM     35  C   UNL     1       3.568   9.675  -2.291  0.00  0.00    +0.144 C 
ENDBRANCH  23  26
ENDBRANCH   4  23
TORSDOF 9
