REMARK  Name = ZINC06135319
REMARK  9 active torsions:
REMARK  status: ('A' for Active; 'I' for Inactive)
REMARK    1  A    between atoms: C_1  and  C_2
REMARK    2  A    between atoms: C_2  and  C_3
REMARK    3  A    between atoms: C_10  and  C_15
REMARK    4  A    between atoms: C_15  and  C_17
REMARK    5  A    between atoms: C_15  and  N_78
REMARK    6  A    between atoms: N_21  and  C_22
REMARK    7  A    between atoms: N_30  and  C_33
REMARK    8  A    between atoms: C_37  and  C_40
REMARK    9  A    between atoms: C_38  and  C_39
REMARK                            x       y       z     vdW  Elec       q    Type
REMARK                         _______ _______ _______ _____ _____    ______ ____
ROOT
ATOM      1  C   UNL     1      -0.013   1.086   0.008  0.00  0.00    +0.039 C 
ENDROOT
BRANCH   1   9
ATOM      2  C   UNL     1      -2.877   0.820   5.486  0.00  0.00    -0.047 A 
ATOM      3  C   UNL     1      -3.089   2.186   5.618  0.00  0.00    +0.005 A 
ATOM      4  C   UNL     1      -2.664   3.060   4.641  0.00  0.00    +0.026 A 
ATOM      5  C   UNL     1      -2.017   2.572   3.511  0.00  0.00    +0.049 A 
ATOM      6  C   UNL     1      -1.805   1.187   3.381  0.00  0.00    -0.001 A 
ATOM      7  C   UNL     1      -2.244   0.317   4.385  0.00  0.00    +0.013 A 
ATOM      8  C   UNL     1      -1.122   0.682   2.188  0.00  0.00    +0.017 A 
ATOM      9  C   UNL     1      -0.718   1.572   1.248  0.00  0.00    +0.011 A 
ATOM     10  C   UNL     1      -0.951   2.952   1.429  0.00  0.00    +0.251 A 
ATOM     11  O   UNL     1      -0.575   3.735   0.574  0.00  0.00    -0.268 OA
ATOM     12  N   UNL     1      -1.581   3.424   2.519  0.00  0.00    -0.322 N 
ATOM     13  H   UNL     1      -1.737   4.408   2.611  0.00  0.00    +0.169 HD
BRANCH   2  15
ATOM     14  C   UNL     1      -2.241  -0.302   7.604  0.00  0.00    +0.009 C 
ATOM     15  C   UNL     1      -3.351  -0.117   6.567  0.00  0.00    +0.032 C 
ENDBRANCH   2  15
ENDBRANCH   1   9
BRANCH   1  21
ATOM     16  C   UNL     1      -2.133   1.158  -1.160  0.00  0.00    -0.058 C 
ATOM     17  C   UNL     1      -2.855   1.750  -2.373  0.00  0.00    +0.086 C 
ATOM     18  N   UNL     1      -2.194   1.294  -3.604  0.00  0.00    -0.333 N 
ATOM     19  C   UNL     1      -0.784   1.709  -3.626  0.00  0.00    +0.086 C 
ATOM     20  C   UNL     1      -0.062   1.117  -2.413  0.00  0.00    -0.058 C 
ATOM     21  N   UNL     1      -0.723   1.600  -1.182  0.00  0.00    +0.391 N 
ATOM     22  H   UNL     1      -0.695   2.627  -1.170  0.00  0.00    -0.080 HD
BRANCH  18  23
ATOM     23  C   UNL     1      -2.869   1.757  -4.735  0.00  0.00    +0.033 A 
ATOM     24  C   UNL     1      -2.950   3.120  -4.989  0.00  0.00    +0.023 A 
ATOM     25  C   UNL     1      -3.618   3.574  -6.109  0.00  0.00    +0.002 A 
ATOM     26  C   UNL     1      -4.207   2.673  -6.977  0.00  0.00    +0.004 A 
ATOM     27  C   UNL     1      -4.129   1.316  -6.728  0.00  0.00    -0.046 A 
ATOM     28  C   UNL     1      -3.458   0.855  -5.612  0.00  0.00    -0.027 A 
ATOM     29  C   UNL     1      -3.368  -0.626  -5.344  0.00  0.00    +0.046 C 
ATOM     30  C   UNL     1      -4.773   0.338  -7.676  0.00  0.00    +0.044 C 
ENDBRANCH  18  23
ENDBRANCH   1  21
BRANCH   1  31
ATOM     31  C   UNL     1       1.401   1.607  -0.003  0.00  0.00    +0.143 A 
ATOM     32  N   UNL     1       1.781   2.833  -0.271  0.00  0.00    -0.115 NA
ATOM     33  N   UNL     1       3.065   2.881  -0.176  0.00  0.00    -0.023 NA
ATOM     34  N   UNL     1       3.514   1.718   0.146  0.00  0.00    -0.044 NA
ATOM     35  N   UNL     1       2.518   0.907   0.268  0.00  0.00    -0.227 N 
BRANCH  35  36
ATOM     36  C   UNL     1       2.590  -0.511   0.628  0.00  0.00    +0.111 C 
ATOM     37  C   UNL     1       3.230  -0.654   2.011  0.00  0.00    +0.027 C 
ATOM     38  C   UNL     1       3.305  -2.135   2.388  0.00  0.00    +0.002 C 
ATOM     39  C   UNL     1       4.151  -2.882   1.355  0.00  0.00    +0.000 C 
ATOM     40  C   UNL     1       3.511  -2.739  -0.028  0.00  0.00    +0.002 C 
ATOM     41  C   UNL     1       3.436  -1.258  -0.405  0.00  0.00    +0.027 C 
ENDBRANCH  35  36
ENDBRANCH   1  31
TORSDOF 6
