REMARK  Name = ZINC40548700
REMARK  7 active torsions:
REMARK  status: ('A' for Active; 'I' for Inactive)
REMARK    1  A    between atoms: C_1  and  C_2
REMARK    2  A    between atoms: C_5  and  C_8
REMARK    3  A    between atoms: C_11  and  C_27
REMARK    4  A    between atoms: N_18  and  C_19
REMARK    5  A    between atoms: C_29  and  C_35
REMARK    6  A    between atoms: C_30  and  C_34
REMARK    7  A    between atoms: C_32  and  O_33
REMARK                            x       y       z     vdW  Elec       q    Type
REMARK                         _______ _______ _______ _____ _____    ______ ____
ROOT
ATOM      1  C   UNL     1       0.122  -4.088   0.102  0.00  0.00    +0.142 C 
ATOM      2  C   UNL     1       1.494  -4.695   0.202  0.00  0.00    +0.035 A 
ATOM      3  C   UNL     1       2.773  -4.818  -0.353  0.00  0.00    +0.102 A 
ATOM      4  N   UNL     1       3.466  -5.624   0.427  0.00  0.00    -0.173 NA
ATOM      5  N   UNL     1       2.752  -6.023   1.419  0.00  0.00    -0.272 N 
ATOM      6  H   UNL     1       3.055  -6.621   2.119  0.00  0.00    +0.189 HD
ATOM      7  C   UNL     1       1.501  -5.478   1.340  0.00  0.00    +0.126 A 
ATOM      8  C   UNL     1       0.180  -5.393   1.973  0.00  0.00    +0.266 C 
ATOM      9  O   UNL     1      -0.138  -5.968   2.996  0.00  0.00    -0.268 OA
ATOM     10  N   UNL     1      -0.630  -4.587   1.261  0.00  0.00    -0.280 N 
ENDROOT
BRANCH   3  11
ATOM     11  C   UNL     1       3.260  -4.161  -1.592  0.00  0.00    +0.044 A 
ATOM     12  C   UNL     1       2.465  -4.147  -2.735  0.00  0.00    +0.017 A 
ATOM     13  C   UNL     1       2.922  -3.536  -3.885  0.00  0.00    -0.047 A 
ATOM     14  C   UNL     1       4.168  -2.935  -3.906  0.00  0.00    -0.044 A 
ATOM     15  C   UNL     1       4.965  -2.944  -2.777  0.00  0.00    +0.049 A 
ATOM     16  C   UNL     1       4.516  -3.549  -1.615  0.00  0.00    +0.126 A 
ATOM     17  C   UNL     1       4.659  -2.270  -5.166  0.00  0.00    +0.044 C 
ATOM     18  C   UNL     1       2.060  -3.522  -5.121  0.00  0.00    +0.044 C 
BRANCH  16  19
ATOM     19  O   UNL     1       5.296  -3.552  -0.502  0.00  0.00    -0.506 OA
ATOM     20  H   UNL     1       5.941  -4.272  -0.476  0.00  0.00    +0.292 HD
ENDBRANCH  16  19
ENDBRANCH   3  11
BRANCH   1  25
ATOM     21  C   UNL     1       0.475   1.677   0.296  0.00  0.00    +0.044 C 
ATOM     22  C   UNL     1       0.383   0.173   0.246  0.00  0.00    -0.050 A 
ATOM     23  C   UNL     1       0.049  -0.459  -0.937  0.00  0.00    +0.004 A 
ATOM     24  C   UNL     1      -0.036  -1.838  -0.984  0.00  0.00    +0.006 A 
ATOM     25  C   UNL     1       0.215  -2.585   0.152  0.00  0.00    -0.022 A 
ATOM     26  C   UNL     1       0.550  -1.952   1.335  0.00  0.00    +0.006 A 
ATOM     27  C   UNL     1       0.639  -0.574   1.380  0.00  0.00    +0.004 A 
ENDBRANCH   1  25
BRANCH  10  28
ATOM     28  C   UNL     1      -2.022  -4.263   1.585  0.00  0.00    +0.100 C 
ATOM     29  C   UNL     1      -2.851  -5.558   1.624  0.00  0.00    +0.047 C 
ATOM     30  C   UNL     1      -4.228  -5.231   2.269  0.00  0.00    +0.168 C 
ATOM     31  S   UNL     1      -3.705  -4.100   3.627  0.00  0.00    -0.029 S 
ATOM     32  O   UNL     1      -3.492  -4.861   4.807  0.00  0.00    -0.174 OA
ATOM     33  O   UNL     1      -4.584  -2.984   3.664  0.00  0.00    -0.174 OA
ATOM     34  C   UNL     1      -2.078  -3.560   2.962  0.00  0.00    +0.188 C 
ENDBRANCH  10  28
TORSDOF 4
