REMARK  Name = ZINC66716781
REMARK  8 active torsions:
REMARK  status: ('A' for Active; 'I' for Inactive)
REMARK    1  A    between atoms: C_1  and  C_2
REMARK    2  A    between atoms: C_2  and  C_3
REMARK    3  A    between atoms: N_13  and  C_14
REMARK    4  A    between atoms: C_14  and  C_16
REMARK    5  A    between atoms: C_14  and  C_17
REMARK    6  A    between atoms: C_17  and  C_18
REMARK    7  A    between atoms: C_21  and  C_25
REMARK    8  A    between atoms: C_23  and  C_24
REMARK                            x       y       z     vdW  Elec       q    Type
REMARK                         _______ _______ _______ _____ _____    ______ ____
ROOT
ATOM      1  C   UNL     1       0.686  -0.423   1.301  0.00  0.00    +0.163 C 
ATOM      2  C   UNL     1       0.911  -1.910   1.311  0.00  0.00    +0.234 C 
ATOM      3  O   UNL     1       1.386  -2.431   0.324  0.00  0.00    -0.274 OA
ATOM      4  N   UNL     1       0.612  -2.683   2.357  0.00  0.00    -0.312 N 
ATOM      5  C   UNL     1      -0.044  -2.216   3.570  0.00  0.00    +0.123 C 
ATOM      6  C   UNL     1       0.137  -0.706   3.737  0.00  0.00    +0.129 C 
ATOM      7  N   UNL     1      -0.160  -0.059   2.447  0.00  0.00    -0.273 N 
ATOM      8  C   UNL     1      -1.167   0.828   2.322  0.00  0.00    +0.303 C 
ATOM      9  O   UNL     1      -1.444   1.283   1.229  0.00  0.00    -0.253 OA
ATOM     10  N   UNL     1      -1.867   1.210   3.408  0.00  0.00    -0.296 N 
ATOM     11  H   UNL     1       0.848  -3.623   2.305  0.00  0.00    +0.149 HD
ATOM     12  H   UNL     1      -1.694   0.796   4.268  0.00  0.00    +0.151 HD
ENDROOT
BRANCH   1  14
ATOM     13  C   UNL     1      -1.340  -0.769  -0.120  0.00  0.00    +0.006 C 
ATOM     14  C   UNL     1      -0.012  -0.019   0.001  0.00  0.00    +0.028 C 
ENDBRANCH   1  14
BRANCH  10  15
ATOM     15  C   UNL     1      -2.890   2.252   3.291  0.00  0.00    +0.076 C 
ATOM     16  C   UNL     1      -4.211   1.622   2.843  0.00  0.00    +0.028 C 
BRANCH  15  17
ATOM     17  C   UNL     1      -3.084   2.932   4.648  0.00  0.00    +0.057 C 
BRANCH  17  18
ATOM     18  C   UNL     1      -1.819   3.657   5.032  0.00  0.00    -0.043 A 
ATOM     19  C   UNL     1      -0.886   3.036   5.841  0.00  0.00    +0.004 A 
ATOM     20  C   UNL     1       0.274   3.701   6.193  0.00  0.00    +0.003 A 
ATOM     21  C   UNL     1       0.501   4.986   5.736  0.00  0.00    -0.050 A 
ATOM     22  C   UNL     1      -0.432   5.606   4.926  0.00  0.00    +0.007 A 
ATOM     23  C   UNL     1      -1.591   4.939   4.570  0.00  0.00    -0.047 A 
ATOM     24  C   UNL     1      -2.606   5.614   3.683  0.00  0.00    +0.044 C 
ATOM     25  C   UNL     1       1.765   5.710   6.120  0.00  0.00    +0.044 C 
ENDBRANCH  17  18
ENDBRANCH  15  17
ENDBRANCH  10  15
TORSDOF 4
