REMARK  Name = ZINC57460772
REMARK  11 active torsions:
REMARK  status: ('A' for Active; 'I' for Inactive)
REMARK    1  A    between atoms: C_1  and  C_2
REMARK    2  A    between atoms: C_2  and  O_3
REMARK    3  A    between atoms: O_3  and  C_4
REMARK    4  A    between atoms: C_7  and  N_10
REMARK    5  A    between atoms: N_12  and  C_29
REMARK    6  A    between atoms: C_15  and  C_18
REMARK    7  A    between atoms: C_18  and  C_19
REMARK    8  A    between atoms: N_21  and  C_22
REMARK    9  A    between atoms: C_29  and  C_30
REMARK   10  A    between atoms: C_30  and  C_31
REMARK   11  A    between atoms: C_30  and  C_32
REMARK                            x       y       z     vdW  Elec       q    Type
REMARK                         _______ _______ _______ _____ _____    ______ ____
ROOT
ATOM      1  N   UNL     1       1.132  -5.973   1.780  0.00  0.00    -0.226 NA
ATOM      2  C   UNL     1       2.283  -6.496   2.131  0.00  0.00    +0.164 C 
ATOM      3  N   UNL     1       2.590  -7.827   2.325  0.00  0.00    -0.249 N 
ATOM      4  C   UNL     1       3.797  -8.231   2.681  0.00  0.00    +0.235 C 
ATOM      5  O   UNL     1       4.060  -9.403   2.849  0.00  0.00    -0.274 OA
ATOM      6  C   UNL     1       4.835  -7.136   2.865  0.00  0.00    +0.149 C 
ATOM      7  S   UNL     1       3.823  -5.652   2.462  0.00  0.00    -0.077 S 
ENDROOT
BRANCH   1  11
ATOM      8  C   UNL     1       0.774  -1.872   1.321  0.00  0.00    +0.121 A 
ATOM      9  C   UNL     1       0.232  -2.724   0.370  0.00  0.00    +0.048 A 
ATOM     10  C   UNL     1       0.349  -4.091   0.519  0.00  0.00    +0.031 A 
ATOM     11  C   UNL     1       1.014  -4.615   1.628  0.00  0.00    +0.067 A 
ATOM     12  C   UNL     1       1.558  -3.754   2.582  0.00  0.00    +0.031 A 
ATOM     13  C   UNL     1       1.442  -2.389   2.422  0.00  0.00    +0.048 A 
BRANCH   8  14
ATOM     14  O   UNL     1       0.656  -0.525   1.171  0.00  0.00    -0.492 OA
BRANCH  14  16
ATOM     15  C   UNL     1      -0.073   1.469   0.017  0.00  0.00    +0.048 C 
ATOM     16  C   UNL     1      -0.043  -0.060   0.014  0.00  0.00    +0.225 C 
ENDBRANCH  14  16
ENDBRANCH   8  14
ENDBRANCH   1  11
BRANCH   6  17
ATOM     17  C   UNL     1       5.992  -7.297   1.878  0.00  0.00    +0.120 C 
BRANCH  17  18
ATOM     18  C   UNL     1       7.053  -6.268   2.175  0.00  0.00    +0.219 C 
ATOM     19  O   UNL     1       6.898  -5.484   3.087  0.00  0.00    -0.275 OA
ATOM     20  N   UNL     1       8.173  -6.220   1.427  0.00  0.00    -0.283 N 
ATOM     21  H   UNL     1       8.327  -6.888   0.740  0.00  0.00    +0.155 HD
BRANCH  20  22
ATOM     22  C   UNL     1       9.116  -5.207   1.642  0.00  0.00    +0.069 A 
ATOM     23  C   UNL     1       9.340  -4.727   2.925  0.00  0.00    +0.026 A 
ATOM     24  C   UNL     1      10.271  -3.727   3.135  0.00  0.00    +0.002 A 
ATOM     25  C   UNL     1      10.979  -3.205   2.068  0.00  0.00    +0.003 A 
ATOM     26  C   UNL     1      10.759  -3.679   0.788  0.00  0.00    +0.040 A 
ATOM     27  C   UNL     1       9.833  -4.684   0.572  0.00  0.00    +0.144 A 
ATOM     28  F   UNL     1       9.622  -5.152  -0.677  0.00  0.00    -0.204 F 
ENDBRANCH  20  22
ENDBRANCH  17  18
ENDBRANCH   6  17
BRANCH   3  29
ATOM     29  C   UNL     1       1.539  -8.829   2.130  0.00  0.00    +0.118 C 
BRANCH  29  30
ATOM     30  C   UNL     1       1.543  -9.295   0.673  0.00  0.00    +0.001 C 
ATOM     31  C   UNL     1       2.856 -10.022   0.374  0.00  0.00    +0.009 C 
ATOM     32  C   UNL     1       0.369 -10.247   0.438  0.00  0.00    +0.009 C 
ENDBRANCH  29  30
ENDBRANCH   3  29
TORSDOF 8
