REMARK  Name = ZINC59894356
REMARK  9 active torsions:
REMARK  status: ('A' for Active; 'I' for Inactive)
REMARK    1  A    between atoms: C_3  and  C_18
REMARK    2  A    between atoms: C_5  and  N_7
REMARK    3  A    between atoms: C_8  and  C_10
REMARK    4  A    between atoms: C_10  and  C_11
REMARK    5  A    between atoms: C_11  and  C_12
REMARK    6  A    between atoms: C_12  and  C_13
REMARK    7  A    between atoms: N_20  and  C_21
REMARK    8  A    between atoms: C_21  and  C_22
REMARK    9  A    between atoms: C_22  and  N_27
REMARK                            x       y       z     vdW  Elec       q    Type
REMARK                         _______ _______ _______ _____ _____    ______ ____
ROOT
ATOM      1  C   UNL     1       0.480   1.893   1.554  0.00  0.00    +0.003 A 
ATOM      2  C   UNL     1       1.686   2.439   1.164  0.00  0.00    +0.013 A 
ATOM      3  C   UNL     1       2.793   1.613   0.964  0.00  0.00    +0.038 A 
ATOM      4  C   UNL     1       2.675   0.237   1.159  0.00  0.00    +0.036 A 
ATOM      5  C   UNL     1       1.460  -0.301   1.551  0.00  0.00    +0.034 A 
ATOM      6  C   UNL     1       0.363   0.530   1.747  0.00  0.00    +0.023 A 
ENDROOT
BRANCH   5   7
ATOM      7  N   UNL     1       1.336  -1.681   1.748  0.00  0.00    -0.285 N 
ATOM      8  C   UNL     1       2.382  -2.391   2.216  0.00  0.00    +0.217 C 
ATOM      9  O   UNL     1       3.402  -1.823   2.544  0.00  0.00    -0.275 OA
ATOM     10  H   UNL     1       0.498  -2.127   1.549  0.00  0.00    +0.155 HD
BRANCH   8  11
ATOM     11  C   UNL     1       2.284  -3.891   2.330  0.00  0.00    +0.096 C 
BRANCH  11  12
ATOM     12  C   UNL     1       3.598  -4.447   2.883  0.00  0.00    +0.014 C 
BRANCH  12  13
ATOM     13  C   UNL     1       3.498  -5.969   2.999  0.00  0.00    +0.043 C 
BRANCH  13  14
ATOM     14  C   UNL     1       4.792  -6.517   3.544  0.00  0.00    -0.010 A 
ATOM     15  C   UNL     1       5.152  -6.734   4.833  0.00  0.00    +0.011 A 
ATOM     16  C   UNL     1       6.406  -7.251   5.101  0.00  0.00    +0.008 A 
ATOM     17  C   UNL     1       7.238  -7.526   4.067  0.00  0.00    +0.045 A 
ATOM     18  S   UNL     1       6.246  -7.057   2.659  0.00  0.00    -0.102 S 
ENDBRANCH  13  14
ENDBRANCH  12  13
ENDBRANCH  11  12
ENDBRANCH   8  11
ENDBRANCH   5   7
BRANCH   3  19
ATOM     19  C   UNL     1       4.087   2.195   0.546  0.00  0.00    +0.244 C 
ATOM     20  O   UNL     1       5.050   1.474   0.372  0.00  0.00    -0.270 OA
ATOM     21  N   UNL     1       4.198   3.525   0.357  0.00  0.00    -0.313 N 
ATOM     22  H   UNL     1       3.429   4.100   0.495  0.00  0.00    +0.149 HD
BRANCH  21  23
ATOM     23  C   UNL     1       5.479   4.101  -0.058  0.00  0.00    +0.092 C 
BRANCH  23  24
ATOM     24  C   UNL     1       5.334   5.618  -0.199  0.00  0.00    -0.050 C 
ATOM     25  C   UNL     1       6.692   6.245  -0.575  0.00  0.00    -0.010 C 
ATOM     26  C   UNL     1       6.640   6.368  -2.118  0.00  0.00    -0.001 C 
ATOM     27  C   UNL     1       5.167   6.767  -2.380  0.00  0.00    -0.001 C 
ATOM     28  C   UNL     1       4.364   5.949  -1.347  0.00  0.00    -0.010 C 
BRANCH  24  29
ATOM     29  N   UNL     1       4.842   6.196   1.058  0.00  0.00    +0.386 N 
ATOM     30  C   UNL     1       4.699   7.644   0.897  0.00  0.00    -0.067 C 
ATOM     31  C   UNL     1       3.851   8.214   2.040  0.00  0.00    +0.050 C 
ATOM     32  S   UNL     1       4.722   7.902   3.608  0.00  0.00    -0.164 S 
ATOM     33  C   UNL     1       5.123   6.130   3.495  0.00  0.00    +0.050 C 
ATOM     34  C   UNL     1       5.781   5.872   2.135  0.00  0.00    -0.067 C 
ATOM     35  H   UNL     1       3.941   5.797   1.275  0.00  0.00    -0.081 HD
ENDBRANCH  24  29
ENDBRANCH  23  24
ENDBRANCH  21  23
ENDBRANCH   3  19
TORSDOF 9
