REMARK  Name = ZINC08926191
REMARK  9 active torsions:
REMARK  status: ('A' for Active; 'I' for Inactive)
REMARK    1  A    between atoms: C_1  and  C_2
REMARK    2  A    between atoms: C_2  and  O_3
REMARK    3  A    between atoms: O_3  and  C_4
REMARK    4  A    between atoms: C_4  and  C_6
REMARK    5  A    between atoms: C_6  and  C_7
REMARK    6  A    between atoms: C_6  and  C_19
REMARK    7  A    between atoms: C_15  and  C_17
REMARK    8  A    between atoms: C_15  and  C_18
REMARK    9  A    between atoms: N_21  and  C_22
REMARK                            x       y       z     vdW  Elec       q    Type
REMARK                         _______ _______ _______ _____ _____    ______ ____
ROOT
ATOM      1  C   UNL     1      -4.185   0.997   2.334  0.00  0.00    +0.232 C 
ENDROOT
BRANCH   1   2
ATOM      2  C   UNL     1      -4.944   1.484   3.399  0.00  0.00    +0.067 C 
ATOM      3  C   UNL     1      -6.378   1.153   3.548  0.00  0.00    +0.000 A 
ATOM      4  C   UNL     1      -7.047   0.469   2.530  0.00  0.00    +0.010 A 
ATOM      5  C   UNL     1      -8.383   0.159   2.679  0.00  0.00    +0.001 A 
ATOM      6  C   UNL     1      -9.054   0.525   3.833  0.00  0.00    +0.000 A 
ATOM      7  C   UNL     1      -8.393   1.195   4.848  0.00  0.00    +0.004 A 
ATOM      8  C   UNL     1      -7.056   1.521   4.712  0.00  0.00    -0.036 A 
ATOM      9  C   UNL     1      -6.362   2.273   5.816  0.00  0.00    +0.065 C 
ATOM     10  C   UNL     1      -4.850   2.066   5.748  0.00  0.00    +0.061 C 
ATOM     11  N   UNL     1      -4.396   2.299   4.366  0.00  0.00    -0.280 NA
ATOM     12  C   UNL     1      -4.511   0.633   6.163  0.00  0.00    +0.036 C 
ATOM     13  C   UNL     1      -4.153   3.050   6.689  0.00  0.00    +0.036 C 
ENDBRANCH   1   2
BRANCH   1  14
ATOM     14  C   UNL     1      -4.726  -0.055   1.470  0.00  0.00    +0.237 C 
ATOM     15  O   UNL     1      -5.125   0.220   0.353  0.00  0.00    -0.274 OA
ATOM     16  N   UNL     1      -4.783  -1.327   1.911  0.00  0.00    -0.284 N 
ATOM     17  H   UNL     1      -4.410  -1.557   2.777  0.00  0.00    +0.155 HD
BRANCH  16  18
ATOM     18  C   UNL     1      -5.378  -2.316   1.121  0.00  0.00    +0.047 A 
ATOM     19  C   UNL     1      -5.314  -2.233  -0.264  0.00  0.00    +0.024 A 
ATOM     20  C   UNL     1      -5.898  -3.214  -1.041  0.00  0.00    +0.002 A 
ATOM     21  C   UNL     1      -6.556  -4.272  -0.442  0.00  0.00    +0.001 A 
ATOM     22  C   UNL     1      -6.628  -4.356   0.936  0.00  0.00    +0.017 A 
ATOM     23  C   UNL     1      -6.040  -3.381   1.720  0.00  0.00    +0.039 A 
ATOM     24 BR   UNL     1      -6.139  -3.495   3.605  0.00  0.00    -0.048 Br
ENDBRANCH  16  18
ENDBRANCH   1  14
BRANCH   1  25
ATOM     25  C   UNL     1      -2.849   1.537   2.081  0.00  0.00    +0.325 C 
ATOM     26  O   UNL     1      -2.438   2.475   2.737  0.00  0.00    -0.250 OA
BRANCH  25  27
ATOM     27  O   UNL     1      -2.074   0.995   1.120  0.00  0.00    -0.464 OA
BRANCH  27  29
ATOM     28  C   UNL     1      -0.033   0.839  -0.200  0.00  0.00    +0.048 C 
ATOM     29  C   UNL     1      -0.760   1.581   0.923  0.00  0.00    +0.229 C 
ENDBRANCH  27  29
ENDBRANCH  25  27
ENDBRANCH   1  25
TORSDOF 6
