REMARK  Name = ZINC39704138
REMARK  14 active torsions:
REMARK  status: ('A' for Active; 'I' for Inactive)
REMARK    1  A    between atoms: C_1  and  C_2
REMARK    2  A    between atoms: C_2  and  O_3
REMARK    3  A    between atoms: O_3  and  C_4
REMARK    4  A    between atoms: C_4  and  C_6
REMARK    5  A    between atoms: C_8  and  C_35
REMARK    6  A    between atoms: C_10  and  C_32
REMARK    7  A    between atoms: C_13  and  N_15
REMARK    8  A    between atoms: C_16  and  C_18
REMARK    9  A    between atoms: C_18  and  S_19
REMARK   10  A    between atoms: S_19  and  C_20
REMARK   11  A    between atoms: C_24  and  C_27
REMARK   12  A    between atoms: C_27  and  C_28
REMARK   13  A    between atoms: C_28  and  C_29
REMARK   14  A    between atoms: C_32  and  C_34
REMARK                            x       y       z     vdW  Elec       q    Type
REMARK                         _______ _______ _______ _____ _____    ______ ____
ROOT
ATOM      1  N   UNL     1       3.225  -1.093  -1.351  0.00  0.00    -0.302 N 
ATOM      2  C   UNL     1       4.395  -1.309  -0.716  0.00  0.00    +0.224 C 
ATOM      3  O   UNL     1       5.189  -2.108  -1.164  0.00  0.00    -0.275 OA
ATOM      4  H   UNL     1       2.590  -0.455  -0.992  0.00  0.00    +0.150 HD
ENDROOT
BRANCH   1   9
ATOM      5  C   UNL     1       1.468  -2.353  -2.550  0.00  0.00    +0.132 C 
ATOM      6  C   UNL     1       1.382  -3.878  -2.503  0.00  0.00    +0.022 C 
ATOM      7  C   UNL     1       2.592  -4.509  -3.247  0.00  0.00    +0.118 C 
ATOM      8  S   UNL     1       3.925  -3.354  -2.700  0.00  0.00    -0.126 S 
ATOM      9  C   UNL     1       2.915  -1.823  -2.582  0.00  0.00    +0.146 C 
ATOM     10  C   UNL     1       0.085  -4.333  -3.174  0.00  0.00    +0.010 C 
BRANCH   7  11
ATOM     11  C   UNL     1       2.855  -5.916  -2.774  0.00  0.00    +0.143 C 
ATOM     12  O   UNL     1       2.388  -6.852  -3.377  0.00  0.00    -0.297 OA
ATOM     13  C   UNL     1       3.700  -6.154  -1.550  0.00  0.00    +0.087 C 
ENDBRANCH   7  11
BRANCH   5  14
ATOM     14  C   UNL     1       0.775  -1.794  -1.334  0.00  0.00    +0.313 C 
ATOM     15  O   UNL     1       0.314  -2.540  -0.504  0.00  0.00    -0.250 OA
BRANCH  14  16
ATOM     16  O   UNL     1       0.671  -0.465  -1.174  0.00  0.00    -0.465 OA
BRANCH  16  18
ATOM     17  C   UNL     1      -0.019   1.526   0.010  0.00  0.00    +0.048 C 
ATOM     18  C   UNL     1       0.002  -0.004   0.002  0.00  0.00    +0.229 C 
ENDBRANCH  16  18
ENDBRANCH  14  16
ENDBRANCH   5  14
ENDBRANCH   1   9
BRANCH   2  19
ATOM     19  C   UNL     1       4.714  -0.558   0.551  0.00  0.00    +0.173 C 
BRANCH  19  20
ATOM     20  S   UNL     1       6.346  -1.066   1.159  0.00  0.00    -0.075 S 
BRANCH  20  21
ATOM     21  C   UNL     1       6.570  -0.112   2.624  0.00  0.00    +0.213 A 
ATOM     22  N   UNL     1       7.687  -0.245   3.329  0.00  0.00    -0.180 NA
ATOM     23  C   UNL     1       7.851   0.476   4.433  0.00  0.00    +0.296 A 
ATOM     24  O   UNL     1       8.981   0.362   5.172  0.00  0.00    -0.264 OA
ATOM     25  C   UNL     1       6.837   1.355   4.815  0.00  0.00    +0.130 A 
ATOM     26  N   UNL     1       5.748   1.445   4.074  0.00  0.00    -0.146 NA
ATOM     27  N   UNL     1       5.623   0.735   3.007  0.00  0.00    -0.122 NA
BRANCH  25  28
ATOM     28  C   UNL     1       6.982   2.192   6.060  0.00  0.00    +0.074 C 
BRANCH  28  29
ATOM     29  C   UNL     1       7.646   3.523   5.705  0.00  0.00    +0.131 C 
BRANCH  29  30
ATOM     30  C   UNL     1       7.792   4.360   6.950  0.00  0.00    +0.356 C 
ATOM     31  O   UNL     1       7.400   3.931   8.022  0.00  0.00    -0.246 OA
ATOM     32  O   UNL     1       8.301   5.466   6.885  0.00  0.00    -0.246 OA
ENDBRANCH  29  30
ENDBRANCH  28  29
ENDBRANCH  25  28
ENDBRANCH  20  21
ENDBRANCH  19  20
ENDBRANCH   2  19
TORSDOF 11
