REMARK  Name = ZINC05347824
REMARK  8 active torsions:
REMARK  status: ('A' for Active; 'I' for Inactive)
REMARK    1  A    between atoms: C_1  and  C_2
REMARK    2  A    between atoms: C_2  and  C_3
REMARK    3  A    between atoms: C_3  and  C_5
REMARK    4  A    between atoms: C_3  and  N_6
REMARK    5  A    between atoms: C_11  and  C_28
REMARK    6  A    between atoms: C_28  and  C_29
REMARK    7  A    between atoms: C_29  and  C_30
REMARK    8  A    between atoms: C_29  and  C_31
REMARK                            x       y       z     vdW  Elec       q    Type
REMARK                         _______ _______ _______ _____ _____    ______ ____
ROOT
ATOM      1  N   UNL     1       2.055  -1.629  -1.332  0.00  0.00    -0.239 N 
ATOM      2  C   UNL     1       3.285  -1.830  -0.843  0.00  0.00    +0.224 C 
ATOM      3  O   UNL     1       3.750  -2.906  -0.537  0.00  0.00    -0.275 OA
ATOM      4  C   UNL     1       4.003  -0.504  -0.733  0.00  0.00    +0.073 C 
ATOM      5  C   UNL     1       4.206  -0.156   0.757  0.00  0.00    -0.057 C 
ATOM      6  C   UNL     1       2.616   1.373  -0.014  0.00  0.00    +0.050 C 
ATOM      7  C   UNL     1       2.950   0.519  -1.243  0.00  0.00    +0.088 C 
ATOM      8  C   UNL     1       1.764  -0.350  -1.594  0.00  0.00    +0.225 C 
ATOM      9  O   UNL     1       0.712   0.050  -2.044  0.00  0.00    -0.275 OA
ATOM     10  C   UNL     1       1.171   1.780   0.000  0.00  0.00    -0.025 A 
ATOM     11  C   UNL     1      -0.013   1.076   0.008  0.00  0.00    +0.043 A 
ATOM     12  C   UNL     1      -1.222   1.752   0.017  0.00  0.00    +0.124 A 
ATOM     13  C   UNL     1      -1.236   3.137   0.030  0.00  0.00    +0.040 A 
ATOM     14  C   UNL     1      -0.052   3.845   0.022  0.00  0.00    +0.026 A 
ATOM     15  C   UNL     1       1.167   3.172   0.006  0.00  0.00    +0.036 A 
ATOM     16  N   UNL     1       2.478   3.658  -0.004  0.00  0.00    -0.286 N 
ATOM     17  C   UNL     1       3.388   2.665  -0.017  0.00  0.00    +0.211 C 
ATOM     18  O   UNL     1       4.594   2.788  -0.028  0.00  0.00    -0.277 OA
ATOM     19  F   UNL     1      -2.384   1.063   0.019  0.00  0.00    -0.205 F 
ATOM     20  H   UNL     1       2.706   4.601  -0.004  0.00  0.00    +0.155 HD
ATOM     21  N   UNL     1       2.976   0.548   1.127  0.00  0.00    +0.394 N 
ATOM     22  H   UNL     1       3.138   1.136   1.953  0.00  0.00    -0.083 HD
ATOM     23  H   UNL     1       2.228  -0.126   1.327  0.00  0.00    -0.083 HD
ENDROOT
BRANCH   1  24
ATOM     24  C   UNL     1       1.106  -2.721  -1.561  0.00  0.00    +0.081 C 
ATOM     25  C   UNL     1       1.702  -3.713  -2.561  0.00  0.00    +0.028 C 
BRANCH  24  27
ATOM     26  C   UNL     1       0.114  -2.479   0.719  0.00  0.00    +0.006 C 
ATOM     27  C   UNL     1       0.824  -3.437  -0.239  0.00  0.00    +0.019 C 
ENDBRANCH  24  27
ENDBRANCH   1  24
BRANCH   5  28
ATOM     28  C   UNL     1       4.389  -1.431   1.582  0.00  0.00    -0.012 C 
BRANCH  28  29
ATOM     29  C   UNL     1       4.635  -1.060   3.046  0.00  0.00    -0.019 C 
ATOM     30  C   UNL     1       3.388  -0.384   3.618  0.00  0.00    +0.007 C 
ATOM     31  C   UNL     1       4.942  -2.327   3.848  0.00  0.00    +0.007 C 
ENDBRANCH  28  29
ENDBRANCH   5  28
TORSDOF 4
