REMARK  Name = ZINC39675531
REMARK  9 active torsions:
REMARK  status: ('A' for Active; 'I' for Inactive)
REMARK    1  A    between atoms: C_1  and  C_2
REMARK    2  A    between atoms: C_5  and  C_8
REMARK    3  A    between atoms: C_12  and  C_21
REMARK    4  A    between atoms: N_23  and  C_24
REMARK    5  A    between atoms: C_24  and  C_25
REMARK    6  A    between atoms: C_25  and  C_27
REMARK    7  A    between atoms: C_25  and  N_33
REMARK    8  A    between atoms: N_33  and  C_34
REMARK    9  A    between atoms: N_33  and  C_35
REMARK                            x       y       z     vdW  Elec       q    Type
REMARK                         _______ _______ _______ _____ _____    ______ ____
ROOT
ATOM      1  C   UNL     1       0.214  -4.446   0.110  0.00  0.00    +0.247 C 
ATOM      2  O   UNL     1       0.176  -5.135  -0.891  0.00  0.00    -0.270 OA
ATOM      3  N   UNL     1       0.325  -5.024   1.322  0.00  0.00    -0.296 N 
ATOM      4  C   UNL     1       0.261  -4.369   2.650  0.00  0.00    +0.121 C 
ATOM      5  C   UNL     1      -0.533  -5.357   3.534  0.00  0.00    +0.100 C 
ATOM      6  C   UNL     1      -0.344  -6.726   2.860  0.00  0.00    -0.004 C 
ATOM      7  C   UNL     1       0.534  -6.459   1.629  0.00  0.00    +0.115 C 
ATOM      8  C   UNL     1      -1.692  -7.292   2.426  0.00  0.00    -0.010 C 
ATOM      9  C   UNL     1      -1.484  -8.679   1.810  0.00  0.00    -0.082 C 
ATOM     10  N   UNL     1      -0.853  -9.565   2.796  0.00  0.00    +0.379 N 
ATOM     11  C   UNL     1       0.482  -9.062   3.139  0.00  0.00    -0.082 C 
ATOM     12  C   UNL     1       0.357  -7.692   3.811  0.00  0.00    -0.010 C 
ATOM     13  H   UNL     1      -1.423  -9.598   3.628  0.00  0.00    -0.086 HD
ATOM     14  H   UNL     1      -0.773 -10.493   2.409  0.00  0.00    -0.086 HD
ENDROOT
BRANCH   1  19
ATOM     15  C   UNL     1      -0.086   1.284  -0.329  0.00  0.00    +0.044 C 
ATOM     16  C   UNL     1      -0.007  -0.216  -0.214  0.00  0.00    -0.050 A 
ATOM     17  C   UNL     1      -0.470  -1.011  -1.247  0.00  0.00    +0.004 A 
ATOM     18  C   UNL     1      -0.401  -2.386  -1.149  0.00  0.00    +0.013 A 
ATOM     19  C   UNL     1       0.137  -2.974  -0.003  0.00  0.00    +0.037 A 
ATOM     20  C   UNL     1       0.602  -2.166   1.036  0.00  0.00    +0.013 A 
ATOM     21  C   UNL     1       0.532  -0.793   0.922  0.00  0.00    +0.004 A 
ENDBRANCH   1  19
BRANCH   5  22
ATOM     22  C   UNL     1      -1.992  -4.981   3.562  0.00  0.00    +0.218 C 
ATOM     23  O   UNL     1      -2.511  -4.490   2.582  0.00  0.00    -0.275 OA
ATOM     24  N   UNL     1      -2.720  -5.190   4.677  0.00  0.00    -0.316 N 
ATOM     25  H   UNL     1      -2.306  -5.583   5.461  0.00  0.00    +0.149 HD
BRANCH  24  26
ATOM     26  C   UNL     1      -4.139  -4.824   4.704  0.00  0.00    +0.093 C 
BRANCH  26  27
ATOM     27  C   UNL     1      -4.755  -5.271   6.031  0.00  0.00    -0.021 C 
BRANCH  27  28
ATOM     28  C   UNL     1      -4.128  -4.498   7.163  0.00  0.00    -0.059 A 
ATOM     29  C   UNL     1      -4.556  -3.214   7.443  0.00  0.00    +0.002 A 
ATOM     30  C   UNL     1      -3.981  -2.505   8.480  0.00  0.00    +0.000 A 
ATOM     31  C   UNL     1      -2.978  -3.080   9.238  0.00  0.00    +0.000 A 
ATOM     32  C   UNL     1      -2.551  -4.364   8.959  0.00  0.00    +0.000 A 
ATOM     33  C   UNL     1      -3.129  -5.075   7.924  0.00  0.00    +0.002 A 
ENDBRANCH  27  28
BRANCH  27  34
ATOM     34  N   UNL     1      -6.202  -5.019   6.009  0.00  0.00    +0.382 N 
ATOM     35  C   UNL     1      -6.827  -5.847   4.968  0.00  0.00    -0.096 C 
ATOM     36  C   UNL     1      -6.779  -5.359   7.316  0.00  0.00    -0.096 C 
ATOM     37  H   UNL     1      -6.371  -4.045   5.810  0.00  0.00    -0.082 HD
ENDBRANCH  27  34
ENDBRANCH  26  27
ENDBRANCH  24  26
ENDBRANCH   5  22
TORSDOF 6
