REMARK  Name = ZINC35089581
REMARK  10 active torsions:
REMARK  status: ('A' for Active; 'I' for Inactive)
REMARK    1  A    between atoms: C_1  and  C_2
REMARK    2  A    between atoms: C_2  and  C_4
REMARK    3  A    between atoms: C_2  and  N_25
REMARK    4  A    between atoms: N_14  and  C_15
REMARK    5  A    between atoms: N_25  and  C_26
REMARK    6  A    between atoms: C_26  and  C_27
REMARK    7  A    between atoms: C_27  and  N_28
REMARK    8  A    between atoms: N_28  and  C_29
REMARK    9  A    between atoms: N_28  and  C_30
REMARK   10  A    between atoms: C_31  and  C_33
REMARK                            x       y       z     vdW  Elec       q    Type
REMARK                         _______ _______ _______ _____ _____    ______ ____
ROOT
ATOM      1  C   UNL     1      -0.848  -0.558  -0.655  0.00  0.00    +0.138 A 
ATOM      2  N   UNL     1      -1.807   0.291  -0.440  0.00  0.00    -0.231 NA
ATOM      3  C   UNL     1      -3.026   0.150  -1.018  0.00  0.00    +0.078 A 
ATOM      4  C   UNL     1      -4.056   1.063  -0.786  0.00  0.00    +0.028 A 
ATOM      5  C   UNL     1      -5.278   0.882  -1.395  0.00  0.00    +0.002 A 
ATOM      6  C   UNL     1      -5.499  -0.200  -2.238  0.00  0.00    +0.001 A 
ATOM      7  C   UNL     1      -4.498  -1.114  -2.482  0.00  0.00    +0.015 A 
ATOM      8  C   UNL     1      -3.254  -0.948  -1.877  0.00  0.00    +0.065 A 
ATOM      9  C   UNL     1      -2.149  -1.891  -2.100  0.00  0.00    +0.266 A 
ATOM     10  O   UNL     1      -2.280  -2.858  -2.829  0.00  0.00    -0.267 OA
ATOM     11  N   UNL     1      -0.978  -1.640  -1.470  0.00  0.00    -0.263 N 
ENDROOT
BRANCH  11  12
ATOM     12  C   UNL     1       0.109  -2.503  -1.654  0.00  0.00    +0.052 A 
ATOM     13  C   UNL     1       1.230  -2.064  -2.368  0.00  0.00    +0.027 A 
ATOM     14  C   UNL     1       2.299  -2.881  -2.562  0.00  0.00    +0.010 A 
ATOM     15  C   UNL     1       2.286  -4.187  -2.041  0.00  0.00    -0.018 A 
ATOM     16  C   UNL     1       3.377  -5.054  -2.226  0.00  0.00    +0.008 A 
ATOM     17  C   UNL     1       3.333  -6.312  -1.709  0.00  0.00    +0.001 A 
ATOM     18  C   UNL     1       2.221  -6.757  -0.997  0.00  0.00    +0.001 A 
ATOM     19  C   UNL     1       1.147  -5.946  -0.798  0.00  0.00    +0.008 A 
ATOM     20  C   UNL     1       1.155  -4.640  -1.317  0.00  0.00    -0.016 A 
ATOM     21  C   UNL     1       0.066  -3.774  -1.126  0.00  0.00    +0.034 A 
ENDBRANCH  11  12
BRANCH   1  23
ATOM     22  C   UNL     1       0.551   1.115   0.524  0.00  0.00    +0.036 C 
ATOM     23  C   UNL     1       0.476  -0.330   0.026  0.00  0.00    +0.139 C 
BRANCH  23  24
ATOM     24  N   UNL     1       0.605  -1.245   1.162  0.00  0.00    -0.293 N 
ATOM     25  C   UNL     1       1.621  -2.130   1.203  0.00  0.00    +0.219 C 
ATOM     26  O   UNL     1       2.495  -2.089   0.363  0.00  0.00    -0.275 OA
BRANCH  25  27
ATOM     27  C   UNL     1       1.672  -3.169   2.293  0.00  0.00    +0.075 C 
ATOM     28  C   UNL     1       2.269  -2.553   3.559  0.00  0.00    +0.013 C 
ATOM     29  C   UNL     1       2.321  -3.608   4.665  0.00  0.00    +0.001 C 
ATOM     30  C   UNL     1       3.191  -4.782   4.210  0.00  0.00    +0.000 C 
ATOM     31  C   UNL     1       2.593  -5.399   2.944  0.00  0.00    +0.001 C 
ATOM     32  C   UNL     1       2.541  -4.343   1.838  0.00  0.00    +0.013 C 
ENDBRANCH  25  27
BRANCH  24  33
ATOM     33  C   UNL     1      -0.371  -1.200   2.254  0.00  0.00    +0.090 C 
BRANCH  33  34
ATOM     34  C   UNL     1      -1.447  -2.261   2.021  0.00  0.00    -0.060 C 
BRANCH  34  35
ATOM     35  N   UNL     1      -2.351  -2.305   3.178  0.00  0.00    +0.377 N 
ATOM     36  C   UNL     1      -3.077  -1.032   3.281  0.00  0.00    -0.097 C 
ATOM     37  C   UNL     1      -3.312  -3.404   3.008  0.00  0.00    -0.097 C 
ATOM     38  H   UNL     1      -1.814  -2.455   4.019  0.00  0.00    -0.083 HD
ENDBRANCH  34  35
ENDBRANCH  33  34
ENDBRANCH  24  33
ENDBRANCH  23  24
ENDBRANCH   1  23
TORSDOF 7
