REMARK  Name = ZINC63851902
REMARK  8 active torsions:
REMARK  status: ('A' for Active; 'I' for Inactive)
REMARK    1  A    between atoms: C_1  and  C_2
REMARK    2  A    between atoms: C_7  and  C_8
REMARK    3  A    between atoms: N_10  and  N_11
REMARK    4  A    between atoms: N_11  and  C_12
REMARK    5  A    between atoms: C_13  and  C_20
REMARK    6  A    between atoms: C_15  and  C_17
REMARK    7  A    between atoms: C_17  and  C_18
REMARK    8  A    between atoms: C_17  and  C_19
REMARK                            x       y       z     vdW  Elec       q    Type
REMARK                         _______ _______ _______ _____ _____    ______ ____
ROOT
ATOM      1  C   UNL     1       0.032  -0.391   2.496  0.00  0.00    +0.277 C 
ATOM      2  O   UNL     1       0.018   0.795   2.765  0.00  0.00    -0.267 OA
ATOM      3  N   UNL     1       0.054  -1.306   3.486  0.00  0.00    -0.229 N 
ATOM      4  H   UNL     1       0.065  -2.252   3.271  0.00  0.00    +0.173 HD
ENDROOT
BRANCH   1  11
ATOM      5  C   UNL     1      -0.018   1.503   0.010  0.00  0.00    +0.047 C 
ATOM      6  C   UNL     1       0.002  -0.004   0.002  0.00  0.00    -0.010 A 
ATOM      7  C   UNL     1       0.008  -0.834  -1.125  0.00  0.00    +0.042 A 
ATOM      8  C   UNL     1       0.027  -2.155  -0.678  0.00  0.00    +0.027 A 
ATOM      9  N   UNL     1       0.035  -2.137   0.655  0.00  0.00    -0.354 N 
ATOM     10  H   UNL     1       0.050  -2.920   1.227  0.00  0.00    +0.166 HD
ATOM     11  C   UNL     1       0.024  -0.827   1.094  0.00  0.00    +0.107 A 
ATOM     12  C   UNL     1       0.032  -3.337  -1.615  0.00  0.00    +0.054 C 
ATOM     13  C   UNL     1      -0.488  -2.895  -2.986  0.00  0.00    +0.014 C 
ATOM     14  C   UNL     1       0.286  -1.673  -3.491  0.00  0.00    +0.080 C 
ATOM     15  C   UNL     1       0.001  -0.505  -2.559  0.00  0.00    +0.165 C 
ATOM     16  O   UNL     1      -0.216   0.616  -2.968  0.00  0.00    -0.292 OA
ENDBRANCH   1  11
BRANCH   3  17
ATOM     17  N   UNL     1       0.061  -0.891   4.824  0.00  0.00    -0.232 N 
ATOM     18  H   UNL     1       0.050   0.055   5.038  0.00  0.00    +0.173 HD
BRANCH  17  19
ATOM     19  C   UNL     1       0.084  -1.827   5.836  0.00  0.00    +0.241 A 
ATOM     20  C   UNL     1       0.088  -1.574   7.197  0.00  0.00    +0.202 A 
ATOM     21  N   UNL     1       0.113  -2.786   7.822  0.00  0.00    -0.200 NA
ATOM     22  C   UNL     1       0.123  -3.718   6.919  0.00  0.00    +0.202 A 
ATOM     23  O   UNL     1       0.101  -3.165   5.695  0.00  0.00    -0.423 OA
BRANCH  22  24
ATOM     24  C   UNL     1       0.150  -5.198   7.201  0.00  0.00    +0.069 C 
ATOM     25  C   UNL     1       1.409  -5.543   7.997  0.00  0.00    +0.017 C 
ATOM     26  C   UNL     1      -1.089  -5.585   8.012  0.00  0.00    +0.017 C 
ENDBRANCH  22  24
BRANCH  20  27
ATOM     27  C   UNL     1       0.070  -0.289   7.828  0.00  0.00    +0.124 C 
ATOM     28  N   UNL     1       0.057   0.731   8.328  0.00  0.00    -0.189 NA
ENDBRANCH  20  27
ENDBRANCH  17  19
ENDBRANCH   3  17
TORSDOF 5
