REMARK  Name = ZINC19540321
REMARK  10 active torsions:
REMARK  status: ('A' for Active; 'I' for Inactive)
REMARK    1  A    between atoms: C_1  and  C_2
REMARK    2  A    between atoms: C_2  and  O_3
REMARK    3  A    between atoms: O_3  and  C_4
REMARK    4  A    between atoms: C_4  and  C_6
REMARK    5  A    between atoms: C_7  and  C_31
REMARK    6  A    between atoms: C_12  and  C_16
REMARK    7  A    between atoms: C_16  and  C_18
REMARK    8  A    between atoms: C_16  and  N_19
REMARK    9  A    between atoms: N_22  and  C_25
REMARK   10  A    between atoms: C_25  and  C_26
REMARK                            x       y       z     vdW  Elec       q    Type
REMARK                         _______ _______ _______ _____ _____    ______ ____
ROOT
ATOM      1  C   UNL     1       0.504  -2.513  -3.116  0.00  0.00    +0.102 A 
ATOM      2  C   UNL     1       0.789  -3.809  -3.441  0.00  0.00    -0.015 A 
ATOM      3  C   UNL     1       1.681  -4.020  -4.497  0.00  0.00    +0.076 A 
ATOM      4  C   UNL     1       2.171  -5.301  -5.065  0.00  0.00    +0.282 A 
ATOM      5  O   UNL     1       1.792  -6.367  -4.606  0.00  0.00    -0.265 OA
ATOM      6  N   UNL     1       3.035  -5.270  -6.091  0.00  0.00    -0.197 NA
ATOM      7  C   UNL     1       3.461  -4.153  -6.609  0.00  0.00    +0.098 A 
ATOM      8  N   UNL     1       3.062  -2.951  -6.146  0.00  0.00    -0.339 N 
ATOM      9  C   UNL     1       2.187  -2.863  -5.109  0.00  0.00    +0.092 A 
ATOM     10  S   UNL     1       1.476  -1.592  -4.291  0.00  0.00    -0.064 S 
ATOM     11  C   UNL     1       0.169  -4.961  -2.692  0.00  0.00    +0.046 C 
ATOM     12  H   UNL     1       3.402  -2.141  -6.558  0.00  0.00    +0.167 HD
ENDROOT
BRANCH   1  13
ATOM     13  C   UNL     1      -0.385  -2.007  -2.068  0.00  0.00    +0.346 C 
ATOM     14  O   UNL     1      -0.979  -2.786  -1.346  0.00  0.00    -0.244 OA
BRANCH  13  15
ATOM     15  O   UNL     1      -0.544  -0.678  -1.902  0.00  0.00    -0.461 OA
BRANCH  15  17
ATOM     16  C   UNL     1      -1.478   1.273  -0.826  0.00  0.00    +0.048 C 
ATOM     17  C   UNL     1      -1.426  -0.255  -0.860  0.00  0.00    +0.229 C 
ENDBRANCH  15  17
ENDBRANCH  13  15
ENDBRANCH   1  13
BRANCH   7  18
ATOM     18  C   UNL     1       4.432  -4.206  -7.760  0.00  0.00    -0.004 C 
ATOM     19  C   UNL     1       5.661  -3.357  -7.430  0.00  0.00    -0.005 C 
BRANCH  18  20
ATOM     20  N   UNL     1       4.845  -5.597  -7.989  0.00  0.00    +0.388 N 
ATOM     21  C   UNL     1       5.668  -5.669  -9.203  0.00  0.00    -0.062 C 
ATOM     22  C   UNL     1       6.083  -7.121  -9.452  0.00  0.00    +0.066 C 
ATOM     23  N   UNL     1       6.841  -7.617  -8.295  0.00  0.00    -0.301 NA
ATOM     24  C   UNL     1       6.037  -7.527  -7.067  0.00  0.00    +0.066 C 
ATOM     25  C   UNL     1       5.623  -6.072  -6.838  0.00  0.00    -0.062 C 
ATOM     26  H   UNL     1       4.026  -6.176  -8.103  0.00  0.00    -0.081 HD
BRANCH  23  27
ATOM     27  C   UNL     1       7.306  -8.992  -8.520  0.00  0.00    +0.126 C 
BRANCH  27  28
ATOM     28  C   UNL     1       8.277  -9.378  -7.433  0.00  0.00    +0.004 A 
ATOM     29  C   UNL     1       8.030  -9.967  -6.238  0.00  0.00    +0.012 A 
ATOM     30  C   UNL     1       9.088 -10.232  -5.389  0.00  0.00    +0.008 A 
ATOM     31  C   UNL     1      10.342  -9.895  -5.778  0.00  0.00    +0.045 A 
ATOM     32  S   UNL     1      10.051  -9.185  -7.391  0.00  0.00    -0.100 S 
ENDBRANCH  27  28
ENDBRANCH  23  27
ENDBRANCH  18  20
ENDBRANCH   7  18
TORSDOF 7
