REMARK  Name = ZINC23363072
REMARK  8 active torsions:
REMARK  status: ('A' for Active; 'I' for Inactive)
REMARK    1  A    between atoms: C_1  and  N_2
REMARK    2  A    between atoms: N_2  and  C_3
REMARK    3  A    between atoms: C_4  and  C_6
REMARK    4  A    between atoms: C_9  and  N_12
REMARK    5  A    between atoms: C_15  and  N_18
REMARK    6  A    between atoms: N_18  and  C_19
REMARK    7  A    between atoms: C_19  and  C_20
REMARK    8  A    between atoms: C_20  and  N_27
REMARK                            x       y       z     vdW  Elec       q    Type
REMARK                         _______ _______ _______ _____ _____    ______ ____
ROOT
ATOM      1  N   UNL     1       0.061  -6.675  -1.322  0.00  0.00    -0.330 N 
ATOM      2  C   UNL     1       0.401  -7.539  -0.184  0.00  0.00    +0.103 C 
ATOM      3  C   UNL     1       1.536  -8.479  -0.600  0.00  0.00    +0.003 C 
ATOM      4  C   UNL     1       1.127  -9.237  -1.865  0.00  0.00    -0.069 C 
ATOM      5  C   UNL     1       0.883  -8.242  -3.002  0.00  0.00    +0.003 C 
ATOM      6  C   UNL     1      -0.265  -7.299  -2.611  0.00  0.00    +0.103 C 
ENDROOT
BRANCH   1  10
ATOM      7  C   UNL     1       0.008  -2.535  -0.898  0.00  0.00    +0.037 A 
ATOM      8  C   UNL     1      -0.190  -3.113  -2.156  0.00  0.00    +0.015 A 
ATOM      9  C   UNL     1      -0.172  -4.482  -2.292  0.00  0.00    +0.024 A 
ATOM     10  C   UNL     1       0.043  -5.291  -1.180  0.00  0.00    +0.030 A 
ATOM     11  C   UNL     1       0.240  -4.719   0.073  0.00  0.00    +0.024 A 
ATOM     12  C   UNL     1       0.229  -3.350   0.216  0.00  0.00    +0.015 A 
BRANCH   7  16
ATOM     13  C   UNL     1      -0.774   1.139  -1.445  0.00  0.00    +0.132 C 
ATOM     14  N   UNL     1      -0.842  -0.323  -1.504  0.00  0.00    -0.304 N 
ATOM     15  C   UNL     1      -1.813  -0.976  -2.386  0.00  0.00    +0.132 C 
ATOM     16  C   UNL     1      -0.011  -1.067  -0.748  0.00  0.00    +0.246 C 
ATOM     17  O   UNL     1       0.723  -0.529   0.058  0.00  0.00    -0.270 OA
ENDBRANCH   7  16
ENDBRANCH   1  10
BRANCH   4  18
ATOM     18  N   UNL     1       2.200 -10.164  -2.249  0.00  0.00    +0.382 N 
ATOM     19  H   UNL     1       3.023  -9.639  -2.506  0.00  0.00    -0.085 HD
ATOM     20  H   UNL     1       2.417 -10.768  -1.470  0.00  0.00    -0.085 HD
BRANCH  18  21
ATOM     21  C   UNL     1       1.761 -10.976  -3.391  0.00  0.00    -0.060 C 
BRANCH  21  22
ATOM     22  C   UNL     1       2.832 -12.020  -3.716  0.00  0.00    +0.007 C 
ATOM     23  C   UNL     1       2.767 -12.371  -5.178  0.00  0.00    +0.020 C 
ATOM     24  C   UNL     1       1.369 -12.134  -5.781  0.00  0.00    +0.002 C 
ATOM     25  C   UNL     1       0.232 -12.592  -4.848  0.00  0.00    +0.000 C 
ATOM     26  C   UNL     1       0.529 -13.907  -4.180  0.00  0.00    +0.000 C 
ATOM     27  C   UNL     1       1.159 -13.624  -2.801  0.00  0.00    +0.002 C 
ATOM     28  C   UNL     1       2.575 -13.299  -2.894  0.00  0.00    +0.020 C 
BRANCH  22  29
ATOM     29  N   UNL     1       4.160 -11.483  -3.392  0.00  0.00    -0.294 NA
ATOM     30  C   UNL     1       4.474 -10.316  -4.228  0.00  0.00    +0.113 C 
ATOM     31  C   UNL     1       5.837  -9.752  -3.817  0.00  0.00    +0.175 C 
ATOM     32  O   UNL     1       6.825 -10.780  -3.928  0.00  0.00    -0.377 OA
ATOM     33  C   UNL     1       6.551 -11.932  -3.126  0.00  0.00    +0.175 C 
ATOM     34  C   UNL     1       5.195 -12.517  -3.530  0.00  0.00    +0.113 C 
ENDBRANCH  22  29
ENDBRANCH  21  22
ENDBRANCH  18  21
ENDBRANCH   4  18
TORSDOF 6
