REMARK  Name = ZINC02134555
REMARK  6 active torsions:
REMARK  status: ('A' for Active; 'I' for Inactive)
REMARK    1  A    between atoms: C_1  and  C_2
REMARK    2  A    between atoms: C_5  and  C_8
REMARK    3  A    between atoms: C_8  and  C_9
REMARK    4  A    between atoms: C_9  and  C_24
REMARK    5  A    between atoms: N_15  and  C_18
REMARK    6  A    between atoms: C_24  and  N_68
REMARK                            x       y       z     vdW  Elec       q    Type
REMARK                         _______ _______ _______ _____ _____    ______ ____
ROOT
ATOM      1  C   UNL     1       4.494  -1.329  -1.965  0.00  0.00    +0.113 C 
ATOM      2  C   UNL     1       3.087  -1.896  -1.984  0.00  0.00    +0.234 C 
ATOM      3  O   UNL     1       2.810  -2.912  -1.383  0.00  0.00    -0.274 OA
ATOM      4  N   UNL     1       2.154  -1.234  -2.694  0.00  0.00    -0.239 N 
ATOM      5  C   UNL     1       2.439  -0.111  -3.362  0.00  0.00    +0.319 C 
ATOM      6  O   UNL     1       1.537   0.424  -3.975  0.00  0.00    -0.251 OA
ATOM      7  N   UNL     1       3.645   0.467  -3.404  0.00  0.00    -0.193 N 
ATOM      8  C   UNL     1       4.709  -0.052  -2.755  0.00  0.00    +0.241 C 
ATOM      9  O   UNL     1       5.796   0.483  -2.803  0.00  0.00    -0.274 OA
ATOM     10  H   UNL     1       1.248  -1.580  -2.720  0.00  0.00    +0.159 HD
ENDROOT
BRANCH   7  11
ATOM     11  C   UNL     1       3.808   1.647  -4.144  0.00  0.00    +0.045 A 
ATOM     12  C   UNL     1       3.656   2.881  -3.528  0.00  0.00    +0.024 A 
ATOM     13  C   UNL     1       3.823   4.041  -4.259  0.00  0.00    +0.002 A 
ATOM     14  C   UNL     1       4.131   3.974  -5.605  0.00  0.00    +0.000 A 
ATOM     15  C   UNL     1       4.279   2.746  -6.223  0.00  0.00    +0.002 A 
ATOM     16  C   UNL     1       4.118   1.582  -5.496  0.00  0.00    +0.024 A 
ENDBRANCH   7  11
BRANCH   1  17
ATOM     17  C   UNL     1       4.878  -1.058  -0.509  0.00  0.00    +0.058 C 
BRANCH  17  22
ATOM     18  C   UNL     1       1.355   2.960   1.691  0.00  0.00    +0.044 C 
ATOM     19  C   UNL     1       2.276   1.912   1.122  0.00  0.00    -0.050 A 
ATOM     20  C   UNL     1       3.452   2.289   0.500  0.00  0.00    +0.003 A 
ATOM     21  C   UNL     1       4.293   1.328  -0.028  0.00  0.00    +0.004 A 
ATOM     22  C   UNL     1       3.960  -0.010   0.066  0.00  0.00    -0.046 A 
ATOM     23  C   UNL     1       2.784  -0.387   0.688  0.00  0.00    +0.004 A 
ATOM     24  C   UNL     1       1.942   0.574   1.216  0.00  0.00    +0.003 A 
ENDBRANCH  17  22
ENDBRANCH   1  17
BRANCH   1  25
ATOM     25  C   UNL     1       5.444  -2.394  -2.514  0.00  0.00    -0.053 C 
BRANCH  25  39
ATOM     26  C   UNL     1       5.405  -1.807  -4.861  0.00  0.00    -0.074 C 
ATOM     27  C   UNL     1       4.899  -2.192  -6.243  0.00  0.00    -0.007 C 
ATOM     28  C   UNL     1       5.369  -3.600  -6.620  0.00  0.00    +0.011 C 
ATOM     29  C   UNL     1       4.875  -4.559  -5.531  0.00  0.00    +0.020 C 
ATOM     30  C   UNL     1       5.513  -4.135  -4.198  0.00  0.00    -0.069 C 
ATOM     31  C   UNL     1       3.377  -4.416  -5.385  0.00  0.00    +0.023 A 
ATOM     32  C   UNL     1       2.682  -5.502  -4.955  0.00  0.00    +0.022 A 
ATOM     33  C   UNL     1       1.302  -5.422  -4.737  0.00  0.00    +0.007 A 
ATOM     34  C   UNL     1       0.672  -4.229  -4.937  0.00  0.00    +0.070 A 
ATOM     35  C   UNL     1       1.419  -3.127  -5.376  0.00  0.00    +0.251 A 
ATOM     36  O   UNL     1       0.877  -2.040  -5.499  0.00  0.00    -0.268 OA
ATOM     37  N   UNL     1       2.737  -3.257  -5.665  0.00  0.00    -0.312 N 
ATOM     38  C   UNL     1       3.383  -2.138  -6.326  0.00  0.00    +0.126 C 
ATOM     39  N   UNL     1       4.975  -2.799  -3.856  0.00  0.00    +0.381 N 
ATOM     40  H   UNL     1       3.949  -2.844  -3.850  0.00  0.00    -0.082 HD
ENDBRANCH  25  39
ENDBRANCH   1  25
TORSDOF 5
