REMARK  Name = ZINC63383808
REMARK  11 active torsions:
REMARK  status: ('A' for Active; 'I' for Inactive)
REMARK    1  A    between atoms: C_1  and  C_2
REMARK    2  A    between atoms: C_2  and  C_3
REMARK    3  A    between atoms: C_3  and  C_4
REMARK    4  A    between atoms: C_4  and  N_5
REMARK    5  A    between atoms: C_6  and  C_8
REMARK    6  A    between atoms: C_8  and  C_10
REMARK    7  A    between atoms: C_8  and  N_14
REMARK    8  A    between atoms: C_10  and  C_11
REMARK    9  A    between atoms: C_11  and  C_12
REMARK   10  A    between atoms: C_11  and  C_13
REMARK   11  A    between atoms: C_15  and  C_17
REMARK                            x       y       z     vdW  Elec       q    Type
REMARK                         _______ _______ _______ _____ _____    ______ ____
ROOT
ATOM      1  C   UNL     1       2.193  -8.075  -4.816  0.00  0.00    +0.167 C 
ATOM      2  C   UNL     1       3.437  -8.892  -4.418  0.00  0.00    +0.065 C 
ATOM      3  C   UNL     1       3.715  -9.850  -5.550  0.00  0.00    -0.034 C 
ATOM      4  C   UNL     1       4.837 -10.085  -6.225  0.00  0.00    -0.001 A 
ATOM      5  C   UNL     1       6.207  -9.579  -6.050  0.00  0.00    +0.010 A 
ATOM      6  C   UNL     1       7.129 -10.022  -6.947  0.00  0.00    +0.001 A 
ATOM      7  C   UNL     1       6.827 -10.906  -7.987  0.00  0.00    +0.002 A 
ATOM      8  C   UNL     1       5.595 -11.426  -8.218  0.00  0.00    +0.026 A 
ATOM      9  C   UNL     1       4.544 -11.041  -7.336  0.00  0.00    +0.043 A 
ATOM     10  N   UNL     1       3.294 -11.397  -7.311  0.00  0.00    -0.375 N 
ATOM     11  C   UNL     1       2.657 -10.760  -6.157  0.00  0.00    +0.131 C 
ATOM     12  C   UNL     1       1.479  -9.877  -6.567  0.00  0.00    +0.134 C 
ATOM     13  N   UNL     1       1.785  -8.490  -6.165  0.00  0.00    -0.276 N 
ATOM     14  C   UNL     1       1.645  -7.691  -7.239  0.00  0.00    +0.248 C 
ATOM     15  O   UNL     1       1.711  -6.478  -7.219  0.00  0.00    -0.270 OA
ATOM     16  C   UNL     1       1.402  -8.498  -8.437  0.00  0.00    +0.042 A 
ATOM     17  C   UNL     1       1.296  -9.860  -8.049  0.00  0.00    -0.013 A 
ATOM     18  C   UNL     1       1.068 -10.867  -8.959  0.00  0.00    +0.006 A 
ATOM     19  C   UNL     1       0.937 -10.495 -10.294  0.00  0.00    +0.000 A 
ATOM     20  C   UNL     1       1.027  -9.177 -10.694  0.00  0.00    +0.001 A 
ATOM     21  C   UNL     1       1.267  -8.127  -9.777  0.00  0.00    +0.013 A 
ATOM     22  H   UNL     1       2.858 -11.984  -7.948  0.00  0.00    +0.160 HD
ENDROOT
BRANCH   1  24
ATOM     23  N   UNL     1       1.964  -5.786  -3.906  0.00  0.00    -0.302 N 
ATOM     24  C   UNL     1       2.528  -6.605  -4.816  0.00  0.00    +0.235 C 
ATOM     25  O   UNL     1       3.304  -6.160  -5.634  0.00  0.00    -0.274 OA
ATOM     26  H   UNL     1       1.402  -6.152  -3.206  0.00  0.00    +0.150 HD
BRANCH  23  27
ATOM     27  C   UNL     1       2.202  -4.342  -3.974  0.00  0.00    +0.159 C 
BRANCH  27  29
ATOM     28  N   UNL     1       2.345  -2.463  -2.372  0.00  0.00    -0.314 N 
ATOM     29  C   UNL     1       1.950  -3.727  -2.622  0.00  0.00    +0.233 C 
ATOM     30  O   UNL     1       1.392  -4.370  -1.758  0.00  0.00    -0.274 OA
ATOM     31  H   UNL     1       2.832  -1.965  -3.047  0.00  0.00    +0.149 HD
BRANCH  28  32
ATOM     32  C   UNL     1       2.038  -1.841  -1.082  0.00  0.00    +0.104 C 
BRANCH  32  33
ATOM     33  C   UNL     1       2.593  -0.415  -1.058  0.00  0.00    +0.018 C 
BRANCH  33  35
ATOM     34  C   UNL     1       2.828   1.660   0.314  0.00  0.00    +0.004 C 
ATOM     35  C   UNL     1       2.273   0.234   0.290  0.00  0.00    -0.002 C 
ENDBRANCH  33  35
ENDBRANCH  32  33
ENDBRANCH  28  32
ENDBRANCH  27  29
BRANCH  27  36
ATOM     36  C   UNL     1       1.256  -3.718  -5.002  0.00  0.00    +0.034 C 
BRANCH  36  37
ATOM     37  C   UNL     1       1.526  -2.215  -5.097  0.00  0.00    -0.015 C 
ATOM     38  C   UNL     1       2.922  -1.983  -5.680  0.00  0.00    +0.007 C 
ATOM     39  C   UNL     1       0.480  -1.565  -6.005  0.00  0.00    +0.007 C 
ENDBRANCH  36  37
ENDBRANCH  27  36
ENDBRANCH  23  27
ENDBRANCH   1  24
TORSDOF 8
