REMARK  Name = ZINC38797325
REMARK  8 active torsions:
REMARK  status: ('A' for Active; 'I' for Inactive)
REMARK    1  A    between atoms: C_1  and  C_2
REMARK    2  A    between atoms: C_2  and  O_3
REMARK    3  A    between atoms: O_3  and  C_4
REMARK    4  A    between atoms: C_4  and  C_6
REMARK    5  A    between atoms: C_7  and  C_33
REMARK    6  A    between atoms: C_12  and  N_19
REMARK    7  A    between atoms: N_19  and  S_20
REMARK    8  A    between atoms: S_20  and  C_23
REMARK                            x       y       z     vdW  Elec       q    Type
REMARK                         _______ _______ _______ _____ _____    ______ ____
ROOT
ATOM      1  C   UNL     1       1.778  -1.989  -2.962  0.00  0.00    +0.107 A 
ATOM      2  C   UNL     1       3.098  -2.179  -3.243  0.00  0.00    +0.117 A 
ATOM      3  O   UNL     1       3.228  -2.653  -4.486  0.00  0.00    -0.459 OA
ATOM      4  C   UNL     1       2.028  -2.800  -5.083  0.00  0.00    +0.144 A 
ATOM      5  C   UNL     1       1.047  -2.404  -4.177  0.00  0.00    +0.037 A 
ATOM      6  C   UNL     1      -0.312  -2.452  -4.519  0.00  0.00    +0.037 A 
ATOM      7  C   UNL     1      -0.704  -2.892  -5.748  0.00  0.00    +0.057 A 
ATOM      8  C   UNL     1       0.264  -3.305  -6.694  0.00  0.00    +0.008 A 
ATOM      9  C   UNL     1       1.639  -3.254  -6.362  0.00  0.00    +0.027 A 
ATOM     10  C   UNL     1       2.592  -3.670  -7.305  0.00  0.00    +0.012 A 
ATOM     11  C   UNL     1       2.184  -4.104  -8.530  0.00  0.00    +0.001 A 
ATOM     12  C   UNL     1       0.832  -4.141  -8.862  0.00  0.00    +0.001 A 
ATOM     13  C   UNL     1      -0.120  -3.761  -7.964  0.00  0.00    +0.010 A 
ATOM     14  C   UNL     1       4.236  -1.897  -2.297  0.00  0.00    +0.087 C 
ENDROOT
BRANCH   1  15
ATOM     15  C   UNL     1       1.201  -1.484  -1.709  0.00  0.00    +0.343 C 
ATOM     16  O   UNL     1       0.904  -2.258  -0.820  0.00  0.00    -0.245 OA
BRANCH  15  17
ATOM     17  O   UNL     1       1.000  -0.161  -1.545  0.00  0.00    -0.461 OA
BRANCH  17  19
ATOM     18  C   UNL     1       0.283   1.783  -0.300  0.00  0.00    +0.048 C 
ATOM     19  C   UNL     1       0.436   0.261  -0.302  0.00  0.00    +0.229 C 
ENDBRANCH  17  19
ENDBRANCH  15  17
ENDBRANCH   1  15
BRANCH   7  20
ATOM     20  N   UNL     1      -2.061  -2.934  -6.074  0.00  0.00    -0.216 N 
ATOM     21  H   UNL     1      -2.403  -3.648  -6.635  0.00  0.00    +0.174 HD
BRANCH  20  22
ATOM     22  S   UNL     1      -3.087  -1.766  -5.503  0.00  0.00    +0.072 S 
ATOM     23  O   UNL     1      -4.350  -2.003  -6.110  0.00  0.00    -0.150 OA
ATOM     24  O   UNL     1      -2.914  -1.728  -4.094  0.00  0.00    -0.150 OA
BRANCH  22  25
ATOM     25  C   UNL     1      -2.512  -0.220  -6.124  0.00  0.00    +0.110 A 
ATOM     26  C   UNL     1      -1.542   0.538  -5.343  0.00  0.00    +0.031 A 
ATOM     27  C   UNL     1      -1.061   1.729  -5.761  0.00  0.00    +0.027 A 
ATOM     28  C   UNL     1      -1.518   2.285  -7.032  0.00  0.00    +0.056 A 
ATOM     29  N   UNL     1      -1.263   3.378  -7.708  0.00  0.00    -0.268 N 
ATOM     30  C   UNL     1      -2.009   3.358  -8.863  0.00  0.00    +0.308 C 
ATOM     31  O   UNL     1      -2.003   4.224  -9.711  0.00  0.00    -0.252 OA
ATOM     32  N   UNL     1      -2.760   2.207  -8.913  0.00  0.00    -0.267 N 
ATOM     33  C   UNL     1      -2.515   1.506  -7.834  0.00  0.00    +0.058 A 
ATOM     34  C   UNL     1      -2.980   0.224  -7.311  0.00  0.00    +0.054 A 
ATOM     35  H   UNL     1      -3.369   1.958  -9.626  0.00  0.00    +0.156 HD
ATOM     36  H   UNL     1      -0.652   4.081  -7.439  0.00  0.00    +0.156 HD
ENDBRANCH  22  25
ENDBRANCH  20  22
ENDBRANCH   7  20
TORSDOF 6
