REMARK  Name = ZINC03139080
REMARK  5 active torsions:
REMARK  status: ('A' for Active; 'I' for Inactive)
REMARK    1  A    between atoms: C_1  and  C_2
REMARK    2  A    between atoms: C_10  and  C_11
REMARK    3  A    between atoms: C_13  and  C_16
REMARK    4  A    between atoms: C_18  and  C_26
REMARK    5  A    between atoms: C_20  and  C_22
REMARK                            x       y       z     vdW  Elec       q    Type
REMARK                         _______ _______ _______ _____ _____    ______ ____
ROOT
ATOM      1  C   UNL     1      -6.234   2.911   1.742  0.00  0.00    +0.294 A 
ATOM      2  N   UNL     1      -5.027   2.592   1.305  0.00  0.00    -0.184 NA
ATOM      3  C   UNL     1      -4.203   2.772   2.357  0.00  0.00    +0.203 A 
ATOM      4  N   UNL     1      -4.933   3.192   3.359  0.00  0.00    -0.056 NA
ATOM      5  O   UNL     1      -6.097   3.277   3.028  0.00  0.00    -0.329 OA
ENDROOT
BRANCH   1  15
ATOM      6  C   UNL     1      -9.039   3.679   2.843  0.00  0.00    +0.048 C 
ATOM      7  C   UNL     1      -8.709   3.212   1.449  0.00  0.00    +0.008 A 
ATOM      8  C   UNL     1      -9.643   3.031   0.338  0.00  0.00    +0.024 A 
ATOM      9  C   UNL     1     -11.021   3.204   0.185  0.00  0.00    +0.012 A 
ATOM     10  C   UNL     1     -11.608   2.934  -1.018  0.00  0.00    +0.001 A 
ATOM     11  C   UNL     1     -10.845   2.489  -2.089  0.00  0.00    +0.004 A 
ATOM     12  C   UNL     1      -9.485   2.312  -1.959  0.00  0.00    +0.047 A 
ATOM     13  C   UNL     1      -8.865   2.580  -0.744  0.00  0.00    +0.136 A 
ATOM     14  O   UNL     1      -7.587   2.503  -0.323  0.00  0.00    -0.450 OA
ATOM     15  C   UNL     1      -7.484   2.877   0.969  0.00  0.00    +0.196 A 
ENDBRANCH   1  15
BRANCH   3  16
ATOM     16  C   UNL     1      -2.737   2.543   2.375  0.00  0.00    +0.024 A 
ATOM     17  C   UNL     1      -2.006   2.777   3.538  0.00  0.00    +0.024 A 
ATOM     18  C   UNL     1      -0.643   2.561   3.548  0.00  0.00    +0.056 A 
ATOM     19  C   UNL     1      -0.002   2.114   2.407  0.00  0.00    +0.024 A 
ATOM     20  C   UNL     1      -0.722   1.881   1.250  0.00  0.00    +0.056 A 
ATOM     21  C   UNL     1      -2.085   2.098   1.227  0.00  0.00    +0.024 A 
BRANCH  20  22
ATOM     22  C   UNL     1      -0.017   1.395   0.010  0.00  0.00    +0.417 C 
ATOM     23  F   UNL     1       0.002  -0.004   0.002  0.00  0.00    -0.166 F 
ATOM     24  F   UNL     1       1.296   1.879  -0.000  0.00  0.00    -0.166 F 
ATOM     25  F   UNL     1      -0.694   1.858  -1.124  0.00  0.00    -0.166 F 
ENDBRANCH  20  22
BRANCH  18  26
ATOM     26  C   UNL     1       0.149   2.814   4.806  0.00  0.00    +0.417 C 
ATOM     27  F   UNL     1       0.593   4.141   4.818  0.00  0.00    -0.166 F 
ATOM     28  F   UNL     1      -0.663   2.584   5.922  0.00  0.00    -0.166 F 
ATOM     29  F   UNL     1       1.250   1.953   4.844  0.00  0.00    -0.166 F 
ENDBRANCH  18  26
ENDBRANCH   3  16
TORSDOF 4
