REMARK  Name = ZINC50002972
REMARK  5 active torsions:
REMARK  status: ('A' for Active; 'I' for Inactive)
REMARK    1  A    between atoms: C_1  and  C_2
REMARK    2  A    between atoms: C_5  and  N_8
REMARK    3  A    between atoms: N_8  and  C_9
REMARK    4  A    between atoms: N_8  and  C_10
REMARK    5  A    between atoms: C_15  and  N_16
REMARK                            x       y       z     vdW  Elec       q    Type
REMARK                         _______ _______ _______ _____ _____    ______ ____
ROOT
ATOM      1  C   UNL     1       0.073  -4.875   1.190  0.00  0.00    +0.055 A 
ATOM      2  C   UNL     1      -1.119  -5.246   1.792  0.00  0.00    +0.030 A 
ATOM      3  C   UNL     1      -1.105  -5.943   2.985  0.00  0.00    -0.024 A 
ATOM      4  C   UNL     1       0.103  -6.274   3.584  0.00  0.00    +0.038 A 
ATOM      5  C   UNL     1       1.300  -5.906   2.986  0.00  0.00    +0.048 A 
ATOM      6  C   UNL     1       1.288  -5.211   1.786  0.00  0.00    +0.048 A 
ATOM      7  N   UNL     1       0.112  -6.980   4.794  0.00  0.00    -0.285 N 
ATOM      8  C   UNL     1      -0.979  -7.660   5.194  0.00  0.00    +0.218 C 
ATOM      9  O   UNL     1      -0.960  -8.254   6.251  0.00  0.00    -0.275 OA
ATOM     10  C   UNL     1      -2.222  -7.689   4.346  0.00  0.00    +0.101 C 
ATOM     11  C   UNL     1      -2.401  -6.346   3.639  0.00  0.00    +0.046 C 
ATOM     12  H   UNL     1       0.909  -6.980   5.346  0.00  0.00    +0.155 HD
ENDROOT
BRANCH   6  13
ATOM     13  N   UNL     1       2.494  -4.843   1.178  0.00  0.00    -0.356 N 
ATOM     14  H   UNL     1       2.485  -4.353   0.340  0.00  0.00    +0.142 HD
ATOM     15  H   UNL     1       3.338  -5.077   1.593  0.00  0.00    +0.142 HD
ENDBRANCH   6  13
BRANCH   1  16
ATOM     16  N   UNL     1       0.058  -4.167  -0.021  0.00  0.00    -0.302 N 
ATOM     17  C   UNL     1       0.061  -4.893  -1.294  0.00  0.00    +0.135 C 
BRANCH  16  22
ATOM     18  C   UNL     1      -0.018   1.503   0.010  0.00  0.00    +0.044 C 
ATOM     19  C   UNL     1       0.002  -0.004   0.002  0.00  0.00    -0.050 A 
ATOM     20  C   UNL     1       0.006  -0.687  -1.200  0.00  0.00    +0.005 A 
ATOM     21  C   UNL     1       0.024  -2.068  -1.212  0.00  0.00    +0.024 A 
ATOM     22  C   UNL     1       0.040  -2.771  -0.013  0.00  0.00    +0.034 A 
ATOM     23  C   UNL     1       0.036  -2.081   1.193  0.00  0.00    +0.024 A 
ATOM     24  C   UNL     1       0.023  -0.700   1.197  0.00  0.00    +0.005 A 
ENDBRANCH  16  22
ENDBRANCH   1  16
TORSDOF 3
