REMARK  Name = ZINC59111980
REMARK  11 active torsions:
REMARK  status: ('A' for Active; 'I' for Inactive)
REMARK    1  A    between atoms: C_1  and  C_2
REMARK    2  A    between atoms: C_5  and  N_8
REMARK    3  A    between atoms: N_9  and  C_10
REMARK    4  A    between atoms: C_13  and  N_16
REMARK    5  A    between atoms: N_16  and  C_17
REMARK    6  A    between atoms: C_17  and  N_19
REMARK    7  A    between atoms: N_19  and  C_20
REMARK    8  A    between atoms: C_22  and  C_28
REMARK    9  A    between atoms: C_22  and  C_29
REMARK   10  A    between atoms: C_24  and  C_26
REMARK   11  A    between atoms: C_24  and  C_27
REMARK                            x       y       z     vdW  Elec       q    Type
REMARK                         _______ _______ _______ _____ _____    ______ ____
ROOT
ATOM      1  N   UNL     1       0.153 -10.373   1.707  0.00  0.00    -0.297 N 
ATOM      2  H   UNL     1       0.013 -10.807   0.851  0.00  0.00    +0.154 HD
ENDROOT
BRANCH   1   6
ATOM      3  C   UNL     1       0.148  -6.213   1.957  0.00  0.00    +0.086 A 
ATOM      4  C   UNL     1       1.093  -6.958   2.671  0.00  0.00    +0.031 A 
ATOM      5  C   UNL     1       1.092  -8.332   2.585  0.00  0.00    +0.025 A 
ATOM      6  C   UNL     1       0.151  -8.980   1.791  0.00  0.00    +0.033 A 
ATOM      7  C   UNL     1      -0.790  -8.243   1.079  0.00  0.00    +0.025 A 
ATOM      8  C   UNL     1      -0.799  -6.869   1.164  0.00  0.00    +0.031 A 
BRANCH   3  10
ATOM      9  N   UNL     1       1.021  -4.248   2.772  0.00  0.00    -0.149 NA
ATOM     10  N   UNL     1       0.147  -4.851   2.039  0.00  0.00    -0.149 NA
BRANCH   9  15
ATOM     11  C   UNL     1       1.016   1.385   3.110  0.00  0.00    +0.044 C 
ATOM     12  C   UNL     1       1.017  -0.119   3.019  0.00  0.00    -0.050 A 
ATOM     13  C   UNL     1       1.958  -0.850   3.723  0.00  0.00    +0.005 A 
ATOM     14  C   UNL     1       1.965  -2.227   3.646  0.00  0.00    +0.030 A 
ATOM     15  C   UNL     1       1.020  -2.884   2.854  0.00  0.00    +0.086 A 
ATOM     16  C   UNL     1       0.073  -2.139   2.146  0.00  0.00    +0.030 A 
ATOM     17  C   UNL     1       0.074  -0.762   2.238  0.00  0.00    +0.005 A 
ENDBRANCH   9  15
ENDBRANCH   3  10
ENDBRANCH   1   6
BRANCH   1  18
ATOM     18  C   UNL     1       0.349 -11.115   2.815  0.00  0.00    +0.135 C 
ATOM     19  S   UNL     1       0.451 -10.355   4.346  0.00  0.00    -0.019 S 
BRANCH  18  20
ATOM     20  N   UNL     1       0.464 -12.454   2.718  0.00  0.00    -0.324 N 
ATOM     21  H   UNL     1       0.406 -12.884   1.850  0.00  0.00    +0.148 HD
BRANCH  20  22
ATOM     22  C   UNL     1       0.677 -13.262   3.925  0.00  0.00    +0.069 C 
ATOM     23  C   UNL     1       2.176 -13.336   4.222  0.00  0.00    +0.009 C 
ATOM     24  C   UNL     1       2.416 -14.185   5.470  0.00  0.00    -0.072 C 
ATOM     25  N   UNL     1       1.802 -15.500   5.364  0.00  0.00    +0.386 N 
ATOM     26  C   UNL     1       0.429 -15.569   4.890  0.00  0.00    -0.072 C 
ATOM     27  C   UNL     1       0.166 -14.681   3.679  0.00  0.00    +0.009 C 
ATOM     28  C   UNL     1      -0.571 -15.244   6.002  0.00  0.00    -0.010 C 
ATOM     29  C   UNL     1       0.161 -17.030   4.455  0.00  0.00    -0.010 C 
ATOM     30  C   UNL     1       1.954 -13.432   6.718  0.00  0.00    -0.010 C 
ATOM     31  C   UNL     1       3.943 -14.391   5.598  0.00  0.00    -0.010 C 
ATOM     32  H   UNL     1       2.384 -16.077   4.752  0.00  0.00    -0.084 HD
ATOM     33  H   UNL     1       1.849 -15.951   6.282  0.00  0.00    -0.084 HD
ENDBRANCH  20  22
ENDBRANCH  18  20
ENDBRANCH   1  18
TORSDOF 6
