REMARK  Name = ZINC32944238
REMARK  12 active torsions:
REMARK  status: ('A' for Active; 'I' for Inactive)
REMARK    1  A    between atoms: C_1  and  C_2
REMARK    2  A    between atoms: C_5  and  C_8
REMARK    3  A    between atoms: C_8  and  N_9
REMARK    4  A    between atoms: C_10  and  C_12
REMARK    5  A    between atoms: N_17  and  S_19
REMARK    6  A    between atoms: S_19  and  C_22
REMARK    7  A    between atoms: C_23  and  C_38
REMARK    8  A    between atoms: C_26  and  C_27
REMARK    9  A    between atoms: C_28  and  C_29
REMARK   10  A    between atoms: C_30  and  C_37
REMARK   11  A    between atoms: C_32  and  C_36
REMARK   12  A    between atoms: C_34  and  C_35
REMARK                            x       y       z     vdW  Elec       q    Type
REMARK                         _______ _______ _______ _____ _____    ______ ____
ROOT
ATOM      1  S   UNL     1      -1.370  -1.109   0.009  0.00  0.00    +0.066 S 
ATOM      2  O   UNL     1      -0.900  -2.337   0.549  0.00  0.00    -0.153 OA
ATOM      3  O   UNL     1      -2.462  -0.398   0.574  0.00  0.00    -0.153 OA
ENDROOT
BRANCH   1   8
ATOM      4  C   UNL     1      -0.534  -1.994  -3.594  0.00  0.00    +0.091 C 
ATOM      5  C   UNL     1      -1.600  -1.237  -4.389  0.00  0.00    +0.015 C 
ATOM      6  C   UNL     1      -2.103  -0.047  -3.568  0.00  0.00    +0.018 C 
ATOM      7  C   UNL     1      -2.743  -0.562  -2.270  0.00  0.00    +0.109 C 
ATOM      8  N   UNL     1      -1.766  -1.408  -1.571  0.00  0.00    -0.176 NA
ATOM      9  C   UNL     1      -1.153  -2.528  -2.298  0.00  0.00    +0.122 C 
BRANCH   4  11
ATOM     10  N   UNL     1       0.573  -2.914  -5.605  0.00  0.00    -0.311 N 
ATOM     11  C   UNL     1      -0.017  -3.146  -4.416  0.00  0.00    +0.218 C 
ATOM     12  O   UNL     1      -0.131  -4.282  -4.007  0.00  0.00    -0.275 OA
ATOM     13  H   UNL     1       0.676  -1.884  -5.976  0.00  0.00    +0.149 HD
BRANCH  10  14
ATOM     14  C   UNL     1       1.076  -4.034  -6.405  0.00  0.00    +0.139 C 
BRANCH  14  19
ATOM     15  C   UNL     1       3.409  -2.019 -11.293  0.00  0.00    +0.044 C 
ATOM     16  C   UNL     1       2.800  -2.545 -10.018  0.00  0.00    -0.050 A 
ATOM     17  C   UNL     1       3.584  -2.696  -8.889  0.00  0.00    +0.003 A 
ATOM     18  C   UNL     1       3.026  -3.178  -7.720  0.00  0.00    +0.005 A 
ATOM     19  C   UNL     1       1.684  -3.509  -7.679  0.00  0.00    -0.030 A 
ATOM     20  C   UNL     1       0.902  -3.362  -8.809  0.00  0.00    +0.005 A 
ATOM     21  C   UNL     1       1.459  -2.876  -9.977  0.00  0.00    +0.003 A 
ENDBRANCH  14  19
ENDBRANCH  10  14
ENDBRANCH   4  11
ENDBRANCH   1   8
BRANCH   1  22
ATOM     22  C   UNL     1       0.002  -0.004   0.002  0.00  0.00    +0.174 A 
ATOM     23  C   UNL     1       1.374  -0.322  -0.013  0.00  0.00    +0.107 A 
ATOM     24  N   UNL     1       2.020   0.809  -0.013  0.00  0.00    -0.081 NA
ATOM     25  O   UNL     1       1.272   1.759  -0.001  0.00  0.00    -0.353 OA
ATOM     26  C   UNL     1      -0.017   1.370   0.010  0.00  0.00    +0.187 A 
ATOM     27  C   UNL     1       1.977  -1.703  -0.025  0.00  0.00    +0.071 C 
BRANCH  26  28
ATOM     28  C   UNL     1      -1.199   2.236   0.020  0.00  0.00    +0.051 C 
ATOM     29  C   UNL     1      -1.054   3.574   0.027  0.00  0.00    +0.012 C 
BRANCH  29  30
ATOM     30  C   UNL     1      -2.242   4.444   0.037  0.00  0.00    -0.019 A 
ATOM     31  C   UNL     1      -3.270   4.241  -0.888  0.00  0.00    -0.043 A 
ATOM     32  C   UNL     1      -4.382   5.056  -0.868  0.00  0.00    +0.007 A 
ATOM     33  C   UNL     1      -4.477   6.080   0.057  0.00  0.00    -0.050 A 
ATOM     34  C   UNL     1      -3.461   6.291   0.973  0.00  0.00    +0.007 A 
ATOM     35  C   UNL     1      -2.345   5.481   0.969  0.00  0.00    -0.043 A 
ATOM     36  C   UNL     1      -1.240   5.713   1.967  0.00  0.00    +0.044 C 
ATOM     37  C   UNL     1      -5.693   6.970   0.068  0.00  0.00    +0.044 C 
ATOM     38  C   UNL     1      -3.165   3.130  -1.901  0.00  0.00    +0.044 C 
ENDBRANCH  29  30
ENDBRANCH  26  28
ENDBRANCH   1  22
TORSDOF 7
