REMARK  Name = ZINC20988039
REMARK  9 active torsions:
REMARK  status: ('A' for Active; 'I' for Inactive)
REMARK    1  A    between atoms: C_1  and  C_2
REMARK    2  A    between atoms: C_6  and  N_9
REMARK    3  A    between atoms: C_7  and  C_8
REMARK    4  A    between atoms: N_12  and  C_15
REMARK    5  A    between atoms: C_15  and  C_16
REMARK    6  A    between atoms: C_16  and  N_17
REMARK    7  A    between atoms: C_18  and  C_20
REMARK    8  A    between atoms: C_20  and  C_21
REMARK    9  A    between atoms: C_21  and  C_22
REMARK                            x       y       z     vdW  Elec       q    Type
REMARK                         _______ _______ _______ _____ _____    ______ ____
ROOT
ATOM      1  N   UNL     1       0.963  -7.318   7.195  0.00  0.00    -0.314 N 
ATOM      2  C   UNL     1       1.805  -8.334   7.471  0.00  0.00    +0.214 C 
ATOM      3  O   UNL     1       2.598  -8.708   6.634  0.00  0.00    -0.276 OA
ATOM      4  H   UNL     1       0.328  -7.019   7.865  0.00  0.00    +0.149 HD
ENDROOT
BRANCH   1   5
ATOM      5  C   UNL     1       1.006  -6.666   5.884  0.00  0.00    +0.119 C 
BRANCH   5   6
ATOM      6  C   UNL     1      -0.044  -5.555   5.832  0.00  0.00    +0.103 C 
BRANCH   6  10
ATOM      7  N   UNL     1       0.166  -2.645   2.773  0.00  0.00    -0.391 NA
ATOM      8  C   UNL     1      -1.095  -3.380   2.942  0.00  0.00    +0.100 C 
ATOM      9  C   UNL     1      -1.144  -3.994   4.343  0.00  0.00    +0.102 C 
ATOM     10  N   UNL     1      -0.001  -4.901   4.518  0.00  0.00    -0.298 NA
ATOM     11  C   UNL     1       1.268  -4.185   4.327  0.00  0.00    +0.102 C 
ATOM     12  C   UNL     1       1.298  -3.569   2.926  0.00  0.00    +0.100 C 
ATOM     13  H   UNL     1       0.228  -1.919   3.471  0.00  0.00    +0.127 HD
BRANCH   7  19
ATOM     14  C   UNL     1       0.285   1.373  -0.047  0.00  0.00    +0.044 C 
ATOM     15  C   UNL     1       0.261  -0.126   0.103  0.00  0.00    -0.046 A 
ATOM     16  C   UNL     1       0.276  -0.933  -1.020  0.00  0.00    +0.004 A 
ATOM     17  C   UNL     1       0.254  -2.308  -0.882  0.00  0.00    +0.002 A 
ATOM     18  C   UNL     1       0.217  -2.877   0.377  0.00  0.00    +0.022 A 
ATOM     19  C   UNL     1       0.203  -2.070   1.500  0.00  0.00    +0.017 A 
ATOM     20  C   UNL     1       0.230  -0.695   1.362  0.00  0.00    -0.028 A 
ATOM     21  C   UNL     1       0.220   0.185   2.586  0.00  0.00    +0.046 C 
ENDBRANCH   7  19
ENDBRANCH   6  10
ENDBRANCH   5   6
ENDBRANCH   1   5
BRANCH   2  22
ATOM     22  C   UNL     1       1.760  -9.004   8.820  0.00  0.00    +0.105 C 
BRANCH  22  23
ATOM     23  C   UNL     1       2.811 -10.116   8.872  0.00  0.00    +0.105 C 
BRANCH  23  24
ATOM     24  C   UNL     1       2.766 -10.786  10.220  0.00  0.00    +0.220 C 
ATOM     25  O   UNL     1       1.911 -10.478  11.023  0.00  0.00    -0.275 OA
ATOM     26  N   UNL     1       3.677 -11.729  10.535  0.00  0.00    -0.268 N 
ATOM     27  C   UNL     1       4.633 -12.188   9.514  0.00  0.00    +0.136 C 
ATOM     28  C   UNL     1       4.730 -13.715   9.607  0.00  0.00    +0.091 C 
ATOM     29  C   UNL     1       5.865 -14.255   8.722  0.00  0.00    +0.025 C 
ATOM     30  C   UNL     1       6.367 -15.474   9.548  0.00  0.00    +0.021 C 
ATOM     31  C   UNL     1       6.249 -14.946  10.999  0.00  0.00    +0.105 C 
ATOM     32  N   UNL     1       5.081 -14.034  11.008  0.00  0.00    -0.324 N 
ATOM     33  C   UNL     1       4.414 -13.444  12.085  0.00  0.00    +0.052 A 
ATOM     34  C   UNL     1       3.709 -12.259  11.832  0.00  0.00    +0.057 A 
ATOM     35  C   UNL     1       3.044 -11.629  12.870  0.00  0.00    +0.025 A 
ATOM     36  C   UNL     1       3.080 -12.169  14.143  0.00  0.00    +0.002 A 
ATOM     37  C   UNL     1       3.776 -13.338  14.389  0.00  0.00    +0.002 A 
ATOM     38  C   UNL     1       4.440 -13.985  13.355  0.00  0.00    +0.025 A 
ENDBRANCH  23  24
ENDBRANCH  22  23
ENDBRANCH   2  22
TORSDOF 7
