REMARK  Name = ZINC13461650
REMARK  8 active torsions:
REMARK  status: ('A' for Active; 'I' for Inactive)
REMARK    1  A    between atoms: C_3  and  C_6
REMARK    2  A    between atoms: C_8  and  C_11
REMARK    3  A    between atoms: C_11  and  N_12
REMARK    4  A    between atoms: N_12  and  C_13
REMARK    5  A    between atoms: C_16  and  N_30
REMARK    6  A    between atoms: C_18  and  S_19
REMARK    7  A    between atoms: S_19  and  N_22
REMARK    8  A    between atoms: C_25  and  C_28
REMARK                            x       y       z     vdW  Elec       q    Type
REMARK                         _______ _______ _______ _____ _____    ______ ____
ROOT
ATOM      1  C   UNL     1      -1.304   2.198  -0.053  0.00  0.00    +0.054 A 
ATOM      2  C   UNL     1      -2.518   1.526  -0.131  0.00  0.00    +0.027 A 
ATOM      3  C   UNL     1      -3.701   2.223   0.008  0.00  0.00    +0.034 A 
ATOM      4  C   UNL     1      -3.680   3.589   0.224  0.00  0.00    +0.128 A 
ATOM      5  C   UNL     1      -2.474   4.261   0.302  0.00  0.00    +0.063 A 
ATOM      6  C   UNL     1      -1.286   3.568   0.169  0.00  0.00    +0.128 A 
ENDROOT
BRANCH   6   7
ATOM      7  S   UNL     1       0.250   4.425   0.276  0.00  0.00    +0.063 S 
ATOM      8  O   UNL     1       1.033   3.992  -0.828  0.00  0.00    -0.153 OA
ATOM      9  O   UNL     1      -0.062   5.793   0.499  0.00  0.00    -0.153 OA
BRANCH   7  10
ATOM     10  N   UNL     1       1.018   3.885   1.640  0.00  0.00    -0.176 NA
ATOM     11  C   UNL     1       0.699   4.458   2.955  0.00  0.00    +0.110 C 
ATOM     12  C   UNL     1       1.991   4.932   3.618  0.00  0.00    +0.032 C 
ATOM     13  C   UNL     1       2.992   3.775   3.663  0.00  0.00    +0.105 C 
ATOM     14  C   UNL     1       3.316   3.324   2.237  0.00  0.00    +0.032 C 
ATOM     15  C   UNL     1       2.035   2.828   1.559  0.00  0.00    +0.110 C 
BRANCH  13  16
ATOM     16  C   UNL     1       4.256   4.231   4.345  0.00  0.00    +0.359 C 
ATOM     17  O   UNL     1       5.308   4.199   3.751  0.00  0.00    -0.246 OA
ATOM     18  O   UNL     1       4.213   4.674   5.611  0.00  0.00    -0.246 OA
ENDBRANCH  13  16
ENDBRANCH   7  10
ENDBRANCH   6   7
BRANCH   4  19
ATOM     19  N   UNL     1      -4.951   4.333   0.373  0.00  0.00    +0.056 N 
ATOM     20  O   UNL     1      -6.014   3.742   0.305  0.00  0.00    -0.126 OA
ATOM     21  O   UNL     1      -4.933   5.536   0.563  0.00  0.00    -0.126 OA
ENDBRANCH   4  19
BRANCH   1  22
ATOM     22  N   UNL     1      -0.105   1.495  -0.193  0.00  0.00    -0.337 N 
ATOM     23  H   UNL     1       0.737   1.976  -0.226  0.00  0.00    +0.147 HD
BRANCH  22  24
ATOM     24  C   UNL     1      -0.120   0.034  -0.297  0.00  0.00    +0.160 C 
BRANCH  24  27
ATOM     25  C   UNL     1       3.173  -1.055  -1.330  0.00  0.00    +0.234 A 
ATOM     26  N   UNL     1       1.978  -0.572  -1.595  0.00  0.00    -0.212 NA
ATOM     27  C   UNL     1       1.292  -0.473  -0.446  0.00  0.00    +0.097 A 
ATOM     28  C   UNL     1       2.088  -0.901   0.549  0.00  0.00    +0.222 A 
ATOM     29  O   UNL     1       3.261  -1.270  -0.005  0.00  0.00    -0.443 OA
BRANCH  25  32
ATOM     30  C   UNL     1       6.326  -1.975  -3.207  0.00  0.00    +0.008 A 
ATOM     31  C   UNL     1       5.505  -1.819  -2.115  0.00  0.00    +0.021 A 
ATOM     32  C   UNL     1       4.232  -1.315  -2.315  0.00  0.00    +0.074 A 
ATOM     33  S   UNL     1       4.210  -1.072  -4.084  0.00  0.00    -0.092 S 
ATOM     34  C   UNL     1       5.866  -1.633  -4.439  0.00  0.00    +0.046 A 
ENDBRANCH  25  32
ENDBRANCH  24  27
ENDBRANCH  22  24
ENDBRANCH   1  22
TORSDOF 8
