REMARK  Name = ZINC09494157
REMARK  3 active torsions:
REMARK  status: ('A' for Active; 'I' for Inactive)
REMARK    1  A    between atoms: N_13  and  C_17
REMARK    2  A    between atoms: C_17  and  C_18
REMARK    3  A    between atoms: C_28  and  C_30
REMARK                            x       y       z     vdW  Elec       q    Type
REMARK                         _______ _______ _______ _____ _____    ______ ____
ROOT
ATOM      1  C   UNL     1       4.983   2.584  -2.996  0.00  0.00    +0.001 A 
ATOM      2  C   UNL     1       4.320   1.642  -3.761  0.00  0.00    +0.004 A 
ATOM      3  C   UNL     1       2.950   1.512  -3.658  0.00  0.00    +0.046 A 
ATOM      4  C   UNL     1       2.233   2.325  -2.787  0.00  0.00    +0.126 A 
ATOM      5  C   UNL     1       2.900   3.264  -2.018  0.00  0.00    +0.027 A 
ATOM      6  C   UNL     1       4.275   3.392  -2.128  0.00  0.00    +0.010 A 
ATOM      7  C   UNL     1       2.158   4.148  -1.055  0.00  0.00    +0.144 C 
ATOM      8  C   UNL     1       0.664   4.152  -1.366  0.00  0.00    +0.081 C 
ATOM      9  C   UNL     1       0.210   2.701  -1.572  0.00  0.00    +0.232 C 
ATOM     10  O   UNL     1       0.885   2.173  -2.714  0.00  0.00    -0.492 OA
ATOM     11  C   UNL     1       2.399   3.698   0.367  0.00  0.00    +0.252 C 
ATOM     12  O   UNL     1       2.115   2.626   0.856  0.00  0.00    -0.272 OA
ATOM     13  N   UNL     1       2.997   4.742   0.979  0.00  0.00    -0.215 N 
ATOM     14  C   UNL     1       3.163   5.774   0.143  0.00  0.00    +0.310 C 
ATOM     15  O   UNL     1       3.679   6.827   0.463  0.00  0.00    -0.252 OA
ATOM     16  N   UNL     1       2.695   5.514  -1.093  0.00  0.00    -0.281 N 
ATOM     17  H   UNL     1       2.709   6.112  -1.857  0.00  0.00    +0.152 HD
ENDROOT
BRANCH  13  18
ATOM     18  C   UNL     1       3.413   4.745   2.383  0.00  0.00    +0.213 C 
BRANCH  18  19
ATOM     19  C   UNL     1       4.828   4.237   2.489  0.00  0.00    +0.234 C 
ATOM     20  O   UNL     1       5.429   3.905   1.490  0.00  0.00    -0.274 OA
ATOM     21  N   UNL     1       5.425   4.151   3.694  0.00  0.00    -0.288 N 
ATOM     22  C   UNL     1       4.757   4.674   4.896  0.00  0.00    +0.114 C 
ATOM     23  C   UNL     1       4.459   3.485   5.831  0.00  0.00    +0.062 C 
ATOM     24  C   UNL     1       5.657   2.593   5.867  0.00  0.00    -0.003 A 
ATOM     25  C   UNL     1       6.707   2.567   5.003  0.00  0.00    -0.012 A 
ATOM     26  C   UNL     1       7.703   1.625   5.256  0.00  0.00    +0.013 A 
ATOM     27  C   UNL     1       7.597   0.798   6.321  0.00  0.00    +0.046 A 
ATOM     28  S   UNL     1       6.045   1.318   7.037  0.00  0.00    -0.101 S 
ATOM     29  C   UNL     1       6.754   3.539   3.825  0.00  0.00    +0.144 C 
BRANCH  29  30
ATOM     30  C   UNL     1       7.101   2.796   2.561  0.00  0.00    +0.015 A 
ATOM     31  C   UNL     1       8.158   2.971   1.731  0.00  0.00    +0.013 A 
ATOM     32  C   UNL     1       8.275   2.163   0.616  0.00  0.00    +0.008 A 
ATOM     33  C   UNL     1       7.329   1.220   0.385  0.00  0.00    +0.045 A 
ATOM     34  S   UNL     1       6.230   1.452   1.773  0.00  0.00    -0.099 S 
ENDBRANCH  29  30
ENDBRANCH  18  19
ENDBRANCH  13  18
TORSDOF 3
