REMARK  Name = ZINC16576478
REMARK  7 active torsions:
REMARK  status: ('A' for Active; 'I' for Inactive)
REMARK    1  A    between atoms: C_1  and  C_2
REMARK    2  A    between atoms: C_2  and  C_4
REMARK    3  A    between atoms: C_2  and  C_30
REMARK    4  A    between atoms: C_4  and  N_5
REMARK    5  A    between atoms: N_5  and  C_6
REMARK    6  A    between atoms: N_9  and  C_14
REMARK    7  A    between atoms: C_25  and  C_27
REMARK                            x       y       z     vdW  Elec       q    Type
REMARK                         _______ _______ _______ _____ _____    ______ ____
ROOT
ATOM      1  C   UNL     1       3.020  -0.451   2.189  0.00  0.00    +0.071 A 
ATOM      2  C   UNL     1       2.564  -1.201   3.294  0.00  0.00    +0.157 A 
ATOM      3  N   UNL     1       3.384  -1.529   4.253  0.00  0.00    -0.174 NA
ATOM      4  N   UNL     1       4.729  -1.148   4.214  0.00  0.00    -0.221 N 
ATOM      5  C   UNL     1       5.208  -0.431   3.178  0.00  0.00    +0.288 A 
ATOM      6  O   UNL     1       6.384  -0.102   3.150  0.00  0.00    -0.265 OA
ATOM      7  C   UNL     1       4.349  -0.070   2.130  0.00  0.00    +0.129 A 
ATOM      8 CL   UNL     1       4.942   0.848   0.781  0.00  0.00    -0.076 Cl
ENDROOT
BRANCH   4   9
ATOM      9  C   UNL     1       5.625  -1.531   5.308  0.00  0.00    +0.081 C 
ATOM     10  C   UNL     1       6.202  -0.273   5.959  0.00  0.00    +0.034 C 
ATOM     11  C   UNL     1       7.137  -0.673   7.102  0.00  0.00    -0.008 C 
ATOM     12  C   UNL     1       8.278  -1.531   6.550  0.00  0.00    +0.007 C 
ATOM     13  C   UNL     1       7.701  -2.789   5.898  0.00  0.00    -0.008 C 
ATOM     14  C   UNL     1       6.765  -2.389   4.756  0.00  0.00    +0.034 C 
ATOM     15  C   UNL     1       6.919  -3.590   6.941  0.00  0.00    +0.008 C 
ATOM     16  C   UNL     1       5.778  -2.733   7.493  0.00  0.00    +0.006 C 
ATOM     17  C   UNL     1       6.355  -1.474   8.144  0.00  0.00    +0.008 C 
ATOM     18  C   UNL     1       4.843  -2.332   6.350  0.00  0.00    +0.133 C 
BRANCH  18  19
ATOM     19  C   UNL     1       4.274  -3.572   5.708  0.00  0.00    +0.362 C 
ATOM     20  O   UNL     1       4.109  -4.581   6.372  0.00  0.00    -0.246 OA
ATOM     21  O   UNL     1       3.979  -3.565   4.525  0.00  0.00    -0.246 OA
ENDBRANCH  18  19
ENDBRANCH   4   9
BRANCH   1  22
ATOM     22  N   UNL     1       2.148  -0.104   1.172  0.00  0.00    -0.341 N 
ATOM     23  H   UNL     1       2.467   0.409   0.412  0.00  0.00    +0.146 HD
BRANCH  22  24
ATOM     24  C   UNL     1       0.742  -0.511   1.242  0.00  0.00    +0.109 C 
BRANCH  24  26
ATOM     25  C   UNL     1      -0.019   1.526   0.010  0.00  0.00    +0.014 C 
ATOM     26  C   UNL     1       0.002  -0.004   0.002  0.00  0.00    +0.033 C 
BRANCH  26  27
ATOM     27  C   UNL     1      -1.412  -0.526   0.013  0.00  0.00    -0.043 A 
ATOM     28  C   UNL     1      -2.259  -0.204   1.056  0.00  0.00    +0.004 A 
ATOM     29  C   UNL     1      -3.556  -0.683   1.066  0.00  0.00    +0.000 A 
ATOM     30  C   UNL     1      -4.006  -1.482   0.032  0.00  0.00    +0.000 A 
ATOM     31  C   UNL     1      -3.159  -1.803  -1.012  0.00  0.00    +0.000 A 
ATOM     32  C   UNL     1      -1.863  -1.321  -1.024  0.00  0.00    +0.004 A 
ENDBRANCH  26  27
ENDBRANCH  24  26
ENDBRANCH  22  24
ENDBRANCH   1  22
TORSDOF 6
