REMARK  Name = ZINC32818824
REMARK  7 active torsions:
REMARK  status: ('A' for Active; 'I' for Inactive)
REMARK    1  A    between atoms: C_1  and  S_2
REMARK    2  A    between atoms: S_2  and  C_3
REMARK    3  A    between atoms: C_4  and  C_27
REMARK    4  A    between atoms: C_5  and  C_18
REMARK    5  A    between atoms: N_10  and  C_11
REMARK    6  A    between atoms: C_21  and  N_24
REMARK    7  A    between atoms: C_27  and  C_29
REMARK                            x       y       z     vdW  Elec       q    Type
REMARK                         _______ _______ _______ _____ _____    ______ ____
ROOT
ATOM      1  C   UNL     1       2.465   0.255   0.053  0.00  0.00    +0.085 C 
ATOM      2  C   UNL     1       1.424  -0.629   0.264  0.00  0.00    +0.053 C 
ATOM      3  C   UNL     1       0.016  -0.069   0.240  0.00  0.00    +0.141 C 
ATOM      4  N   UNL     1      -0.125   1.375  -0.005  0.00  0.00    -0.288 N 
ATOM      5  C   UNL     1       0.985   2.114  -0.194  0.00  0.00    +0.312 C 
ATOM      6  O   UNL     1       0.865   3.306  -0.396  0.00  0.00    -0.252 OA
ATOM      7  N   UNL     1       2.215   1.587  -0.167  0.00  0.00    -0.218 N 
ATOM      8  H   UNL     1      -1.124   1.834  -0.033  0.00  0.00    +0.151 HD
ENDROOT
BRANCH   7   9
ATOM      9  C   UNL     1       3.307   2.441  -0.374  0.00  0.00    +0.043 A 
ATOM     10  C   UNL     1       4.088   2.306  -1.514  0.00  0.00    +0.025 A 
ATOM     11  C   UNL     1       5.160   3.152  -1.719  0.00  0.00    +0.022 A 
ATOM     12  C   UNL     1       5.463   4.127  -0.784  0.00  0.00    +0.041 A 
ATOM     13  C   UNL     1       4.689   4.260   0.355  0.00  0.00    +0.022 A 
ATOM     14  C   UNL     1       3.612   3.420   0.562  0.00  0.00    +0.025 A 
ATOM     15 CL   UNL     1       6.815   5.185  -1.042  0.00  0.00    -0.084 Cl
ENDBRANCH   7   9
BRANCH   3  16
ATOM     16  C   UNL     1      -0.628  -0.380   1.566  0.00  0.00    -0.022 A 
ATOM     17  C   UNL     1      -0.364   0.415   2.666  0.00  0.00    +0.008 A 
ATOM     18  C   UNL     1      -0.960   0.134   3.881  0.00  0.00    +0.033 A 
ATOM     19  C   UNL     1      -1.810  -0.950   4.000  0.00  0.00    +0.126 A 
ATOM     20  C   UNL     1      -2.070  -1.748   2.902  0.00  0.00    +0.033 A 
ATOM     21  C   UNL     1      -1.479  -1.463   1.685  0.00  0.00    +0.008 A 
BRANCH  19  22
ATOM     22  N   UNL     1      -2.443  -1.254   5.303  0.00  0.00    +0.056 N 
ATOM     23  O   UNL     1      -3.193  -2.209   5.407  0.00  0.00    -0.126 OA
ATOM     24  O   UNL     1      -2.214  -0.551   6.271  0.00  0.00    -0.126 OA
ENDBRANCH  19  22
ENDBRANCH   3  16
BRANCH   1  26
ATOM     25  C   UNL     1       4.714   0.425   1.603  0.00  0.00    +0.091 C 
ATOM     26  S   UNL     1       4.127  -0.332   0.068  0.00  0.00    -0.112 S 
ENDBRANCH   1  26
BRANCH   2  27
ATOM     27  C   UNL     1       1.661  -1.992   0.489  0.00  0.00    +0.194 C 
ATOM     28  O   UNL     1       2.226  -2.352   1.508  0.00  0.00    -0.287 OA
BRANCH  27  29
ATOM     29  C   UNL     1       1.226  -2.994  -0.510  0.00  0.00    +0.022 A 
ATOM     30  C   UNL     1       0.671  -2.581  -1.721  0.00  0.00    +0.013 A 
ATOM     31  C   UNL     1       0.271  -3.519  -2.650  0.00  0.00    +0.021 A 
ATOM     32  C   UNL     1       0.411  -4.870  -2.378  0.00  0.00    +0.041 A 
ATOM     33  C   UNL     1       0.957  -5.286  -1.175  0.00  0.00    +0.021 A 
ATOM     34  C   UNL     1       1.365  -4.356  -0.241  0.00  0.00    +0.013 A 
ATOM     35 CL   UNL     1      -0.100  -6.045  -3.549  0.00  0.00    -0.084 Cl
ENDBRANCH  27  29
ENDBRANCH   2  27
TORSDOF 6
