REMARK  Name = ZINC22535718
REMARK  8 active torsions:
REMARK  status: ('A' for Active; 'I' for Inactive)
REMARK    1  A    between atoms: C_1  and  C_2
REMARK    2  A    between atoms: C_9  and  N_14
REMARK    3  A    between atoms: C_10  and  C_11
REMARK    4  A    between atoms: N_14  and  C_15
REMARK    5  A    between atoms: C_15  and  N_17
REMARK    6  A    between atoms: C_18  and  C_20
REMARK    7  A    between atoms: C_29  and  O_30
REMARK    8  A    between atoms: O_30  and  C_31
REMARK                            x       y       z     vdW  Elec       q    Type
REMARK                         _______ _______ _______ _____ _____    ______ ____
ROOT
ATOM      1  C   UNL     1       5.815   1.148  -4.162  0.00  0.00    +0.141 C 
ATOM      2  S   UNL     1       6.233   1.547  -2.550  0.00  0.00    -0.018 S 
ENDROOT
BRANCH   1   3
ATOM      3  N   UNL     1       6.776   1.039  -5.100  0.00  0.00    -0.263 N 
ATOM      4  C   UNL     1       8.067   1.243  -4.770  0.00  0.00    +0.253 C 
ATOM      5  O   UNL     1       8.364   1.527  -3.626  0.00  0.00    -0.270 OA
ATOM      6  H   UNL     1       6.508   0.782  -6.135  0.00  0.00    +0.157 HD
BRANCH   4   7
ATOM      7  C   UNL     1       9.119   1.123  -5.796  0.00  0.00    +0.079 A 
ATOM      8  C   UNL     1       8.775   0.800  -7.100  0.00  0.00    +0.025 A 
ATOM      9  C   UNL     1       9.780   0.688  -8.071  0.00  0.00    -0.017 A 
ATOM     10  C   UNL     1       9.467   0.361  -9.404  0.00  0.00    +0.008 A 
ATOM     11  C   UNL     1      10.464   0.260 -10.324  0.00  0.00    +0.001 A 
ATOM     12  C   UNL     1      11.795   0.475  -9.967  0.00  0.00    +0.001 A 
ATOM     13  C   UNL     1      12.135   0.792  -8.688  0.00  0.00    +0.008 A 
ATOM     14  C   UNL     1      11.134   0.906  -7.708  0.00  0.00    -0.014 A 
ATOM     15  C   UNL     1      11.456   1.233  -6.380  0.00  0.00    +0.055 A 
ATOM     16  C   UNL     1      10.468   1.345  -5.447  0.00  0.00    +0.133 A 
BRANCH  16  17
ATOM     17  O   UNL     1      10.786   1.666  -4.168  0.00  0.00    -0.494 OA
ATOM     18  C   UNL     1      12.169   1.878  -3.877  0.00  0.00    +0.277 C 
ENDBRANCH  16  17
ENDBRANCH   4   7
ENDBRANCH   1   3
BRANCH   1  19
ATOM     19  N   UNL     1       4.524   0.943  -4.492  0.00  0.00    -0.291 N 
ATOM     20  H   UNL     1       4.256   0.687  -5.527  0.00  0.00    +0.154 HD
BRANCH  19  28
ATOM     21  C   UNL     1      -0.734   1.582   1.262  0.00  0.00    +0.008 C 
ATOM     22  C   UNL     1      -0.013   1.086   0.008  0.00  0.00    -0.009 C 
ATOM     23  C   UNL     1      -0.738   1.596  -1.241  0.00  0.00    +0.008 C 
ATOM     24  C   UNL     1      -0.177   0.907  -2.486  0.00  0.00    +0.037 C 
ATOM     25  C   UNL     1       1.339   1.061  -2.490  0.00  0.00    -0.023 A 
ATOM     26  C   UNL     1       2.009   1.379  -1.361  0.00  0.00    -0.004 A 
ATOM     27  S   UNL     1       3.710   1.446  -1.848  0.00  0.00    -0.077 S 
ATOM     28  C   UNL     1       3.536   1.056  -3.527  0.00  0.00    +0.084 A 
ATOM     29  C   UNL     1       2.166   0.884  -3.672  0.00  0.00    +0.068 A 
ATOM     30  C   UNL     1       1.427   1.620  -0.003  0.00  0.00    +0.046 C 
BRANCH  29  31
ATOM     31  C   UNL     1       1.576   0.535  -4.968  0.00  0.00    +0.244 C 
ATOM     32  O   UNL     1       1.437  -0.633  -5.278  0.00  0.00    -0.270 OA
ATOM     33  N   UNL     1       1.188   1.509  -5.815  0.00  0.00    -0.325 N 
ATOM     34  H   UNL     1       0.746   1.248  -6.787  0.00  0.00    +0.145 HD
ATOM     35  H   UNL     1       1.315   2.565  -5.534  0.00  0.00    +0.145 HD
ENDBRANCH  29  31
ENDBRANCH  19  28
ENDBRANCH   1  19
TORSDOF 6
