REMARK  Name = ZINC16729444
REMARK  7 active torsions:
REMARK  status: ('A' for Active; 'I' for Inactive)
REMARK    1  A    between atoms: C_3  and  C_10
REMARK    2  A    between atoms: C_5  and  N_7
REMARK    3  A    between atoms: C_13  and  C_15
REMARK    4  A    between atoms: C_17  and  C_29
REMARK    5  A    between atoms: C_19  and  C_24
REMARK    6  A    between atoms: C_19  and  O_28
REMARK    7  A    between atoms: C_29  and  C_31
REMARK                            x       y       z     vdW  Elec       q    Type
REMARK                         _______ _______ _______ _____ _____    ______ ____
ROOT
ATOM      1  C   UNL     1      -1.543  -0.466  -0.540  0.00  0.00    +0.156 C 
ATOM      2  C   UNL     1      -1.639  -1.228  -1.866  0.00  0.00    +0.147 C 
ATOM      3  C   UNL     1      -0.412  -2.137  -1.997  0.00  0.00    +0.243 C 
ATOM      4  N   UNL     1      -0.331  -3.006  -0.822  0.00  0.00    -0.264 N 
ATOM      5  C   UNL     1      -0.811  -2.617   0.368  0.00  0.00    +0.302 C 
ATOM      6  O   UNL     1      -0.709  -3.373   1.315  0.00  0.00    -0.253 OA
ATOM      7  N   UNL     1      -1.400  -1.426   0.556  0.00  0.00    -0.289 N 
ATOM      8  H   UNL     1       0.079  -3.881  -0.906  0.00  0.00    +0.153 HD
ATOM      9  H   UNL     1      -1.738  -1.197   1.435  0.00  0.00    +0.151 HD
ENDROOT
BRANCH   1  13
ATOM     10  C   UNL     1       1.127   1.919  -1.266  0.00  0.00    +0.135 A 
ATOM     11  C   UNL     1       1.505   1.537  -0.018  0.00  0.00    +0.050 A 
ATOM     12  C   UNL     1       0.556   0.593   0.422  0.00  0.00    +0.047 A 
ATOM     13  C   UNL     1      -0.344   0.447  -0.569  0.00  0.00    +0.127 A 
ATOM     14  O   UNL     1       0.004   1.250  -1.588  0.00  0.00    -0.458 OA
BRANCH  10  17
ATOM     15  C   UNL     1       3.638   4.439  -2.471  0.00  0.00    +0.003 A 
ATOM     16  C   UNL     1       2.986   3.529  -1.664  0.00  0.00    +0.012 A 
ATOM     17  C   UNL     1       1.827   2.899  -2.123  0.00  0.00    +0.019 A 
ATOM     18  C   UNL     1       1.331   3.203  -3.392  0.00  0.00    +0.044 A 
ATOM     19  C   UNL     1       1.989   4.119  -4.186  0.00  0.00    +0.127 A 
ATOM     20  C   UNL     1       3.140   4.736  -3.727  0.00  0.00    +0.033 A 
BRANCH  19  21
ATOM     21  N   UNL     1       1.464   4.443  -5.531  0.00  0.00    +0.056 N 
ATOM     22  O   UNL     1       0.451   3.901  -5.936  0.00  0.00    -0.126 OA
ATOM     23  O   UNL     1       2.044   5.251  -6.233  0.00  0.00    -0.126 OA
ENDBRANCH  19  21
ENDBRANCH  10  17
ENDBRANCH   1  13
BRANCH   3  24
ATOM     24  C   UNL     1       0.852  -1.279  -2.087  0.00  0.00    +0.436 C 
ATOM     25  F   UNL     1       1.261  -0.915  -0.800  0.00  0.00    -0.166 F 
ATOM     26  F   UNL     1       1.868  -2.011  -2.711  0.00  0.00    -0.166 F 
ATOM     27  F   UNL     1       0.582  -0.127  -2.834  0.00  0.00    -0.166 F 
ENDBRANCH   3  24
BRANCH   3  28
ATOM     28  O   UNL     1      -0.533  -2.936  -3.175  0.00  0.00    -0.364 OA
ATOM     29  H   UNL     1       0.210  -3.537  -3.321  0.00  0.00    +0.212 HD
ENDBRANCH   3  28
BRANCH   2  30
ATOM     30  C   UNL     1      -2.892  -2.065  -1.880  0.00  0.00    +0.173 C 
ATOM     31  O   UNL     1      -2.865  -3.204  -1.463  0.00  0.00    -0.292 OA
BRANCH  30  32
ATOM     32  C   UNL     1      -4.148  -1.501  -2.398  0.00  0.00    +0.018 A 
ATOM     33  C   UNL     1      -4.184  -0.186  -2.874  0.00  0.00    +0.013 A 
ATOM     34  C   UNL     1      -5.363   0.334  -3.363  0.00  0.00    +0.020 A 
ATOM     35  C   UNL     1      -6.513  -0.438  -3.374  0.00  0.00    +0.041 A 
ATOM     36  C   UNL     1      -6.486  -1.740  -2.899  0.00  0.00    +0.020 A 
ATOM     37  C   UNL     1      -5.313  -2.275  -2.412  0.00  0.00    +0.013 A 
ATOM     38 CL   UNL     1      -7.995   0.228  -3.985  0.00  0.00    -0.084 Cl
ENDBRANCH  30  32
ENDBRANCH   2  30
TORSDOF 7
