REMARK  Name = ZINC06931971
REMARK  3 active torsions:
REMARK  status: ('A' for Active; 'I' for Inactive)
REMARK    1  A    between atoms: C_7  and  C_11
REMARK    2  A    between atoms: C_13  and  O_25
REMARK    3  A    between atoms: N_16  and  C_17
REMARK                            x       y       z     vdW  Elec       q    Type
REMARK                         _______ _______ _______ _____ _____    ______ ____
ROOT
ATOM      1  C   UNL     1      -6.798   1.834   2.958  0.00  0.00    +0.030 C 
ATOM      2  C   UNL     1      -5.681   1.965   2.183  0.00  0.00    +0.078 C 
ATOM      3  C   UNL     1      -4.602   2.887   2.292  0.00  0.00    +0.229 C 
ATOM      4  N   UNL     1      -3.640   2.818   1.427  0.00  0.00    -0.186 NA
ATOM      5  C   UNL     1      -3.642   1.901   0.440  0.00  0.00    +0.197 C 
ATOM      6  N   UNL     1      -2.744   1.701  -0.513  0.00  0.00    -0.222 NA
ATOM      7  S   UNL     1      -5.173   1.031   0.744  0.00  0.00    -0.045 S 
ENDROOT
BRANCH   1  14
ATOM      8  C   UNL     1     -11.223   1.361   4.311  0.00  0.00    +0.001 A 
ATOM      9  C   UNL     1     -11.864   0.334   3.634  0.00  0.00    +0.002 A 
ATOM     10  C   UNL     1     -11.195  -0.402   2.680  0.00  0.00    +0.026 A 
ATOM     11  C   UNL     1      -9.860  -0.127   2.400  0.00  0.00    +0.047 A 
ATOM     12  C   UNL     1      -9.213   0.910   3.089  0.00  0.00    +0.007 A 
ATOM     13  C   UNL     1      -9.903   1.652   4.043  0.00  0.00    +0.010 A 
ATOM     14  C   UNL     1      -7.833   0.946   2.567  0.00  0.00    +0.001 A 
ATOM     15  C   UNL     1      -7.749  -0.058   1.627  0.00  0.00    +0.091 A 
ATOM     16  N   UNL     1      -8.947  -0.689   1.531  0.00  0.00    -0.360 N 
ATOM     17  H   UNL     1      -9.134  -1.432   0.936  0.00  0.00    +0.165 HD
ENDBRANCH   1  14
BRANCH   6  18
ATOM     18  C   UNL     1      -1.631   2.487  -0.578  0.00  0.00    +0.067 A 
ATOM     19  C   UNL     1      -0.375   1.910  -0.791  0.00  0.00    +0.029 A 
ATOM     20  C   UNL     1       0.746   2.711  -0.861  0.00  0.00    +0.022 A 
ATOM     21  C   UNL     1       0.630   4.083  -0.715  0.00  0.00    +0.041 A 
ATOM     22  C   UNL     1      -0.610   4.661  -0.498  0.00  0.00    +0.022 A 
ATOM     23  C   UNL     1      -1.739   3.873  -0.426  0.00  0.00    +0.029 A 
ATOM     24 CL   UNL     1       2.045   5.084  -0.804  0.00  0.00    -0.084 Cl
ENDBRANCH   6  18
BRANCH   3  25
ATOM     25  O   UNL     1      -4.581   3.815   3.276  0.00  0.00    -0.492 OA
ATOM     26  H   UNL     1      -3.804   4.390   3.259  0.00  0.00    +0.294 HD
ENDBRANCH   3  25
TORSDOF 3
