REMARK  Name = ZINC34245013
REMARK  10 active torsions:
REMARK  status: ('A' for Active; 'I' for Inactive)
REMARK    1  A    between atoms: C_3  and  O_38
REMARK    2  A    between atoms: C_6  and  C_7
REMARK    3  A    between atoms: C_8  and  O_20
REMARK    4  A    between atoms: C_12  and  O_19
REMARK    5  A    between atoms: C_14  and  O_18
REMARK    6  A    between atoms: O_20  and  C_21
REMARK    7  A    between atoms: C_23  and  O_37
REMARK    8  A    between atoms: C_25  and  O_36
REMARK    9  A    between atoms: C_27  and  O_35
REMARK   10  A    between atoms: C_29  and  C_32
REMARK                            x       y       z     vdW  Elec       q    Type
REMARK                         _______ _______ _______ _____ _____    ______ ____
ROOT
ATOM      1  C   UNL     1      -1.249  -0.659   0.180  0.00  0.00    +0.181 A 
ATOM      2  C   UNL     1      -1.129  -2.005   0.007  0.00  0.00    +0.214 A 
ATOM      3  C   UNL     1      -2.298  -2.802  -0.093  0.00  0.00    +0.238 A 
ATOM      4  O   UNL     1      -2.230  -4.011  -0.248  0.00  0.00    -0.283 OA
ATOM      5  C   UNL     1      -3.596  -2.115  -0.004  0.00  0.00    +0.109 A 
ATOM      6  C   UNL     1      -4.802  -2.824  -0.092  0.00  0.00    +0.135 A 
ATOM      7  C   UNL     1      -6.001  -2.143  -0.003  0.00  0.00    +0.091 A 
ATOM      8  C   UNL     1      -6.009  -0.763   0.174  0.00  0.00    +0.124 A 
ATOM      9  C   UNL     1      -4.821  -0.055   0.262  0.00  0.00    +0.092 A 
ATOM     10  C   UNL     1      -3.607  -0.721   0.175  0.00  0.00    +0.147 A 
ATOM     11  O   UNL     1      -2.442  -0.046   0.266  0.00  0.00    -0.451 OA
ENDROOT
BRANCH   1  17
ATOM     12  C   UNL     1       1.008  -0.010  -0.644  0.00  0.00    +0.015 A 
ATOM     13  C   UNL     1       2.151   0.754  -0.544  0.00  0.00    +0.046 A 
ATOM     14  C   UNL     1       2.277   1.687   0.478  0.00  0.00    +0.117 A 
ATOM     15  C   UNL     1       1.254   1.855   1.403  0.00  0.00    +0.046 A 
ATOM     16  C   UNL     1       0.108   1.096   1.310  0.00  0.00    +0.015 A 
ATOM     17  C   UNL     1      -0.024   0.156   0.284  0.00  0.00    +0.021 A 
BRANCH  14  18
ATOM     18  O   UNL     1       3.405   2.437   0.573  0.00  0.00    -0.507 OA
ATOM     19  H   UNL     1       3.366   3.270   0.084  0.00  0.00    +0.292 HD
ENDBRANCH  14  18
ENDBRANCH   1  17
BRANCH   8  20
ATOM     20  O   UNL     1      -7.192  -0.103   0.260  0.00  0.00    -0.507 OA
ATOM     21  H   UNL     1      -7.534  -0.025   1.161  0.00  0.00    +0.292 HD
ENDBRANCH   8  20
BRANCH   6  22
ATOM     22  O   UNL     1      -4.792  -4.170  -0.266  0.00  0.00    -0.506 OA
ATOM     23  H   UNL     1      -4.787  -4.673   0.560  0.00  0.00    +0.292 HD
ENDBRANCH   6  22
BRANCH   2  24
ATOM     24  O   UNL     1       0.102  -2.580  -0.069  0.00  0.00    -0.453 OA
BRANCH  24  25
ATOM     25  C   UNL     1       0.438  -3.530   0.944  0.00  0.00    +0.340 C 
ATOM     26  C   UNL     1       1.680  -4.316   0.516  0.00  0.00    +0.214 C 
ATOM     27  C   UNL     1       2.861  -3.351   0.374  0.00  0.00    +0.180 C 
ATOM     28  C   UNL     1       3.068  -2.616   1.702  0.00  0.00    +0.186 C 
ATOM     29  C   UNL     1       1.772  -1.896   2.085  0.00  0.00    +0.266 C 
ATOM     30  O   UNL     1       0.708  -2.846   2.170  0.00  0.00    -0.322 OA
BRANCH  29  31
ATOM     31  C   UNL     1       1.948  -1.219   3.420  0.00  0.00    +0.387 C 
ATOM     32  O   UNL     1       2.748  -0.306   3.539  0.00  0.00    -0.243 OA
ATOM     33  O   UNL     1       1.292  -1.584   4.380  0.00  0.00    -0.243 OA
ENDBRANCH  29  31
BRANCH  28  34
ATOM     34  O   UNL     1       3.411  -3.557   2.721  0.00  0.00    -0.386 OA
ATOM     35  H   UNL     1       3.557  -3.160   3.591  0.00  0.00    +0.210 HD
ENDBRANCH  28  34
BRANCH  27  36
ATOM     36  O   UNL     1       4.042  -4.085   0.044  0.00  0.00    -0.386 OA
ATOM     37  H   UNL     1       4.830  -3.535  -0.061  0.00  0.00    +0.210 HD
ENDBRANCH  27  36
BRANCH  26  38
ATOM     38  O   UNL     1       1.984  -5.304   1.502  0.00  0.00    -0.383 OA
ATOM     39  H   UNL     1       1.311  -5.992   1.590  0.00  0.00    +0.210 HD
ENDBRANCH  26  38
ENDBRANCH  24  25
ENDBRANCH   2  24
TORSDOF 10
