REMARK  Name = ZINC18198955
REMARK  8 active torsions:
REMARK  status: ('A' for Active; 'I' for Inactive)
REMARK    1  A    between atoms: C_1  and  C_2
REMARK    2  A    between atoms: C_5  and  C_9
REMARK    3  A    between atoms: C_7  and  C_8
REMARK    4  A    between atoms: C_14  and  C_19
REMARK    5  A    between atoms: C_22  and  O_27
REMARK    6  A    between atoms: C_23  and  O_25
REMARK    7  A    between atoms: O_25  and  C_26
REMARK    8  A    between atoms: O_27  and  C_28
REMARK                            x       y       z     vdW  Elec       q    Type
REMARK                         _______ _______ _______ _____ _____    ______ ____
ROOT
ATOM      1  C   UNL     1      -0.086   3.780  -0.603  0.00  0.00    +0.175 C 
ATOM      2  C   UNL     1       1.174   3.012  -0.268  0.00  0.00    +0.041 C 
ATOM      3  C   UNL     1       1.157   1.689   0.000  0.00  0.00    +0.020 C 
ATOM      4  C   UNL     1       2.436   0.943   0.303  0.00  0.00    +0.060 C 
ATOM      5  C   UNL     1       3.423   1.879   1.003  0.00  0.00    +0.032 C 
ATOM      6  C   UNL     1       3.688   3.076   0.083  0.00  0.00    +0.088 C 
ATOM      7  C   UNL     1       2.379   3.737  -0.250  0.00  0.00    +0.164 C 
ATOM      8  O   UNL     1       2.363   4.924  -0.509  0.00  0.00    -0.292 OA
ATOM      9  N   UNL     1      -0.011   0.966   0.007  0.00  0.00    -0.287 N 
ATOM     10  C   UNL     1      -1.208   1.663   0.017  0.00  0.00    +0.220 A 
ATOM     11  N   UNL     1      -1.259   2.988  -0.259  0.00  0.00    -0.219 N 
ATOM     12  N   UNL     1      -2.596   3.368  -0.147  0.00  0.00    -0.132 NA
ATOM     13  C   UNL     1      -3.272   2.288   0.165  0.00  0.00    +0.233 A 
ATOM     14  N   UNL     1      -2.422   1.255   0.270  0.00  0.00    -0.180 NA
ATOM     15  N   UNL     1      -4.651   2.226   0.370  0.00  0.00    -0.326 N 
ATOM     16  H   UNL     1       0.002  -0.004   0.002  0.00  0.00    +0.155 HD
ATOM     17  H   UNL     1      -5.069   1.384   0.608  0.00  0.00    +0.145 HD
ATOM     18  H   UNL     1      -5.191   3.026   0.273  0.00  0.00    +0.145 HD
ENDROOT
BRANCH   1  23
ATOM     19  C   UNL     1      -0.162   4.962  -6.260  0.00  0.00    +0.044 C 
ATOM     20  C   UNL     1      -0.142   4.654  -4.784  0.00  0.00    -0.048 A 
ATOM     21  C   UNL     1      -0.103   3.341  -4.353  0.00  0.00    +0.004 A 
ATOM     22  C   UNL     1      -0.080   3.058  -3.000  0.00  0.00    +0.006 A 
ATOM     23  C   UNL     1      -0.106   4.088  -2.078  0.00  0.00    -0.018 A 
ATOM     24  C   UNL     1      -0.144   5.401  -2.510  0.00  0.00    +0.009 A 
ATOM     25  C   UNL     1      -0.163   5.683  -3.863  0.00  0.00    -0.047 A 
ATOM     26  C   UNL     1      -0.205   7.114  -4.333  0.00  0.00    +0.044 C 
ENDBRANCH   1  23
BRANCH   5  27
ATOM     27  C   UNL     1       4.713   1.149   1.270  0.00  0.00    -0.040 A 
ATOM     28  C   UNL     1       5.439   0.622   0.217  0.00  0.00    +0.008 A 
ATOM     29  C   UNL     1       6.626  -0.044   0.457  0.00  0.00    +0.049 A 
ATOM     30  C   UNL     1       7.086  -0.195   1.755  0.00  0.00    +0.161 A 
ATOM     31  C   UNL     1       6.353   0.330   2.815  0.00  0.00    +0.162 A 
ATOM     32  C   UNL     1       5.167   1.002   2.568  0.00  0.00    +0.053 A 
BRANCH  31  33
ATOM     33  O   UNL     1       6.801   0.184   4.091  0.00  0.00    -0.491 OA
ATOM     34  C   UNL     1       5.997   0.749   5.129  0.00  0.00    +0.277 C 
ENDBRANCH  31  33
BRANCH  30  35
ATOM     35  O   UNL     1       8.251  -0.856   1.993  0.00  0.00    -0.491 OA
ATOM     36  C   UNL     1       8.950  -1.368   0.857  0.00  0.00    +0.277 C 
ENDBRANCH  30  35
ENDBRANCH   5  27
TORSDOF 4
