REMARK  Name = ZINC40812397
REMARK  4 active torsions:
REMARK  status: ('A' for Active; 'I' for Inactive)
REMARK    1  A    between atoms: C_1  and  C_2
REMARK    2  A    between atoms: C_6  and  C_7
REMARK    3  A    between atoms: N_19  and  N_20
REMARK    4  A    between atoms: C_21  and  C_23
REMARK                            x       y       z     vdW  Elec       q    Type
REMARK                         _______ _______ _______ _____ _____    ______ ____
ROOT
ATOM      1  C   UNL     1       0.546   1.437   0.014  0.00  0.00    +0.048 C 
ATOM      2  C   UNL     1       0.194  -0.028   0.004  0.00  0.00    +0.009 A 
ATOM      3  C   UNL     1       0.037  -0.847  -1.122  0.00  0.00    +0.042 A 
ATOM      4  C   UNL     1      -0.283  -2.107  -0.674  0.00  0.00    +0.115 A 
ATOM      5  O   UNL     1      -0.319  -2.073   0.656  0.00  0.00    -0.454 OA
ATOM      6  C   UNL     1      -0.029  -0.826   1.091  0.00  0.00    +0.193 A 
ATOM      7  C   UNL     1      -0.536  -3.267  -1.602  0.00  0.00    +0.075 C 
ATOM      8  C   UNL     1      -0.887  -2.738  -2.995  0.00  0.00    +0.014 C 
ATOM      9  C   UNL     1       0.180  -1.752  -3.483  0.00  0.00    +0.058 C 
ATOM     10  C   UNL     1       0.164  -0.540  -2.564  0.00  0.00    +0.070 C 
ATOM     11  N   UNL     1       0.256   0.675  -3.011  0.00  0.00    -0.184 NA
ENDROOT
BRANCH   6  12
ATOM     12  C   UNL     1       0.032  -0.399   2.493  0.00  0.00    +0.282 C 
ATOM     13  O   UNL     1       0.154   0.780   2.766  0.00  0.00    -0.267 OA
ATOM     14  N   UNL     1      -0.048  -1.314   3.480  0.00  0.00    -0.295 N 
ATOM     15  C   UNL     1      -0.026  -2.751   3.172  0.00  0.00    +0.108 C 
ATOM     16  C   UNL     1       1.078  -3.416   3.999  0.00  0.00    +0.019 C 
ATOM     17  C   UNL     1       0.866  -3.094   5.480  0.00  0.00    +0.003 C 
ATOM     18  C   UNL     1       0.949  -1.580   5.691  0.00  0.00    +0.019 C 
ATOM     19  C   UNL     1      -0.151  -0.894   4.884  0.00  0.00    +0.108 C 
ENDBRANCH   6  12
BRANCH  11  20
ATOM     20  N   UNL     1       0.374   0.907  -4.388  0.00  0.00    -0.203 N 
ATOM     21  C   UNL     1       0.469   2.168  -4.853  0.00  0.00    +0.266 C 
ATOM     22  O   UNL     1       0.452   3.105  -4.078  0.00  0.00    -0.268 OA
ATOM     23  H   UNL     1       0.388   0.160  -5.006  0.00  0.00    +0.178 HD
BRANCH  21  24
ATOM     24  C   UNL     1       0.595   2.413  -6.304  0.00  0.00    +0.073 A 
ATOM     25  C   UNL     1       0.609   1.339  -7.198  0.00  0.00    +0.016 A 
ATOM     26  C   UNL     1       0.726   1.575  -8.551  0.00  0.00    +0.001 A 
ATOM     27  C   UNL     1       0.829   2.871  -9.027  0.00  0.00    +0.003 A 
ATOM     28  C   UNL     1       0.816   3.939  -8.150  0.00  0.00    +0.039 A 
ATOM     29  C   UNL     1       0.694   3.720  -6.790  0.00  0.00    +0.136 A 
ATOM     30  F   UNL     1       0.675   4.765  -5.934  0.00  0.00    -0.205 F 
ENDBRANCH  21  24
ENDBRANCH  11  20
TORSDOF 3
