REMARK  Name = ZINC12536991
REMARK  7 active torsions:
REMARK  status: ('A' for Active; 'I' for Inactive)
REMARK    1  A    between atoms: C_1  and  C_2
REMARK    2  A    between atoms: C_2  and  C_29
REMARK    3  A    between atoms: C_6  and  C_18
REMARK    4  A    between atoms: C_11  and  S_15
REMARK    5  A    between atoms: S_15  and  C_16
REMARK    6  A    between atoms: C_23  and  O_24
REMARK    7  A    between atoms: O_24  and  C_25
REMARK                            x       y       z     vdW  Elec       q    Type
REMARK                         _______ _______ _______ _____ _____    ______ ____
ROOT
ATOM      1  C   UNL     1       5.637   4.841  -2.841  0.00  0.00    +0.011 C 
ATOM      2  C   UNL     1       4.946   3.640  -3.489  0.00  0.00    -0.023 C 
ATOM      3  C   UNL     1       4.999   2.442  -2.540  0.00  0.00    +0.058 C 
ATOM      4  C   UNL     1       4.265   2.772  -1.263  0.00  0.00    +0.017 C 
ATOM      5  C   UNL     1       3.210   3.615  -1.266  0.00  0.00    +0.024 C 
ATOM      6  C   UNL     1       2.456   3.933   0.000  0.00  0.00    +0.094 C 
ATOM      7  C   UNL     1       3.250   3.568   1.218  0.00  0.00    +0.044 A 
ATOM      8  C   UNL     1       2.911   4.082   2.467  0.00  0.00    +0.126 A 
ATOM      9  N   UNL     1       3.638   3.731   3.525  0.00  0.00    -0.207 NA
ATOM     10  C   UNL     1       4.668   2.906   3.400  0.00  0.00    +0.191 A 
ATOM     11  N   UNL     1       5.017   2.401   2.225  0.00  0.00    -0.206 NA
ATOM     12  C   UNL     1       4.336   2.709   1.126  0.00  0.00    +0.133 A 
ATOM     13  N   UNL     1       4.697   2.187  -0.104  0.00  0.00    -0.302 N 
ATOM     14  N   UNL     1       1.836   4.945   2.605  0.00  0.00    -0.343 N 
ATOM     15  C   UNL     1       2.780   4.229  -2.455  0.00  0.00    +0.162 C 
ATOM     16  O   UNL     1       1.825   4.980  -2.425  0.00  0.00    -0.292 OA
ATOM     17  C   UNL     1       3.477   3.977  -3.764  0.00  0.00    +0.086 C 
ATOM     18  C   UNL     1       5.649   3.289  -4.802  0.00  0.00    +0.011 C 
ATOM     19  H   UNL     1       5.260   1.398  -0.145  0.00  0.00    +0.153 HD
ATOM     20  H   UNL     1       1.312   5.196   1.828  0.00  0.00    +0.144 HD
ATOM     21  H   UNL     1       1.607   5.299   3.479  0.00  0.00    +0.144 HD
ENDROOT
BRANCH   6  22
ATOM     22  C   UNL     1       1.160   3.164   0.008  0.00  0.00    +0.006 A 
ATOM     23  C   UNL     1       1.176   1.782   0.000  0.00  0.00    +0.008 A 
ATOM     24  C   UNL     1      -0.013   1.076   0.008  0.00  0.00    +0.001 A 
ATOM     25  C   UNL     1      -1.220   1.750   0.017  0.00  0.00    +0.004 A 
ATOM     26  C   UNL     1      -1.242   3.131   0.031  0.00  0.00    +0.046 A 
ATOM     27  C   UNL     1      -0.050   3.842   0.023  0.00  0.00    +0.124 A 
BRANCH  27  28
ATOM     28  O   UNL     1      -0.069   5.201   0.031  0.00  0.00    -0.495 OA
ATOM     29  C   UNL     1      -1.350   5.832   0.047  0.00  0.00    +0.277 C 
ENDBRANCH  27  28
ENDBRANCH   6  22
BRANCH  10  30
ATOM     30  S   UNL     1       5.596   2.470   4.832  0.00  0.00    -0.089 S 
ATOM     31  C   UNL     1       4.700   3.417   6.088  0.00  0.00    +0.093 C 
ENDBRANCH  10  30
TORSDOF 3
