REMARK  Name = ZINC10355132
REMARK  11 active torsions:
REMARK  status: ('A' for Active; 'I' for Inactive)
REMARK    1  A    between atoms: C_1  and  C_2
REMARK    2  A    between atoms: C_2  and  O_3
REMARK    3  A    between atoms: O_3  and  C_4
REMARK    4  A    between atoms: C_6  and  C_11
REMARK    5  A    between atoms: C_9  and  O_10
REMARK    6  A    between atoms: C_13  and  C_28
REMARK    7  A    between atoms: C_14  and  C_27
REMARK    8  A    between atoms: N_15  and  C_19
REMARK    9  A    between atoms: C_24  and  O_25
REMARK   10  A    between atoms: O_25  and  C_26
REMARK   11  A    between atoms: C_33  and  C_36
REMARK                            x       y       z     vdW  Elec       q    Type
REMARK                         _______ _______ _______ _____ _____    ______ ____
ROOT
ATOM      1  C   UNL     1       3.106  -4.328   0.045  0.00  0.00    +0.139 C 
ATOM      2  C   UNL     1       1.617  -4.059  -0.029  0.00  0.00    +0.056 C 
ATOM      3  C   UNL     1       0.787  -5.124  -0.062  0.00  0.00    +0.025 C 
ATOM      4  N   UNL     1       1.275  -6.399  -0.024  0.00  0.00    -0.252 N 
ATOM      5  C   UNL     1       2.579  -6.694   0.048  0.00  0.00    +0.142 C 
ATOM      6  S   UNL     1       3.056  -8.337   0.089  0.00  0.00    -0.018 S 
ATOM      7  N   UNL     1       3.528  -5.738   0.088  0.00  0.00    -0.315 N 
ATOM      8  C   UNL     1      -0.702  -4.901  -0.142  0.00  0.00    +0.062 C 
ATOM      9  H   UNL     1       4.468  -5.974   0.140  0.00  0.00    +0.149 HD
ENDROOT
BRANCH   2  10
ATOM     10  C   UNL     1       1.113  -2.736  -0.070  0.00  0.00    +0.249 C 
ATOM     11  O   UNL     1       1.139  -2.044   0.932  0.00  0.00    -0.270 OA
ATOM     12  N   UNL     1       0.604  -2.244  -1.216  0.00  0.00    -0.264 N 
ATOM     13  C   UNL     1      -0.000  -0.988  -1.227  0.00  0.00    +0.168 A 
ATOM     14  C   UNL     1      -0.159  -0.108  -0.123  0.00  0.00    +0.091 A 
ATOM     15  C   UNL     1      -0.797   0.963  -0.649  0.00  0.00    +0.136 A 
ATOM     16  O   UNL     1      -0.981   0.699  -1.950  0.00  0.00    -0.358 OA
ATOM     17  N   UNL     1      -0.535  -0.383  -2.256  0.00  0.00    -0.063 NA
ATOM     18  C   UNL     1      -1.225   2.206   0.087  0.00  0.00    +0.089 C 
ATOM     19  H   UNL     1       0.658  -2.763  -2.034  0.00  0.00    +0.157 HD
ENDBRANCH   2  10
BRANCH   1  22
ATOM     20  C   UNL     1       4.923  -1.829  -2.129  0.00  0.00    +0.162 A 
ATOM     21  C   UNL     1       4.321  -2.424  -1.032  0.00  0.00    +0.055 A 
ATOM     22  C   UNL     1       3.756  -3.680  -1.151  0.00  0.00    -0.019 A 
ATOM     23  C   UNL     1       3.779  -4.340  -2.365  0.00  0.00    +0.009 A 
ATOM     24  C   UNL     1       4.372  -3.750  -3.465  0.00  0.00    +0.049 A 
ATOM     25  C   UNL     1       4.946  -2.493  -3.352  0.00  0.00    +0.158 A 
BRANCH  25  26
ATOM     26  O   UNL     1       5.530  -1.911  -4.433  0.00  0.00    -0.503 OA
ATOM     27  H   UNL     1       4.927  -1.370  -4.962  0.00  0.00    +0.292 HD
ENDBRANCH  25  26
BRANCH  20  28
ATOM     28  O   UNL     1       5.484  -0.596  -2.013  0.00  0.00    -0.489 OA
BRANCH  28  30
ATOM     29  C   UNL     1       6.101   1.396  -0.792  0.00  0.00    +0.048 C 
ATOM     30  C   UNL     1       5.423   0.026  -0.728  0.00  0.00    +0.226 C 
ENDBRANCH  28  30
ENDBRANCH  20  28
ENDBRANCH   1  22
BRANCH   4  31
ATOM     31  C   UNL     1       0.358  -7.460  -0.061  0.00  0.00    +0.082 A 
ATOM     32  C   UNL     1      -0.039  -7.994  -1.278  0.00  0.00    +0.027 A 
ATOM     33  C   UNL     1      -0.938  -9.043  -1.311  0.00  0.00    +0.002 A 
ATOM     34  C   UNL     1      -1.453  -9.555  -0.135  0.00  0.00    +0.004 A 
ATOM     35  C   UNL     1      -1.067  -9.024   1.082  0.00  0.00    +0.047 A 
ATOM     36  C   UNL     1      -0.161  -7.976   1.125  0.00  0.00    +0.142 A 
BRANCH  36  37
ATOM     37  O   UNL     1       0.219  -7.452   2.320  0.00  0.00    -0.493 OA
ATOM     38  C   UNL     1      -0.354  -8.031   3.494  0.00  0.00    +0.277 C 
ENDBRANCH  36  37
ENDBRANCH   4  31
TORSDOF 7
