REMARK  Name = ZINC03595120
REMARK  6 active torsions:
REMARK  status: ('A' for Active; 'I' for Inactive)
REMARK    1  A    between atoms: C_1  and  C_2
REMARK    2  A    between atoms: C_5  and  C_29
REMARK    3  A    between atoms: C_10  and  C_12
REMARK    4  A    between atoms: C_12  and  N_13
REMARK    5  A    between atoms: C_16  and  C_20
REMARK    6  A    between atoms: C_16  and  C_21
REMARK                            x       y       z     vdW  Elec       q    Type
REMARK                         _______ _______ _______ _____ _____    ______ ____
ROOT
ATOM      1  N   UNL     1      -4.586  -0.628  -3.253  0.00  0.00    -0.215 N 
ATOM      2  C   UNL     1      -4.480  -1.963  -3.410  0.00  0.00    +0.251 C 
ATOM      3  O   UNL     1      -4.055  -2.763  -2.605  0.00  0.00    -0.272 OA
ATOM      4  C   UNL     1      -5.002  -2.254  -4.803  0.00  0.00    +0.136 C 
ATOM      5  N   UNL     1      -5.376  -0.926  -5.318  0.00  0.00    -0.281 N 
ATOM      6  C   UNL     1      -5.102  -0.043  -4.340  0.00  0.00    +0.310 C 
ATOM      7  O   UNL     1      -5.297   1.153  -4.435  0.00  0.00    -0.252 OA
ATOM      8  C   UNL     1      -3.905  -2.877  -5.669  0.00  0.00    +0.047 C 
ATOM      9  H   UNL     1      -5.792  -0.826  -6.331  0.00  0.00    +0.152 HD
ENDROOT
BRANCH   4  10
ATOM     10  C   UNL     1      -6.206  -3.158  -4.740  0.00  0.00    +0.003 A 
ATOM     11  C   UNL     1      -7.418  -2.730  -5.250  0.00  0.00    +0.009 A 
ATOM     12  C   UNL     1      -8.523  -3.558  -5.192  0.00  0.00    +0.020 A 
ATOM     13  C   UNL     1      -8.417  -4.815  -4.623  0.00  0.00    +0.042 A 
ATOM     14  C   UNL     1      -7.205  -5.243  -4.113  0.00  0.00    +0.040 A 
ATOM     15  C   UNL     1      -6.098  -4.416  -4.176  0.00  0.00    +0.048 A 
ATOM     16 CL   UNL     1      -4.574  -4.956  -3.543  0.00  0.00    -0.083 Cl
ATOM     17 CL   UNL     1      -9.806  -5.855  -4.551  0.00  0.00    -0.083 Cl
ENDBRANCH   4  10
BRANCH   1  18
ATOM     18  C   UNL     1      -4.192   0.092  -2.040  0.00  0.00    +0.213 C 
BRANCH  18  26
ATOM     19  C   UNL     1      -2.863   1.490   2.567  0.00  0.00    +0.009 C 
ATOM     20  C   UNL     1      -2.156   1.023   1.294  0.00  0.00    +0.004 C 
ATOM     21  C   UNL     1      -0.730   1.580   1.266  0.00  0.00    +0.009 C 
ATOM     22  C   UNL     1      -0.013   1.086   0.008  0.00  0.00    +0.004 C 
ATOM     23  C   UNL     1      -0.755   1.594  -1.232  0.00  0.00    +0.111 C 
ATOM     24  N   UNL     1      -2.163   1.185  -1.141  0.00  0.00    -0.300 N 
ATOM     25  C   UNL     1      -2.923   1.530   0.068  0.00  0.00    +0.111 C 
ATOM     26  C   UNL     1      -2.747   0.504  -2.148  0.00  0.00    +0.234 C 
ATOM     27  O   UNL     1      -2.109   0.225  -3.141  0.00  0.00    -0.274 OA
ATOM     28  C   UNL     1       1.422   1.616  -0.003  0.00  0.00    +0.009 C 
ENDBRANCH  18  26
ENDBRANCH   1  18
TORSDOF 3
