REMARK  Name = ZINC09150767
REMARK  9 active torsions:
REMARK  status: ('A' for Active; 'I' for Inactive)
REMARK    1  A    between atoms: C_1  and  C_2
REMARK    2  A    between atoms: N_8  and  C_22
REMARK    3  A    between atoms: N_10  and  C_11
REMARK    4  A    between atoms: C_11  and  C_13
REMARK    5  A    between atoms: C_16  and  S_19
REMARK    6  A    between atoms: S_19  and  C_20
REMARK    7  A    between atoms: C_22  and  C_23
REMARK    8  A    between atoms: C_23  and  O_24
REMARK    9  A    between atoms: O_24  and  C_25
REMARK                            x       y       z     vdW  Elec       q    Type
REMARK                         _______ _______ _______ _____ _____    ______ ____
ROOT
ATOM      1  C   UNL     1       3.654  -0.816  -0.191  0.00  0.00    +0.046 C 
ATOM      2  C   UNL     1       2.354  -0.054  -0.163  0.00  0.00    -0.026 A 
ATOM      3  C   UNL     1       1.174  -0.731   0.038  0.00  0.00    +0.007 A 
ATOM      4  C   UNL     1      -0.039  -0.065   0.070  0.00  0.00    +0.021 A 
ATOM      5  C   UNL     1      -0.061   1.310  -0.103  0.00  0.00    +0.057 A 
ATOM      6  C   UNL     1       1.120   1.987  -0.304  0.00  0.00    +0.057 A 
ATOM      7  C   UNL     1       2.362   1.338  -0.342  0.00  0.00    +0.062 A 
ATOM      8  N   UNL     1       3.447   2.169  -0.553  0.00  0.00    -0.319 N 
ATOM      9  C   UNL     1       3.260   3.508  -0.705  0.00  0.00    +0.167 A 
ATOM     10  N   UNL     1       4.174   4.449  -0.913  0.00  0.00    -0.152 NA
ATOM     11  S   UNL     1       1.542   3.692  -0.562  0.00  0.00    -0.051 S 
ATOM     12 CL   UNL     1      -1.568   2.170  -0.075  0.00  0.00    -0.082 Cl
ENDROOT
BRANCH  10  13
ATOM     13  C   UNL     1       3.802   5.728  -1.040  0.00  0.00    +0.269 C 
ATOM     14  O   UNL     1       2.623   6.029  -0.965  0.00  0.00    -0.268 OA
BRANCH  13  15
ATOM     15  C   UNL     1       4.819   6.775  -1.271  0.00  0.00    +0.039 A 
ATOM     16  C   UNL     1       6.171   6.431  -1.352  0.00  0.00    +0.014 A 
ATOM     17  C   UNL     1       7.116   7.407  -1.573  0.00  0.00    +0.015 A 
ATOM     18  C   UNL     1       6.726   8.738  -1.705  0.00  0.00    +0.008 A 
ATOM     19  C   UNL     1       5.380   9.083  -1.619  0.00  0.00    +0.015 A 
ATOM     20  C   UNL     1       4.431   8.110  -1.404  0.00  0.00    +0.014 A 
BRANCH  18  21
ATOM     21  S   UNL     1       7.939   9.986  -1.981  0.00  0.00    -0.129 S 
ATOM     22  C   UNL     1       9.507   9.074  -2.016  0.00  0.00    +0.090 C 
ENDBRANCH  18  21
ENDBRANCH  13  15
ENDBRANCH  10  13
BRANCH   8  23
ATOM     23  C   UNL     1       4.799   1.607  -0.612  0.00  0.00    +0.152 C 
BRANCH  23  24
ATOM     24  C   UNL     1       5.395   1.563   0.796  0.00  0.00    +0.181 C 
BRANCH  24  25
ATOM     25  O   UNL     1       6.714   1.015   0.737  0.00  0.00    -0.381 OA
ATOM     26  C   UNL     1       7.364   0.929   2.007  0.00  0.00    +0.194 C 
ENDBRANCH  24  25
ENDBRANCH  23  24
ENDBRANCH   8  23
TORSDOF 6
