REMARK  Name = ZINC13194165
REMARK  9 active torsions:
REMARK  status: ('A' for Active; 'I' for Inactive)
REMARK    1  A    between atoms: C_1  and  C_2
REMARK    2  A    between atoms: C_2  and  O_3
REMARK    3  A    between atoms: O_3  and  C_4
REMARK    4  A    between atoms: C_7  and  C_10
REMARK    5  A    between atoms: C_12  and  C_28
REMARK    6  A    between atoms: N_16  and  C_17
REMARK    7  A    between atoms: C_19  and  C_24
REMARK    8  A    between atoms: C_22  and  C_23
REMARK    9  A    between atoms: C_28  and  C_30
REMARK                            x       y       z     vdW  Elec       q    Type
REMARK                         _______ _______ _______ _____ _____    ______ ____
ROOT
ATOM      1  C   UNL     1      -2.009  -6.082  -0.013  0.00  0.00    +0.150 C 
ATOM      2  C   UNL     1      -2.488  -6.553  -1.366  0.00  0.00    +0.077 C 
ATOM      3  C   UNL     1      -3.683  -7.156  -1.169  0.00  0.00    +0.250 C 
ATOM      4  C   UNL     1      -4.022  -7.105   0.267  0.00  0.00    +0.292 C 
ATOM      5  O   UNL     1      -5.034  -7.563   0.761  0.00  0.00    -0.266 OA
ATOM      6  N   UNL     1      -3.045  -6.478   0.949  0.00  0.00    -0.253 N 
ATOM      7  O   UNL     1      -4.448  -7.716  -2.135  0.00  0.00    -0.282 OA
ENDROOT
BRANCH   6   8
ATOM      8  C   UNL     1      -3.020  -6.245   2.327  0.00  0.00    +0.041 A 
ATOM      9  C   UNL     1      -3.570  -5.082   2.844  0.00  0.00    +0.039 A 
ATOM     10  C   UNL     1      -3.542  -4.855   4.221  0.00  0.00    +0.065 A 
ATOM     11  C   UNL     1      -2.961  -5.801   5.069  0.00  0.00    +0.015 A 
ATOM     12  C   UNL     1      -2.417  -6.955   4.544  0.00  0.00    +0.006 A 
ATOM     13  C   UNL     1      -2.449  -7.183   3.180  0.00  0.00    -0.029 A 
ATOM     14  C   UNL     1      -1.858  -8.449   2.616  0.00  0.00    +0.045 C 
BRANCH  10  15
ATOM     15  C   UNL     1      -4.125  -3.619   4.779  0.00  0.00    +0.387 C 
ATOM     16  O   UNL     1      -4.633  -2.792   4.035  0.00  0.00    -0.241 OA
ATOM     17  O   UNL     1      -4.100  -3.423   5.986  0.00  0.00    -0.241 OA
ENDBRANCH  10  15
ENDBRANCH   6   8
BRANCH   1  21
ATOM     18  C   UNL     1      -1.551  -1.833  -0.014  0.00  0.00    +0.121 A 
ATOM     19  C   UNL     1      -0.433  -2.653   0.040  0.00  0.00    +0.046 A 
ATOM     20  C   UNL     1      -0.584  -4.026   0.040  0.00  0.00    +0.009 A 
ATOM     21  C   UNL     1      -1.848  -4.584  -0.013  0.00  0.00    -0.022 A 
ATOM     22  C   UNL     1      -2.964  -3.769  -0.067  0.00  0.00    +0.009 A 
ATOM     23  C   UNL     1      -2.818  -2.396  -0.062  0.00  0.00    +0.046 A 
BRANCH  18  24
ATOM     24  O   UNL     1      -1.405  -0.482  -0.014  0.00  0.00    -0.492 OA
BRANCH  24  26
ATOM     25  C   UNL     1      -0.108   1.556   0.028  0.00  0.00    +0.048 C 
ATOM     26  C   UNL     1      -0.071   0.027   0.036  0.00  0.00    +0.225 C 
ENDBRANCH  24  26
ENDBRANCH  18  24
ENDBRANCH   1  21
BRANCH   2  27
ATOM     27  C   UNL     1      -1.792  -6.389  -2.647  0.00  0.00    +0.202 C 
ATOM     28  O   UNL     1      -2.273  -5.685  -3.517  0.00  0.00    -0.286 OA
BRANCH  27  29
ATOM     29  C   UNL     1      -0.516  -7.073  -2.881  0.00  0.00    +0.059 A 
ATOM     30  C   UNL     1       0.343  -6.976  -3.968  0.00  0.00    +0.019 A 
ATOM     31  C   UNL     1       1.477  -7.747  -3.902  0.00  0.00    +0.008 A 
ATOM     32  C   UNL     1       1.679  -8.531  -2.812  0.00  0.00    +0.046 A 
ATOM     33  S   UNL     1       0.340  -8.239  -1.840  0.00  0.00    -0.093 S 
ENDBRANCH  27  29
ENDBRANCH   2  27
TORSDOF 7
