REMARK  Name = ZINC12880832
REMARK  7 active torsions:
REMARK  status: ('A' for Active; 'I' for Inactive)
REMARK    1  A    between atoms: C_1  and  C_2
REMARK    2  A    between atoms: C_6  and  C_33
REMARK    3  A    between atoms: C_17  and  C_19
REMARK    4  A    between atoms: C_19  and  N_66
REMARK    5  A    between atoms: C_22  and  C_25
REMARK    6  A    between atoms: C_22  and  O_32
REMARK    7  A    between atoms: C_25  and  C_26
REMARK                            x       y       z     vdW  Elec       q    Type
REMARK                         _______ _______ _______ _____ _____    ______ ____
ROOT
ATOM      1  C   UNL     1      -5.513   1.304  -1.612  0.00  0.00    -0.063 C 
ENDROOT
BRANCH   1  16
ATOM      2  C   UNL     1      -9.734   0.533   0.360  0.00  0.00    +0.044 C 
ATOM      3  C   UNL     1      -8.750   1.373   1.134  0.00  0.00    -0.051 C 
ATOM      4  C   UNL     1      -8.802   1.421   2.453  0.00  0.00    -0.023 C 
ATOM      5  C   UNL     1      -7.862   2.207   3.315  0.00  0.00    +0.028 C 
ATOM      6  C   UNL     1      -7.114   3.278   2.519  0.00  0.00    +0.015 C 
ATOM      7  C   UNL     1      -6.556   2.637   1.249  0.00  0.00    -0.003 C 
ATOM      8  C   UNL     1      -7.712   2.156   0.425  0.00  0.00    -0.042 C 
ATOM      9  C   UNL     1      -7.863   2.461  -0.845  0.00  0.00    -0.015 C 
ATOM     10  C   UNL     1      -6.956   3.374  -1.585  0.00  0.00    +0.065 C 
ATOM     11  C   UNL     1      -6.183   4.314  -0.629  0.00  0.00    +0.185 C 
ATOM     12  C   UNL     1      -5.577   3.504   0.516  0.00  0.00    +0.056 C 
ATOM     13  O   UNL     1      -5.048   4.708  -1.492  0.00  0.00    -0.461 OA
ATOM     14  C   UNL     1      -4.625   3.592  -2.127  0.00  0.00    +0.309 C 
ATOM     15  O   UNL     1      -3.495   3.383  -2.501  0.00  0.00    -0.251 OA
ATOM     16  C   UNL     1      -5.801   2.644  -2.293  0.00  0.00    +0.092 C 
ATOM     17  C   UNL     1      -5.783   1.393   1.690  0.00  0.00    +0.016 C 
ENDBRANCH   1  16
BRANCH   1  23
ATOM     18  C   UNL     1      -7.085   0.387  -3.208  0.00  0.00    -0.076 C 
ATOM     19  C   UNL     1      -8.362  -0.446  -3.344  0.00  0.00    +0.016 C 
ATOM     20  C   UNL     1      -8.089  -1.873  -2.859  0.00  0.00    +0.067 C 
ATOM     21  C   UNL     1      -7.597  -1.825  -1.409  0.00  0.00    +0.016 C 
ATOM     22  C   UNL     1      -6.343  -0.952  -1.329  0.00  0.00    -0.076 C 
ATOM     23  N   UNL     1      -6.678   0.413  -1.787  0.00  0.00    +0.380 N 
ATOM     24  H   UNL     1      -7.459   0.770  -1.223  0.00  0.00    -0.082 HD
BRANCH  20  25
ATOM     25  O   UNL     1      -7.088  -2.474  -3.683  0.00  0.00    -0.388 OA
ATOM     26  H   UNL     1      -7.333  -2.536  -4.616  0.00  0.00    +0.210 HD
ENDBRANCH  20  25
BRANCH  20  27
ATOM     27  C   UNL     1      -9.376  -2.695  -2.936  0.00  0.00    +0.069 C 
BRANCH  27  28
ATOM     28  C   UNL     1      -9.859  -2.741  -4.362  0.00  0.00    -0.045 A 
ATOM     29  C   UNL     1     -10.729  -1.774  -4.829  0.00  0.00    +0.004 A 
ATOM     30  C   UNL     1     -11.168  -1.813  -6.139  0.00  0.00    +0.000 A 
ATOM     31  C   UNL     1     -10.745  -2.826  -6.980  0.00  0.00    +0.000 A 
ATOM     32  C   UNL     1      -9.878  -3.796  -6.512  0.00  0.00    +0.000 A 
ATOM     33  C   UNL     1      -9.436  -3.754  -5.203  0.00  0.00    +0.004 A 
ENDBRANCH  27  28
ENDBRANCH  20  27
ENDBRANCH   1  23
TORSDOF 5
