REMARK  Name = ZINC01372907
REMARK  10 active torsions:
REMARK  status: ('A' for Active; 'I' for Inactive)
REMARK    1  A    between atoms: C_1  and  C_2
REMARK    2  A    between atoms: C_6  and  C_15
REMARK    3  A    between atoms: C_13  and  C_14
REMARK    4  A    between atoms: C_15  and  N_16
REMARK    5  A    between atoms: N_16  and  C_17
REMARK    6  A    between atoms: N_16  and  C_27
REMARK    7  A    between atoms: C_17  and  C_18
REMARK    8  A    between atoms: C_27  and  C_28
REMARK    9  A    between atoms: N_32  and  C_33
REMARK   10  A    between atoms: C_33  and  C_34
REMARK                            x       y       z     vdW  Elec       q    Type
REMARK                         _______ _______ _______ _____ _____    ______ ____
ROOT
ATOM      1  N   UNL     1       1.489  -5.288  -4.076  0.00  0.00    -0.287 NA
ENDROOT
BRANCH   1   2
ATOM      2  C   UNL     1       0.131  -5.348  -3.518  0.00  0.00    +0.125 C 
BRANCH   2   8
ATOM      3  C   UNL     1      -0.826  -0.166   1.759  0.00  0.00    +0.044 C 
ATOM      4  C   UNL     1      -0.453  -1.566   1.344  0.00  0.00    -0.047 A 
ATOM      5  C   UNL     1      -0.498  -1.915   0.024  0.00  0.00    +0.013 A 
ATOM      6  C   UNL     1      -0.152  -3.214  -0.361  0.00  0.00    -0.001 A 
ATOM      7  C   UNL     1      -0.188  -3.623  -1.767  0.00  0.00    +0.020 A 
ATOM      8  C   UNL     1       0.159  -4.895  -2.081  0.00  0.00    +0.031 A 
ATOM      9  C   UNL     1       0.544  -5.798  -1.067  0.00  0.00    +0.254 A 
ATOM     10  O   UNL     1       0.852  -6.937  -1.371  0.00  0.00    -0.268 OA
ATOM     11  N   UNL     1       0.581  -5.432   0.227  0.00  0.00    -0.322 N 
ATOM     12  H   UNL     1       0.851  -6.078   0.898  0.00  0.00    +0.169 HD
ATOM     13  C   UNL     1       0.240  -4.153   0.612  0.00  0.00    +0.049 A 
ATOM     14  C   UNL     1       0.278  -3.774   1.950  0.00  0.00    +0.030 A 
ATOM     15  C   UNL     1      -0.062  -2.487   2.306  0.00  0.00    -0.046 A 
ATOM     16  C   UNL     1      -0.014  -2.077   3.755  0.00  0.00    +0.044 C 
ENDBRANCH   2   8
ENDBRANCH   1   2
BRANCH   1  17
ATOM     17  C   UNL     1       1.832  -3.918  -4.481  0.00  0.00    +0.120 C 
BRANCH  17  18
ATOM     18  C   UNL     1       0.874  -3.456  -5.549  0.00  0.00    -0.030 A 
ATOM     19  C   UNL     1       1.097  -3.797  -6.870  0.00  0.00    +0.009 A 
ATOM     20  C   UNL     1       0.221  -3.375  -7.853  0.00  0.00    +0.050 A 
ATOM     21  C   UNL     1      -0.883  -2.609  -7.516  0.00  0.00    +0.166 A 
ATOM     22  C   UNL     1      -1.107  -2.266  -6.185  0.00  0.00    +0.167 A 
ATOM     23  C   UNL     1      -0.229  -2.697  -5.205  0.00  0.00    +0.054 A 
ATOM     24  O   UNL     1      -2.246  -1.517  -6.114  0.00  0.00    -0.453 OA
ATOM     25  C   UNL     1      -2.492  -1.062  -7.458  0.00  0.00    +0.466 C 
ATOM     26  O   UNL     1      -1.881  -2.075  -8.279  0.00  0.00    -0.453 OA
ENDBRANCH  17  18
ENDBRANCH   1  17
BRANCH   1  27
ATOM     27  C   UNL     1       1.638  -6.223  -5.199  0.00  0.00    +0.163 C 
BRANCH  27  28
ATOM     28  C   UNL     1       3.102  -6.452  -5.471  0.00  0.00    +0.166 A 
ATOM     29  N   UNL     1       3.894  -5.691  -6.187  0.00  0.00    -0.112 NA
ATOM     30  N   UNL     1       5.068  -6.222  -6.181  0.00  0.00    -0.023 NA
ATOM     31  N   UNL     1       5.046  -7.302  -5.480  0.00  0.00    -0.044 NA
ATOM     32  N   UNL     1       3.853  -7.475  -5.021  0.00  0.00    -0.224 N 
BRANCH  32  33
ATOM     33  C   UNL     1       3.398  -8.580  -4.172  0.00  0.00    +0.182 C 
BRANCH  33  34
ATOM     34  C   UNL     1       2.910  -9.712  -5.039  0.00  0.00    -0.026 A 
ATOM     35  C   UNL     1       1.584  -9.762  -5.427  0.00  0.00    +0.008 A 
ATOM     36  C   UNL     1       1.135 -10.800  -6.223  0.00  0.00    +0.038 A 
ATOM     37  C   UNL     1       2.015 -11.788  -6.631  0.00  0.00    +0.123 A 
ATOM     38  C   UNL     1       3.342 -11.736  -6.242  0.00  0.00    +0.038 A 
ATOM     39  C   UNL     1       3.790 -10.695  -5.451  0.00  0.00    +0.008 A 
ATOM     40  F   UNL     1       1.577 -12.803  -7.409  0.00  0.00    -0.205 F 
ENDBRANCH  33  34
ENDBRANCH  32  33
ENDBRANCH  27  28
ENDBRANCH   1  27
TORSDOF 8
