REMARK  Name = ZINC43736961
REMARK  4 active torsions:
REMARK  status: ('A' for Active; 'I' for Inactive)
REMARK    1  A    between atoms: C_1  and  C_2
REMARK    2  A    between atoms: C_5  and  O_30
REMARK    3  A    between atoms: C_18  and  C_29
REMARK    4  A    between atoms: N_24  and  N_25
REMARK                            x       y       z     vdW  Elec       q    Type
REMARK                         _______ _______ _______ _____ _____    ______ ____
ROOT
ATOM      1  C   UNL     1       0.025   1.476  -0.117  0.00  0.00    +0.012 C 
ATOM      2  C   UNL     1       0.024  -0.061  -0.115  0.00  0.00    -0.026 C 
ATOM      3  C   UNL     1       0.716  -0.538  -1.397  0.00  0.00    +0.010 C 
ATOM      4  C   UNL     1       2.167  -0.061  -1.428  0.00  0.00    +0.032 C 
ATOM      5  C   UNL     1       2.916  -0.596  -0.207  0.00  0.00    +0.115 C 
ATOM      6  C   UNL     1       2.236  -0.118   1.076  0.00  0.00    +0.035 C 
ATOM      7  C   UNL     1       0.783  -0.582   1.098  0.00  0.00    -0.002 C 
ATOM      8  C   UNL     1       0.093  -0.103   2.376  0.00  0.00    +0.004 C 
ATOM      9  C   UNL     1      -1.312  -0.695   2.418  0.00  0.00    +0.004 C 
ATOM     10  C   UNL     1      -2.152  -0.257   1.211  0.00  0.00    -0.003 C 
ATOM     11  C   UNL     1      -1.424  -0.521  -0.103  0.00  0.00    -0.001 C 
ATOM     12  C   UNL     1      -1.610  -1.972  -0.529  0.00  0.00    +0.005 C 
ATOM     13  C   UNL     1      -3.059  -2.175  -1.014  0.00  0.00    +0.013 C 
ATOM     14  C   UNL     1      -3.996  -1.350  -0.164  0.00  0.00    +0.011 C 
ATOM     15  C   UNL     1      -3.410  -1.113   1.239  0.00  0.00    +0.004 C 
ATOM     16  C   UNL     1      -4.608  -0.490   1.974  0.00  0.00    +0.010 C 
ATOM     17  C   UNL     1      -5.811  -1.299   1.414  0.00  0.00    +0.053 C 
ATOM     18  C   UNL     1      -5.306  -2.037   0.180  0.00  0.00    +0.043 C 
ATOM     19  N   UNL     1      -5.848  -3.010  -0.436  0.00  0.00    -0.187 NA
ATOM     20  C   UNL     1      -4.359  -0.041  -0.869  0.00  0.00    +0.018 C 
ENDROOT
BRANCH  19  21
ATOM     21  N   UNL     1      -7.067  -3.533   0.013  0.00  0.00    -0.191 N 
ATOM     22  C   UNL     1      -7.640  -4.563  -0.640  0.00  0.00    +0.317 C 
ATOM     23  O   UNL     1      -8.699  -5.017  -0.250  0.00  0.00    -0.251 OA
ATOM     24  N   UNL     1      -7.040  -5.091  -1.725  0.00  0.00    -0.312 N 
ATOM     25  H   UNL     1      -7.499  -3.153   0.794  0.00  0.00    +0.179 HD
ATOM     26  H   UNL     1      -6.196  -4.729  -2.036  0.00  0.00    +0.147 HD
ATOM     27  H   UNL     1      -7.453  -5.832  -2.195  0.00  0.00    +0.147 HD
ENDBRANCH  19  21
BRANCH   5  28
ATOM     28  O   UNL     1       4.265  -0.124  -0.233  0.00  0.00    -0.392 OA
ATOM     29  H   UNL     1       4.762  -0.398  -1.016  0.00  0.00    +0.210 HD
ENDBRANCH   5  28
TORSDOF 2
