REMARK  Name = ZINC15140507
REMARK  11 active torsions:
REMARK  status: ('A' for Active; 'I' for Inactive)
REMARK    1  A    between atoms: C_1  and  C_2
REMARK    2  A    between atoms: C_5  and  N_30
REMARK    3  A    between atoms: C_7  and  S_8
REMARK    4  A    between atoms: S_8  and  N_11
REMARK    5  A    between atoms: C_14  and  C_17
REMARK    6  A    between atoms: N_19  and  C_20
REMARK    7  A    between atoms: C_20  and  C_21
REMARK    8  A    between atoms: C_24  and  C_27
REMARK    9  A    between atoms: C_27  and  N_63
REMARK   10  A    between atoms: C_28  and  N_63
REMARK   11  A    between atoms: C_29  and  N_63
REMARK                            x       y       z     vdW  Elec       q    Type
REMARK                         _______ _______ _______ _____ _____    ______ ____
ROOT
ATOM      1  N   UNL     1      -1.488   0.646  10.743  0.00  0.00    -0.177 NA
ATOM      2  C   UNL     1      -1.420   2.113  10.700  0.00  0.00    +0.110 C 
ATOM      3  C   UNL     1      -2.180   2.605   9.464  0.00  0.00    +0.030 C 
ATOM      4  C   UNL     1      -1.623   1.913   8.218  0.00  0.00    +0.077 C 
ATOM      5  C   UNL     1      -1.825   0.401   8.338  0.00  0.00    +0.030 C 
ATOM      6  C   UNL     1      -1.061  -0.116   9.561  0.00  0.00    +0.110 C 
ENDROOT
BRANCH   4   7
ATOM      7  C   UNL     1      -2.345   2.421   6.997  0.00  0.00    +0.216 C 
ATOM      8  O   UNL     1      -3.219   3.254   7.112  0.00  0.00    -0.276 OA
ATOM      9  N   UNL     1      -2.019   1.950   5.777  0.00  0.00    -0.311 N 
ATOM     10  H   UNL     1      -1.320   1.284   5.685  0.00  0.00    +0.149 HD
BRANCH   9  11
ATOM     11  C   UNL     1      -2.721   2.443   4.589  0.00  0.00    +0.139 C 
BRANCH  11  12
ATOM     12  C   UNL     1      -2.173   1.762   3.362  0.00  0.00    -0.030 A 
ATOM     13  C   UNL     1      -2.735   0.579   2.919  0.00  0.00    +0.005 A 
ATOM     14  C   UNL     1      -2.232  -0.045   1.792  0.00  0.00    +0.002 A 
ATOM     15  C   UNL     1      -1.168   0.514   1.109  0.00  0.00    -0.064 A 
ATOM     16  C   UNL     1      -0.603   1.693   1.556  0.00  0.00    +0.002 A 
ATOM     17  C   UNL     1      -1.108   2.320   2.680  0.00  0.00    +0.005 A 
BRANCH  15  18
ATOM     18  C   UNL     1      -0.620  -0.167  -0.118  0.00  0.00    -0.044 C 
BRANCH  18  21
ATOM     19  C   UNL     1      -0.666  -0.130  -2.539  0.00  0.00    -0.096 C 
ATOM     20  C   UNL     1      -2.738  -0.073  -1.288  0.00  0.00    -0.096 C 
ATOM     21  N   UNL     1      -1.324   0.356  -1.308  0.00  0.00    +0.379 N 
ATOM     22  H   UNL     1      -1.287   1.382  -1.293  0.00  0.00    -0.082 HD
ENDBRANCH  18  21
ENDBRANCH  15  18
ENDBRANCH  11  12
ENDBRANCH   9  11
ENDBRANCH   4   7
BRANCH   1  23
ATOM     23  S   UNL     1      -2.035  -0.134  12.098  0.00  0.00    +0.061 S 
ATOM     24  O   UNL     1      -1.396  -1.403  12.121  0.00  0.00    -0.153 OA
ATOM     25  O   UNL     1      -1.929   0.792  13.170  0.00  0.00    -0.153 OA
BRANCH  23  32
ATOM     26  C   UNL     1      -4.149   2.027  12.008  0.00  0.00    +0.046 C 
ATOM     27  C   UNL     1      -4.647   0.615  11.837  0.00  0.00    -0.024 A 
ATOM     28  C   UNL     1      -5.995   0.375  11.649  0.00  0.00    +0.007 A 
ATOM     29  C   UNL     1      -6.452  -0.921  11.499  0.00  0.00    +0.033 A 
ATOM     30  C   UNL     1      -5.560  -1.977  11.531  0.00  0.00    +0.128 A 
ATOM     31  C   UNL     1      -4.211  -1.737  11.714  0.00  0.00    +0.061 A 
ATOM     32  C   UNL     1      -3.754  -0.441  11.864  0.00  0.00    +0.111 A 
BRANCH  30  33
ATOM     33  N   UNL     1      -6.050  -3.364  11.371  0.00  0.00    +0.056 N 
ATOM     34  O   UNL     1      -5.264  -4.295  11.399  0.00  0.00    -0.126 OA
ATOM     35  O   UNL     1      -7.238  -3.576  11.210  0.00  0.00    -0.126 OA
ENDBRANCH  30  33
ENDBRANCH  23  32
ENDBRANCH   1  23
TORSDOF 8
