REMARK  Name = ZINC63362046
REMARK  10 active torsions:
REMARK  status: ('A' for Active; 'I' for Inactive)
REMARK    1  A    between atoms: C_1  and  C_2
REMARK    2  A    between atoms: C_8  and  O_13
REMARK    3  A    between atoms: O_13  and  C_14
REMARK    4  A    between atoms: N_20  and  C_23
REMARK    5  A    between atoms: C_28  and  C_29
REMARK    6  A    between atoms: N_31  and  C_32
REMARK    7  A    between atoms: C_32  and  C_33
REMARK    8  A    between atoms: C_33  and  C_34
REMARK    9  A    between atoms: C_34  and  O_35
REMARK   10  A    between atoms: O_35  and  C_36
REMARK                            x       y       z     vdW  Elec       q    Type
REMARK                         _______ _______ _______ _____ _____    ______ ____
ROOT
ATOM      1  C   UNL     1      -0.019   1.526   0.010  0.00  0.00    +0.044 C 
ATOM      2  C   UNL     1       0.002  -0.004   0.002  0.00  0.00    +0.137 C 
ATOM      3  C   UNL     1       0.719  -0.543  -1.236  0.00  0.00    +0.139 C 
ATOM      4  C   UNL     1       1.838  -1.452  -0.749  0.00  0.00    -0.034 C 
ATOM      5  C   UNL     1       1.637  -2.633  -1.327  0.00  0.00    +0.003 A 
ATOM      6  C   UNL     1       2.409  -3.884  -1.294  0.00  0.00    +0.055 A 
ATOM      7  C   UNL     1       1.905  -4.931  -2.004  0.00  0.00    +0.121 A 
ATOM      8  C   UNL     1       0.716  -4.875  -2.745  0.00  0.00    +0.047 A 
ATOM      9  C   UNL     1      -0.071  -3.773  -2.847  0.00  0.00    +0.029 A 
ATOM     10  C   UNL     1       0.373  -2.573  -2.124  0.00  0.00    +0.043 A 
ATOM     11  N   UNL     1      -0.164  -1.376  -2.056  0.00  0.00    -0.375 N 
ATOM     12  C   UNL     1       2.883  -1.028   0.254  0.00  0.00    +0.052 C 
ATOM     13  C   UNL     1       2.130  -0.431   1.460  0.00  0.00    +0.115 C 
ATOM     14  N   UNL     1       0.694  -0.542   1.192  0.00  0.00    -0.268 N 
ATOM     15  C   UNL     1      -0.238  -1.157   1.933  0.00  0.00    +0.317 C 
ATOM     16  O   UNL     1      -0.032  -1.613   3.040  0.00  0.00    -0.252 OA
ATOM     17  N   UNL     1      -1.425  -1.211   1.312  0.00  0.00    -0.192 N 
ATOM     18  C   UNL     1      -1.393  -0.576   0.122  0.00  0.00    +0.253 C 
ATOM     19  O   UNL     1      -2.295  -0.482  -0.682  0.00  0.00    -0.272 OA
ATOM     20  H   UNL     1      -0.995  -1.089  -2.466  0.00  0.00    +0.160 HD
ENDROOT
BRANCH  17  21
ATOM     21  C   UNL     1      -2.555  -1.845   1.833  0.00  0.00    +0.058 A 
ATOM     22  C   UNL     1      -3.449  -1.138   2.624  0.00  0.00    +0.025 A 
ATOM     23  C   UNL     1      -4.565  -1.767   3.138  0.00  0.00    +0.002 A 
ATOM     24  C   UNL     1      -4.802  -3.105   2.869  0.00  0.00    +0.001 A 
ATOM     25  C   UNL     1      -3.925  -3.823   2.086  0.00  0.00    +0.015 A 
ATOM     26  C   UNL     1      -2.794  -3.198   1.554  0.00  0.00    +0.059 A 
BRANCH  26  27
ATOM     27  C   UNL     1      -1.853  -3.960   0.710  0.00  0.00    +0.246 C 
ATOM     28  O   UNL     1      -0.868  -3.414   0.253  0.00  0.00    -0.270 OA
ATOM     29  N   UNL     1      -2.087  -5.260   0.444  0.00  0.00    -0.311 N 
ATOM     30  H   UNL     1      -2.874  -5.696   0.808  0.00  0.00    +0.149 HD
BRANCH  29  31
ATOM     31  C   UNL     1      -1.154  -6.016  -0.395  0.00  0.00    +0.107 C 
BRANCH  31  32
ATOM     32  C   UNL     1      -1.649  -7.457  -0.538  0.00  0.00    +0.047 C 
BRANCH  32  33
ATOM     33  C   UNL     1      -0.673  -8.246  -1.414  0.00  0.00    +0.161 C 
BRANCH  33  34
ATOM     34  O   UNL     1      -1.135  -9.591  -1.548  0.00  0.00    -0.383 OA
ATOM     35  C   UNL     1      -0.292 -10.418  -2.352  0.00  0.00    +0.193 C 
ENDBRANCH  33  34
ENDBRANCH  32  33
ENDBRANCH  31  32
ENDBRANCH  29  31
ENDBRANCH  26  27
ENDBRANCH  17  21
BRANCH   7  36
ATOM     36  O   UNL     1       2.596  -6.102  -1.993  0.00  0.00    -0.495 OA
ATOM     37  C   UNL     1       2.047  -7.186  -2.745  0.00  0.00    +0.277 C 
ENDBRANCH   7  36
TORSDOF 7
