REMARK  Name = ZINC12600086
REMARK  6 active torsions:
REMARK  status: ('A' for Active; 'I' for Inactive)
REMARK    1  A    between atoms: C_1  and  C_2
REMARK    2  A    between atoms: C_5  and  C_31
REMARK    3  A    between atoms: N_8  and  C_10
REMARK    4  A    between atoms: C_13  and  C_19
REMARK    5  A    between atoms: C_15  and  N_16
REMARK    6  A    between atoms: N_21  and  C_22
REMARK                            x       y       z     vdW  Elec       q    Type
REMARK                         _______ _______ _______ _____ _____    ______ ____
ROOT
ATOM      1  C   UNL     1       1.760  -2.795   1.400  0.00  0.00    +0.060 A 
ATOM      2  C   UNL     1       2.423  -3.221   0.252  0.00  0.00    +0.026 A 
ATOM      3  C   UNL     1       3.558  -3.990   0.357  0.00  0.00    +0.015 A 
ATOM      4  C   UNL     1       4.046  -4.345   1.618  0.00  0.00    +0.039 A 
ATOM      5  C   UNL     1       3.378  -3.917   2.769  0.00  0.00    +0.047 A 
ATOM      6  C   UNL     1       2.246  -3.142   2.657  0.00  0.00    +0.148 A 
ENDROOT
BRANCH   1  12
ATOM      7  C   UNL     1      -0.072   1.481   0.013  0.00  0.00    +0.009 C 
ATOM      8  C   UNL     1      -0.040  -0.049   0.004  0.00  0.00    +0.003 C 
ATOM      9  C   UNL     1      -1.472  -0.590   0.017  0.00  0.00    +0.009 C 
ATOM     10  C   UNL     1      -1.441  -2.120  -0.025  0.00  0.00    +0.003 C 
ATOM     11  C   UNL     1      -0.714  -2.646   1.216  0.00  0.00    +0.108 C 
ATOM     12  N   UNL     1       0.612  -2.018   1.290  0.00  0.00    -0.328 N 
ATOM     13  C   UNL     1       0.703  -0.552   1.246  0.00  0.00    +0.108 C 
ATOM     14  C   UNL     1      -2.872  -2.659  -0.047  0.00  0.00    +0.009 C 
ENDBRANCH   1  12
BRANCH   4  15
ATOM     15  C   UNL     1       5.263  -5.171   1.734  0.00  0.00    +0.248 C 
ATOM     16  O   UNL     1       5.686  -5.479   2.832  0.00  0.00    -0.270 OA
ATOM     17  N   UNL     1       5.906  -5.583   0.624  0.00  0.00    -0.280 N 
ATOM     18  H   UNL     1       5.533  -5.394  -0.251  0.00  0.00    +0.155 HD
BRANCH  17  19
ATOM     19  C   UNL     1       7.111  -6.286   0.734  0.00  0.00    +0.054 A 
ATOM     20  C   UNL     1       7.312  -7.162   1.792  0.00  0.00    +0.046 A 
ATOM     21  C   UNL     1       8.503  -7.855   1.898  0.00  0.00    +0.061 A 
ATOM     22  C   UNL     1       9.496  -7.676   0.949  0.00  0.00    +0.061 A 
ATOM     23  C   UNL     1       9.299  -6.804  -0.106  0.00  0.00    +0.043 A 
ATOM     24  C   UNL     1       8.107  -6.112  -0.220  0.00  0.00    +0.064 A 
ATOM     25 CL   UNL     1       7.858  -5.024  -1.548  0.00  0.00    -0.082 Cl
ATOM     26 CL   UNL     1      10.991  -8.548   1.085  0.00  0.00    -0.082 Cl
ATOM     27 CL   UNL     1       8.755  -8.950   3.221  0.00  0.00    -0.082 Cl
ENDBRANCH  17  19
ENDBRANCH   4  15
BRANCH   6  28
ATOM     28  N   UNL     1       1.541  -2.683   3.875  0.00  0.00    +0.058 N 
ATOM     29  O   UNL     1       1.963  -2.984   4.967  0.00  0.00    -0.126 OA
ATOM     30  O   UNL     1       0.544  -2.007   3.777  0.00  0.00    -0.126 OA
ENDBRANCH   6  28
TORSDOF 4
