REMARK  Name = ZINC41703110
REMARK  3 active torsions:
REMARK  status: ('A' for Active; 'I' for Inactive)
REMARK    1  A    between atoms: C_5  and  C_6
REMARK    2  A    between atoms: C_6  and  C_8
REMARK    3  A    between atoms: C_6  and  N_13
REMARK                            x       y       z     vdW  Elec       q    Type
REMARK                         _______ _______ _______ _____ _____    ______ ____
ROOT
ATOM      1  C   UNL     1      -1.156  -0.969   0.009  0.00  0.00    +0.036 C 
ENDROOT
BRANCH   1   6
ATOM      2  C   UNL     1      -0.016   1.351   0.009  0.00  0.00    +0.011 A 
ATOM      3  C   UNL     1       1.183   2.038   0.002  0.00  0.00    +0.023 A 
ATOM      4  C   UNL     1       2.343   1.335  -0.013  0.00  0.00    +0.055 A 
ATOM      5  S   UNL     1       1.753  -0.350  -0.017  0.00  0.00    -0.088 S 
ATOM      6  C   UNL     1       0.002  -0.004   0.002  0.00  0.00    -0.016 A 
ATOM      7 BR   UNL     1       4.123   1.974  -0.027  0.00  0.00    -0.043 Br
ENDBRANCH   1   6
BRANCH   1   8
ATOM      8  C   UNL     1      -1.369  -1.487   1.407  0.00  0.00    +0.167 A 
ATOM      9  N   UNL     1      -0.622  -2.378   2.043  0.00  0.00    -0.113 NA
ATOM     10  N   UNL     1      -1.134  -2.553   3.213  0.00  0.00    -0.021 NA
ATOM     11  N   UNL     1      -2.174  -1.804   3.332  0.00  0.00    -0.021 NA
ATOM     12  N   UNL     1      -2.338  -1.136   2.241  0.00  0.00    -0.113 NA
ENDBRANCH   1   8
BRANCH   1  13
ATOM     13  N   UNL     1      -0.862  -2.092  -0.891  0.00  0.00    +0.388 N 
ATOM     14  H   UNL     1      -1.637  -2.738  -0.886  0.00  0.00    -0.089 HD
ATOM     15  H   UNL     1      -0.719  -1.745  -1.827  0.00  0.00    -0.089 HD
ATOM     16  H   UNL     1      -0.028  -2.566  -0.576  0.00  0.00    -0.089 HD
ENDBRANCH   1  13
TORSDOF 3
