REMARK  Name = ZINC05365207
REMARK  11 active torsions:
REMARK  status: ('A' for Active; 'I' for Inactive)
REMARK    1  A    between atoms: C_1  and  C_2
REMARK    2  A    between atoms: C_4  and  C_32
REMARK    3  A    between atoms: C_6  and  N_8
REMARK    4  A    between atoms: C_9  and  C_11
REMARK    5  A    between atoms: C_11  and  O_12
REMARK    6  A    between atoms: O_12  and  C_13
REMARK    7  A    between atoms: C_13  and  C_15
REMARK    8  A    between atoms: C_15  and  N_16
REMARK    9  A    between atoms: C_21  and  C_28
REMARK   10  A    between atoms: C_24  and  C_26
REMARK   11  A    between atoms: C_24  and  C_27
REMARK                            x       y       z     vdW  Elec       q    Type
REMARK                         _______ _______ _______ _____ _____    ______ ____
ROOT
ATOM      1  C   UNL     1       0.491   1.188  -0.784  0.00  0.00    +0.238 C 
ENDROOT
BRANCH   1   2
ATOM      2  N   UNL     1       0.264  -0.252  -0.634  0.00  0.00    -0.213 N 
ATOM      3  C   UNL     1      -0.858  -0.888  -1.031  0.00  0.00    +0.247 C 
ATOM      4  O   UNL     1      -1.833  -0.396  -1.558  0.00  0.00    -0.273 OA
ATOM      5  C   UNL     1      -0.644  -2.342  -0.679  0.00  0.00    +0.113 C 
ATOM      6  C   UNL     1      -0.675  -3.203  -1.937  0.00  0.00    +0.038 C 
ATOM      7  C   UNL     1      -0.429  -4.667  -1.563  0.00  0.00    -0.011 C 
ATOM      8  C   UNL     1      -1.506  -5.130  -0.580  0.00  0.00    +0.009 C 
ATOM      9  C   UNL     1      -1.446  -4.273   0.686  0.00  0.00    -0.032 C 
ATOM     10  C   UNL     1      -1.697  -2.807   0.321  0.00  0.00    +0.041 C 
ATOM     11  C   UNL     1      -2.516  -4.743   1.673  0.00  0.00    +0.011 C 
ATOM     12  C   UNL     1      -0.064  -4.409   1.329  0.00  0.00    +0.011 C 
ATOM     13  C   UNL     1      -0.482  -5.532  -2.824  0.00  0.00    +0.007 C 
ATOM     14  N   UNL     1       0.692  -2.368  -0.070  0.00  0.00    -0.285 N 
ATOM     15  C   UNL     1       1.146  -1.101  -0.093  0.00  0.00    +0.310 C 
ATOM     16  O   UNL     1       2.234  -0.764   0.333  0.00  0.00    -0.252 OA
ATOM     17  H   UNL     1       1.157  -3.146   0.277  0.00  0.00    +0.151 HD
ENDBRANCH   1   2
BRANCH   1  18
ATOM     18  C   UNL     1      -0.009   1.905   0.443  0.00  0.00    +0.326 C 
ATOM     19  O   UNL     1      -0.505   1.279   1.349  0.00  0.00    -0.249 OA
BRANCH  18  20
ATOM     20  O   UNL     1       0.096   3.241   0.529  0.00  0.00    -0.454 OA
BRANCH  20  21
ATOM     21  C   UNL     1      -0.407   3.865   1.740  0.00  0.00    +0.328 C 
BRANCH  21  23
ATOM     22  N   UNL     1      -0.600   6.147   2.675  0.00  0.00    -0.283 N 
ATOM     23  C   UNL     1      -0.206   5.356   1.657  0.00  0.00    +0.255 C 
ATOM     24  O   UNL     1       0.310   5.845   0.674  0.00  0.00    -0.272 OA
ATOM     25  H   UNL     1      -0.951   5.751   3.488  0.00  0.00    +0.155 HD
BRANCH  22  31
ATOM     26  C   UNL     1      -2.416  10.612   3.643  0.00  0.00    +0.044 C 
ATOM     27  C   UNL     1      -1.369   9.726   3.018  0.00  0.00    -0.048 A 
ATOM     28  C   UNL     1      -0.311  10.288   2.329  0.00  0.00    +0.006 A 
ATOM     29  C   UNL     1       0.652   9.479   1.754  0.00  0.00    -0.048 A 
ATOM     30  C   UNL     1       0.559   8.106   1.867  0.00  0.00    +0.026 A 
ATOM     31  C   UNL     1      -0.503   7.538   2.558  0.00  0.00    +0.034 A 
ATOM     32  C   UNL     1      -1.472   8.353   3.129  0.00  0.00    +0.026 A 
ATOM     33  C   UNL     1       1.805  10.096   1.005  0.00  0.00    +0.044 C 
ENDBRANCH  22  31
ENDBRANCH  21  23
ENDBRANCH  20  21
ENDBRANCH  18  20
ENDBRANCH   1  18
TORSDOF 6
