REMARK  Name = ZINC00383393
REMARK  4 active torsions:
REMARK  status: ('A' for Active; 'I' for Inactive)
REMARK    1  A    between atoms: C_1  and  C_2
REMARK    2  A    between atoms: C_5  and  C_7
REMARK    3  A    between atoms: C_20  and  N_24
REMARK    4  A    between atoms: C_21  and  C_22
REMARK                            x       y       z     vdW  Elec       q    Type
REMARK                         _______ _______ _______ _____ _____    ______ ____
ROOT
ATOM      1  C   UNL     1      -2.732   1.294   4.361  0.00  0.00    +0.037 A 
ATOM      2  C   UNL     1      -3.479   0.119   4.276  0.00  0.00    +0.022 A 
ATOM      3  C   UNL     1      -3.862  -0.542   5.431  0.00  0.00    +0.002 A 
ATOM      4  C   UNL     1      -4.648  -1.791   5.387  0.00  0.00    +0.025 A 
ATOM      5  C   UNL     1      -5.027  -2.351   4.168  0.00  0.00    +0.012 A 
ATOM      6  C   UNL     1      -5.761  -3.518   4.149  0.00  0.00    +0.001 A 
ATOM      7  C   UNL     1      -6.120  -4.134   5.337  0.00  0.00    +0.004 A 
ATOM      8  C   UNL     1      -5.751  -3.589   6.549  0.00  0.00    +0.047 A 
ATOM      9  C   UNL     1      -5.011  -2.413   6.589  0.00  0.00    +0.140 A 
ATOM     10  O   UNL     1      -4.654  -1.887   7.782  0.00  0.00    -0.422 OA
ATOM     11  C   UNL     1      -3.941  -0.754   7.897  0.00  0.00    +0.347 A 
ATOM     12  O   UNL     1      -3.650  -0.332   9.000  0.00  0.00    -0.244 OA
ATOM     13  C   UNL     1      -3.510  -0.026   6.701  0.00  0.00    +0.089 A 
ATOM     14  C   UNL     1      -2.764   1.156   6.795  0.00  0.00    +0.058 A 
ATOM     15  C   UNL     1      -2.374   1.819   5.622  0.00  0.00    +0.084 A 
ENDROOT
BRANCH   1  20
ATOM     16  C   UNL     1      -0.825   2.141  -0.198  0.00  0.00    +0.086 C 
ATOM     17  C   UNL     1      -1.488   2.369   1.136  0.00  0.00    +0.103 A 
ATOM     18  C   UNL     1      -1.950   3.552   1.592  0.00  0.00    +0.045 A 
ATOM     19  C   UNL     1      -2.492   3.318   2.869  0.00  0.00    +0.050 A 
ATOM     20  C   UNL     1      -2.321   1.992   3.131  0.00  0.00    +0.136 A 
ATOM     21  O   UNL     1      -1.710   1.431   2.069  0.00  0.00    -0.460 OA
ENDBRANCH   1  20
BRANCH  14  22
ATOM     22  N   UNL     1      -2.417   1.665   8.032  0.00  0.00    -0.356 N 
ATOM     23  H   UNL     1      -1.675   2.286   8.111  0.00  0.00    +0.142 HD
ATOM     24  H   UNL     1      -2.915   1.403   8.822  0.00  0.00    +0.142 HD
ENDBRANCH  14  22
BRANCH  15  25
ATOM     25  C   UNL     1      -1.612   3.029   5.704  0.00  0.00    +0.102 C 
ATOM     26  N   UNL     1      -1.008   3.989   5.768  0.00  0.00    -0.191 NA
ENDBRANCH  15  25
TORSDOF 3
