REMARK  Name = ZINC20832449
REMARK  8 active torsions:
REMARK  status: ('A' for Active; 'I' for Inactive)
REMARK    1  A    between atoms: C_4  and  O_32
REMARK    2  A    between atoms: C_5  and  C_7
REMARK    3  A    between atoms: N_8  and  N_9
REMARK    4  A    between atoms: C_12  and  S_15
REMARK    5  A    between atoms: S_15  and  C_16
REMARK    6  A    between atoms: C_16  and  C_17
REMARK    7  A    between atoms: N_19  and  C_20
REMARK    8  A    between atoms: N_19  and  C_26
REMARK                            x       y       z     vdW  Elec       q    Type
REMARK                         _______ _______ _______ _____ _____    ______ ____
ROOT
ATOM      1  N   UNL     1      -3.603  -0.852  -0.120  0.00  0.00    -0.205 N 
ATOM      2  C   UNL     1      -4.816  -0.179  -0.084  0.00  0.00    +0.232 A 
ATOM      3  N   UNL     1      -6.055  -0.756  -0.057  0.00  0.00    -0.186 NA
ATOM      4  C   UNL     1      -6.986   0.244  -0.025  0.00  0.00    +0.211 A 
ATOM      5  N   UNL     1      -6.349   1.391  -0.031  0.00  0.00    -0.144 NA
ATOM      6  N   UNL     1      -4.974   1.123  -0.062  0.00  0.00    -0.245 N 
ATOM      7  H   UNL     1      -3.585  -1.952  -0.130  0.00  0.00    +0.177 HD
ATOM      8  H   UNL     1      -4.095   1.784  -0.071  0.00  0.00    +0.192 HD
ENDROOT
BRANCH   1  10
ATOM      9  C   UNL     1      -1.267  -0.762  -0.178  0.00  0.00    +0.142 C 
ATOM     10  N   UNL     1      -2.402  -0.132  -0.144  0.00  0.00    -0.187 NA
BRANCH   9  15
ATOM     11  C   UNL     1       2.398   0.038  -0.264  0.00  0.00    +0.001 A 
ATOM     12  C   UNL     1       2.374   1.422  -0.252  0.00  0.00    +0.004 A 
ATOM     13  C   UNL     1       1.171   2.100  -0.215  0.00  0.00    +0.046 A 
ATOM     14  C   UNL     1      -0.022   1.398  -0.191  0.00  0.00    +0.125 A 
ATOM     15  C   UNL     1      -0.004  -0.004  -0.203  0.00  0.00    +0.036 A 
ATOM     16  C   UNL     1       1.219  -0.678  -0.240  0.00  0.00    +0.013 A 
BRANCH  14  17
ATOM     17  O   UNL     1      -1.206   2.064  -0.160  0.00  0.00    -0.506 OA
ATOM     18  H   UNL     1      -2.152   1.503  -0.141  0.00  0.00    +0.292 HD
ENDBRANCH  14  17
ENDBRANCH   9  15
ENDBRANCH   1  10
BRANCH   4  19
ATOM     19  S   UNL     1      -8.734   0.030   0.018  0.00  0.00    -0.075 S 
BRANCH  19  20
ATOM     20  C   UNL     1      -9.383   1.724   0.048  0.00  0.00    +0.173 C 
BRANCH  20  21
ATOM     21  C   UNL     1     -10.889   1.685   0.086  0.00  0.00    +0.226 C 
ATOM     22  O   UNL     1     -11.470   0.625  -0.008  0.00  0.00    -0.275 OA
ATOM     23  N   UNL     1     -11.589   2.828   0.226  0.00  0.00    -0.295 N 
BRANCH  23  24
ATOM     24  C   UNL     1     -13.046   2.780   0.377  0.00  0.00    +0.076 C 
ATOM     25  C   UNL     1     -13.402   1.973   1.627  0.00  0.00    +0.022 C 
ATOM     26  C   UNL     1     -14.924   1.923   1.785  0.00  0.00    +0.002 C 
ATOM     27  C   UNL     1     -15.543   1.258   0.554  0.00  0.00    +0.000 C 
ATOM     28  C   UNL     1     -15.186   2.065  -0.696  0.00  0.00    +0.002 C 
ATOM     29  C   UNL     1     -13.665   2.115  -0.854  0.00  0.00    +0.022 C 
ENDBRANCH  23  24
BRANCH  23  30
ATOM     30  C   UNL     1     -10.894   4.117   0.226  0.00  0.00    +0.076 C 
ATOM     31  C   UNL     1     -11.074   4.793   1.587  0.00  0.00    +0.022 C 
ATOM     32  C   UNL     1     -10.348   6.140   1.587  0.00  0.00    +0.002 C 
ATOM     33  C   UNL     1     -10.933   7.035   0.492  0.00  0.00    +0.000 C 
ATOM     34  C   UNL     1     -10.753   6.359  -0.869  0.00  0.00    +0.002 C 
ATOM     35  C   UNL     1     -11.479   5.012  -0.869  0.00  0.00    +0.022 C 
ENDBRANCH  23  30
ENDBRANCH  20  21
ENDBRANCH  19  20
ENDBRANCH   4  19
TORSDOF 8
