REMARK  Name = ZINC40876630
REMARK  11 active torsions:
REMARK  status: ('A' for Active; 'I' for Inactive)
REMARK    1  A    between atoms: C_1  and  C_2
REMARK    2  A    between atoms: C_2  and  C_3
REMARK    3  A    between atoms: C_3  and  C_4
REMARK    4  A    between atoms: C_6  and  C_9
REMARK    5  A    between atoms: C_12  and  N_16
REMARK    6  A    between atoms: C_20  and  C_23
REMARK    7  A    between atoms: N_28  and  C_31
REMARK    8  A    between atoms: C_31  and  C_32
REMARK    9  A    between atoms: N_34  and  C_35
REMARK   10  A    between atoms: C_35  and  C_36
REMARK   11  A    between atoms: C_36  and  C_37
REMARK                            x       y       z     vdW  Elec       q    Type
REMARK                         _______ _______ _______ _____ _____    ______ ____
ROOT
ATOM      1  N   UNL     1       4.480  -8.433  -0.925  0.00  0.00    -0.327 N 
ATOM      2  C   UNL     1       4.268  -9.003  -2.263  0.00  0.00    +0.105 C 
ATOM      3  C   UNL     1       4.046 -10.513  -2.127  0.00  0.00    +0.020 C 
ATOM      4  C   UNL     1       5.219 -11.129  -1.360  0.00  0.00    +0.016 C 
ATOM      5  C   UNL     1       5.288 -10.522   0.043  0.00  0.00    +0.092 C 
ATOM      6  C   UNL     1       5.527  -9.009  -0.071  0.00  0.00    +0.118 C 
ENDROOT
BRANCH   5   7
ATOM      7  C   UNL     1       6.423 -11.153   0.809  0.00  0.00    +0.220 C 
ATOM      8  O   UNL     1       7.361 -11.639   0.213  0.00  0.00    -0.275 OA
ATOM      9  N   UNL     1       6.394 -11.178   2.156  0.00  0.00    -0.299 N 
ATOM     10  C   UNL     1       5.218 -10.696   2.896  0.00  0.00    +0.123 C 
ATOM     11  C   UNL     1       5.688  -9.694   3.956  0.00  0.00    +0.104 C 
ATOM     12  N   UNL     1       6.731 -10.315   4.784  0.00  0.00    -0.291 NA
ATOM     13  C   UNL     1       7.917 -10.649   3.985  0.00  0.00    +0.104 C 
ATOM     14  C   UNL     1       7.537 -11.695   2.925  0.00  0.00    +0.123 C 
BRANCH  12  15
ATOM     15  C   UNL     1       7.086  -9.451   5.918  0.00  0.00    +0.180 C 
BRANCH  15  16
ATOM     16  C   UNL     1       7.968 -10.214   6.873  0.00  0.00    +0.227 C 
ATOM     17  O   UNL     1       8.271 -11.364   6.633  0.00  0.00    -0.274 OA
ATOM     18  N   UNL     1       8.420  -9.619   7.995  0.00  0.00    -0.314 N 
ATOM     19  H   UNL     1       8.178  -8.699   8.187  0.00  0.00    +0.149 HD
BRANCH  18  20
ATOM     20  C   UNL     1       9.277 -10.360   8.923  0.00  0.00    +0.104 C 
BRANCH  20  21
ATOM     21  C   UNL     1       9.647  -9.461  10.104  0.00  0.00    +0.015 C 
ATOM     22  C   UNL     1      10.542 -10.235  11.074  0.00  0.00    +0.005 C 
ENDBRANCH  20  21
ENDBRANCH  18  20
ENDBRANCH  15  16
ENDBRANCH  12  15
ENDBRANCH   5   7
BRANCH   1  26
ATOM     23  C   UNL     1       2.167  -5.234   0.410  0.00  0.00    +0.025 A 
ATOM     24  C   UNL     1       3.357  -4.998  -0.276  0.00  0.00    +0.013 A 
ATOM     25  C   UNL     1       4.121  -6.057  -0.716  0.00  0.00    +0.027 A 
ATOM     26  C   UNL     1       3.705  -7.362  -0.478  0.00  0.00    +0.065 A 
ATOM     27  C   UNL     1       2.517  -7.602   0.207  0.00  0.00    +0.145 A 
ATOM     28  C   UNL     1       1.753  -6.543   0.655  0.00  0.00    +0.052 A 
ATOM     29  F   UNL     1       2.115  -8.870   0.438  0.00  0.00    -0.204 F 
BRANCH  23  32
ATOM     30  C   UNL     1       0.705  -2.054   1.250  0.00  0.00    +0.228 A 
ATOM     31  N   UNL     1       1.634  -2.792   0.713  0.00  0.00    -0.191 NA
ATOM     32  C   UNL     1       1.345  -4.095   0.885  0.00  0.00    +0.202 A 
ATOM     33  N   UNL     1       0.214  -4.189   1.542  0.00  0.00    -0.056 NA
ATOM     34  O   UNL     1      -0.216  -2.860   1.795  0.00  0.00    -0.338 OA
BRANCH  30  35
ATOM     35  C   UNL     1       0.676  -0.547   1.263  0.00  0.00    +0.098 C 
BRANCH  35  37
ATOM     36  C   UNL     1      -0.095   1.488   0.037  0.00  0.00    +0.004 C 
ATOM     37  C   UNL     1      -0.065  -0.042   0.024  0.00  0.00    +0.006 C 
ENDBRANCH  35  37
ENDBRANCH  30  35
ENDBRANCH  23  32
ENDBRANCH   1  26
TORSDOF 9
