REMARK  Name = ZINC29827825
REMARK  6 active torsions:
REMARK  status: ('A' for Active; 'I' for Inactive)
REMARK    1  A    between atoms: C_1  and  C_2
REMARK    2  A    between atoms: C_6  and  N_8
REMARK    3  A    between atoms: C_9  and  C_27
REMARK    4  A    between atoms: C_12  and  S_13
REMARK    5  A    between atoms: S_13  and  C_14
REMARK    6  A    between atoms: C_14  and  C_15
REMARK                            x       y       z     vdW  Elec       q    Type
REMARK                         _______ _______ _______ _____ _____    ______ ____
ROOT
ATOM      1  N   UNL     1      -2.321  -1.569   0.010  0.00  0.00    -0.270 N 
ATOM      2  C   UNL     1      -3.678  -1.328   0.029  0.00  0.00    +0.171 A 
ATOM      3  N   UNL     1      -3.836  -0.024   0.038  0.00  0.00    -0.128 NA
ATOM      4  N   UNL     1      -2.691   0.559   0.030  0.00  0.00    -0.122 NA
ATOM      5  C   UNL     1      -1.729  -0.334   0.017  0.00  0.00    +0.197 A 
ENDROOT
BRANCH   2   6
ATOM      6  C   UNL     1      -4.750  -2.343   0.034  0.00  0.00    +0.045 A 
ATOM      7  C   UNL     1      -4.591  -3.692   0.019  0.00  0.00    +0.095 A 
ATOM      8  N   UNL     1      -5.812  -4.300   0.033  0.00  0.00    -0.360 N 
ATOM      9  H   UNL     1      -5.880  -5.398   0.032  0.00  0.00    +0.165 HD
ATOM     10  C   UNL     1      -6.815  -3.354   0.048  0.00  0.00    +0.047 A 
ATOM     11  C   UNL     1      -6.201  -2.091   0.049  0.00  0.00    +0.010 A 
ATOM     12  C   UNL     1      -6.981  -0.936   0.063  0.00  0.00    +0.011 A 
ATOM     13  C   UNL     1      -8.354  -1.041   0.075  0.00  0.00    +0.001 A 
ATOM     14  C   UNL     1      -8.962  -2.288   0.074  0.00  0.00    +0.002 A 
ATOM     15  C   UNL     1      -8.204  -3.439   0.060  0.00  0.00    +0.026 A 
ENDBRANCH   2   6
BRANCH   1  21
ATOM     16  C   UNL     1       0.575  -4.878   2.214  0.00  0.00    +0.044 C 
ATOM     17  C   UNL     1      -0.273  -4.445   1.045  0.00  0.00    -0.048 A 
ATOM     18  C   UNL     1      -0.420  -5.279  -0.048  0.00  0.00    +0.003 A 
ATOM     19  C   UNL     1      -1.197  -4.885  -1.122  0.00  0.00    +0.002 A 
ATOM     20  C   UNL     1      -1.832  -3.658  -1.103  0.00  0.00    +0.026 A 
ATOM     21  C   UNL     1      -1.682  -2.817  -0.010  0.00  0.00    +0.051 A 
ATOM     22  C   UNL     1      -0.901  -3.215   1.067  0.00  0.00    +0.029 A 
ENDBRANCH   1  21
BRANCH   5  23
ATOM     23  S   UNL     1       0.002  -0.004   0.002  0.00  0.00    -0.076 S 
BRANCH  23  24
ATOM     24  C   UNL     1      -0.022   1.806   0.012  0.00  0.00    +0.173 C 
BRANCH  24  25
ATOM     25  C   UNL     1       1.391   2.327   0.001  0.00  0.00    +0.226 C 
ATOM     26  O   UNL     1       2.324   1.552  -0.012  0.00  0.00    -0.275 OA
ATOM     27  N   UNL     1       1.620   3.656   0.006  0.00  0.00    -0.296 N 
ATOM     28  C   UNL     1       2.989   4.198  -0.004  0.00  0.00    +0.113 C 
ATOM     29  C   UNL     1       3.181   4.963  -1.312  0.00  0.00    +0.054 C 
ATOM     30  C   UNL     1       2.017   5.883  -1.571  0.00  0.00    -0.041 A 
ATOM     31  C   UNL     1       2.211   6.932  -2.462  0.00  0.00    +0.004 A 
ATOM     32  C   UNL     1       1.185   7.807  -2.750  0.00  0.00    +0.000 A 
ATOM     33  C   UNL     1      -0.050   7.641  -2.149  0.00  0.00    +0.000 A 
ATOM     34  C   UNL     1      -0.244   6.603  -1.262  0.00  0.00    +0.005 A 
ATOM     35  C   UNL     1       0.790   5.724  -0.968  0.00  0.00    -0.027 A 
ATOM     36  C   UNL     1       0.514   4.620   0.016  0.00  0.00    +0.143 C 
ENDBRANCH  24  25
ENDBRANCH  23  24
ENDBRANCH   5  23
TORSDOF 5
