REMARK  Name = ZINC39542841
REMARK  6 active torsions:
REMARK  status: ('A' for Active; 'I' for Inactive)
REMARK    1  A    between atoms: C_1  and  C_2
REMARK    2  A    between atoms: C_7  and  C_10
REMARK    3  A    between atoms: C_10  and  O_11
REMARK    4  A    between atoms: O_11  and  C_12
REMARK    5  A    between atoms: C_12  and  C_14
REMARK    6  A    between atoms: C_28  and  C_29
REMARK                            x       y       z     vdW  Elec       q    Type
REMARK                         _______ _______ _______ _____ _____    ______ ____
ROOT
ATOM      1  C   UNL     1      -2.799  -8.784  -0.076  0.00  0.00    +0.073 A 
ATOM      2  C   UNL     1      -2.910  -9.576   1.149  0.00  0.00    +0.015 A 
ATOM      3  C   UNL     1      -3.194  -8.981   2.382  0.00  0.00    +0.011 A 
ATOM      4  C   UNL     1      -3.291  -9.757   3.500  0.00  0.00    +0.001 A 
ATOM      5  C   UNL     1      -3.109 -11.136   3.428  0.00  0.00    +0.002 A 
ATOM      6  C   UNL     1      -2.832 -11.748   2.244  0.00  0.00    +0.028 A 
ATOM      7  C   UNL     1      -2.725 -10.979   1.070  0.00  0.00    +0.072 A 
ATOM      8  N   UNL     1      -2.452 -11.549  -0.103  0.00  0.00    -0.247 NA
ATOM      9  C   UNL     1      -2.345 -10.855  -1.226  0.00  0.00    +0.072 A 
ATOM     10  C   UNL     1      -2.523  -9.459  -1.257  0.00  0.00    -0.007 A 
ATOM     11  C   UNL     1      -2.424  -8.674  -2.535  0.00  0.00    +0.038 C 
ATOM     12  C   UNL     1      -1.609  -9.426  -3.585  0.00  0.00    +0.009 C 
ATOM     13  C   UNL     1      -2.206 -10.825  -3.783  0.00  0.00    +0.038 C 
ATOM     14  C   UNL     1      -2.034 -11.576  -2.477  0.00  0.00    -0.018 C 
ATOM     15  C   UNL     1      -1.626 -12.863  -2.458  0.00  0.00    +0.052 C 
ENDROOT
BRANCH  15  16
ATOM     16  C   UNL     1      -1.500 -13.608  -3.711  0.00  0.00    +0.128 A 
ATOM     17  C   UNL     1      -0.978 -14.864  -3.849  0.00  0.00    +0.049 A 
ATOM     18  C   UNL     1      -1.054 -15.185  -5.215  0.00  0.00    +0.042 A 
ATOM     19  C   UNL     1      -1.612 -14.127  -5.841  0.00  0.00    +0.195 A 
ATOM     20  O   UNL     1      -1.885 -13.180  -4.930  0.00  0.00    -0.464 OA
ENDBRANCH  15  16
BRANCH   1  21
ATOM     21  C   UNL     1      -2.980  -7.317  -0.058  0.00  0.00    +0.341 C 
ATOM     22  O   UNL     1      -4.085  -6.839  -0.220  0.00  0.00    -0.245 OA
BRANCH  21  23
ATOM     23  O   UNL     1      -1.919  -6.510   0.138  0.00  0.00    -0.455 OA
BRANCH  23  24
ATOM     24  C   UNL     1      -2.167  -5.103   0.143  0.00  0.00    +0.288 C 
BRANCH  24  31
ATOM     25  C   UNL     1       2.006   0.917   1.002  0.00  0.00    +0.109 C 
ATOM     26  C   UNL     1       1.768  -0.569   0.915  0.00  0.00    +0.216 C 
ATOM     27  O   UNL     1       2.697  -1.339   1.034  0.00  0.00    -0.276 OA
ATOM     28  N   UNL     1       0.523  -1.041   0.707  0.00  0.00    -0.265 N 
ATOM     29  C   UNL     1       0.304  -2.411   0.627  0.00  0.00    +0.165 A 
ATOM     30  N   UNL     1      -0.830  -3.047   0.424  0.00  0.00    -0.226 NA
ATOM     31  C   UNL     1      -0.873  -4.366   0.374  0.00  0.00    +0.088 A 
ATOM     32  C   UNL     1       0.299  -5.027   0.541  0.00  0.00    +0.075 A 
ATOM     33  S   UNL     1       1.425  -3.659   0.758  0.00  0.00    -0.060 S 
ATOM     34  H   UNL     1      -0.220  -0.424   0.612  0.00  0.00    +0.157 HD
ENDBRANCH  24  31
ENDBRANCH  23  24
ENDBRANCH  21  23
ENDBRANCH   1  21
TORSDOF 5
