REMARK  Name = ZINC16492764
REMARK  6 active torsions:
REMARK  status: ('A' for Active; 'I' for Inactive)
REMARK    1  A    between atoms: C_1  and  C_2
REMARK    2  A    between atoms: C_7  and  N_8
REMARK    3  A    between atoms: C_17  and  C_21
REMARK    4  A    between atoms: N_23  and  C_24
REMARK    5  A    between atoms: C_24  and  C_25
REMARK    6  A    between atoms: C_25  and  C_26
REMARK                            x       y       z     vdW  Elec       q    Type
REMARK                         _______ _______ _______ _____ _____    ______ ____
ROOT
ATOM      1  N   UNL     1      -8.770   3.857  -0.710  0.00  0.00    -0.269 N 
ATOM      2  C   UNL     1      -7.989   3.081  -1.487  0.00  0.00    +0.306 C 
ATOM      3  O   UNL     1      -8.391   2.707  -2.572  0.00  0.00    -0.252 OA
ATOM      4  N   UNL     1      -6.762   2.720  -1.062  0.00  0.00    -0.285 N 
ATOM      5  C   UNL     1      -5.944   1.785  -1.847  0.00  0.00    +0.109 C 
ATOM      6  C   UNL     1      -5.528   0.618  -0.943  0.00  0.00    +0.017 C 
ATOM      7  C   UNL     1      -4.868   1.160   0.315  0.00  0.00    -0.016 C 
ATOM      8  C   UNL     1      -5.802   2.079   1.088  0.00  0.00    +0.017 C 
ATOM      9  C   UNL     1      -6.219   3.253   0.195  0.00  0.00    +0.109 C 
ATOM     10  C   UNL     1      -2.453   0.910   0.001  0.00  0.00    +0.028 C 
ATOM     11  C   UNL     1      -2.513   0.051   1.300  0.00  0.00    +0.061 C 
ATOM     12  S   UNL     1      -4.335  -0.231   1.388  0.00  0.00    -0.174 S 
ATOM     13  H   UNL     1      -8.428   4.204   0.129  0.00  0.00    +0.156 HD
ATOM     14  N   UNL     1      -3.596   1.861  -0.004  0.00  0.00    +0.397 N 
ATOM     15  H   UNL     1      -3.429   2.591   0.698  0.00  0.00    -0.083 HD
ATOM     16  H   UNL     1      -3.672   2.290  -0.934  0.00  0.00    -0.083 HD
ENDROOT
BRANCH   1  23
ATOM     17  C   UNL     1     -10.687   4.479   1.299  0.00  0.00    +0.045 C 
ATOM     18  C   UNL     1     -11.041   4.472  -0.165  0.00  0.00    -0.029 A 
ATOM     19  C   UNL     1     -12.327   4.779  -0.567  0.00  0.00    +0.005 A 
ATOM     20  C   UNL     1     -12.654   4.767  -1.910  0.00  0.00    +0.000 A 
ATOM     21  C   UNL     1     -11.695   4.454  -2.856  0.00  0.00    +0.002 A 
ATOM     22  C   UNL     1     -10.407   4.152  -2.462  0.00  0.00    +0.023 A 
ATOM     23  C   UNL     1     -10.075   4.163  -1.113  0.00  0.00    +0.038 A 
ENDBRANCH   1  23
BRANCH  10  24
ATOM     24  C   UNL     1      -1.164   1.690  -0.033  0.00  0.00    +0.200 C 
ATOM     25  O   UNL     1      -1.188   2.902  -0.050  0.00  0.00    -0.278 OA
ATOM     26  N   UNL     1       0.017   1.039  -0.043  0.00  0.00    -0.316 N 
ATOM     27  H   UNL     1       0.037   0.070  -0.029  0.00  0.00    +0.149 HD
BRANCH  26  28
ATOM     28  C   UNL     1       1.270   1.797  -0.081  0.00  0.00    +0.109 C 
BRANCH  28  29
ATOM     29  C   UNL     1       2.453   0.826  -0.093  0.00  0.00    +0.055 C 
BRANCH  29  30
ATOM     30  C   UNL     1       3.742   1.605  -0.132  0.00  0.00    -0.027 A 
ATOM     31  C   UNL     1       4.466   1.802   1.029  0.00  0.00    +0.006 A 
ATOM     32  C   UNL     1       5.649   2.516   0.994  0.00  0.00    +0.020 A 
ATOM     33  C   UNL     1       6.109   3.035  -0.204  0.00  0.00    +0.042 A 
ATOM     34  C   UNL     1       5.385   2.838  -1.366  0.00  0.00    +0.040 A 
ATOM     35  C   UNL     1       4.203   2.119  -1.331  0.00  0.00    +0.046 A 
ATOM     36 CL   UNL     1       3.297   1.866  -2.790  0.00  0.00    -0.083 Cl
ATOM     37 CL   UNL     1       7.594   3.933  -0.248  0.00  0.00    -0.083 Cl
ENDBRANCH  29  30
ENDBRANCH  28  29
ENDBRANCH  26  28
ENDBRANCH  10  24
TORSDOF 5
