REMARK  Name = ZINC38161748
REMARK  15 active torsions:
REMARK  status: ('A' for Active; 'I' for Inactive)
REMARK    1  A    between atoms: C_1  and  C_2
REMARK    2  A    between atoms: C_2  and  C_3
REMARK    3  A    between atoms: C_2  and  C_4
REMARK    4  A    between atoms: C_4  and  N_5
REMARK    5  A    between atoms: N_5  and  C_6
REMARK    6  A    between atoms: N_5  and  C_28
REMARK    7  A    between atoms: C_6  and  C_7
REMARK    8  A    between atoms: C_8  and  O_27
REMARK    9  A    between atoms: C_15  and  O_18
REMARK   10  A    between atoms: O_18  and  C_19
REMARK   11  A    between atoms: C_24  and  O_25
REMARK   12  A    between atoms: O_25  and  C_26
REMARK   13  A    between atoms: C_28  and  C_29
REMARK   14  A    between atoms: C_29  and  C_30
REMARK   15  A    between atoms: C_29  and  C_31
REMARK                            x       y       z     vdW  Elec       q    Type
REMARK                         _______ _______ _______ _____ _____    ______ ____
ROOT
ATOM      1  C   UNL     1       0.106  -0.213  -2.275  0.00  0.00    +0.020 A 
ATOM      2  C   UNL     1       0.517   0.940  -2.923  0.00  0.00    +0.122 A 
ATOM      3  C   UNL     1       1.835   1.378  -2.822  0.00  0.00    +0.046 A 
ATOM      4  C   UNL     1       2.742   0.675  -2.081  0.00  0.00    +0.019 A 
ATOM      5  C   UNL     1       2.344  -0.489  -1.422  0.00  0.00    +0.068 A 
ATOM      6  C   UNL     1       1.014  -0.936  -1.514  0.00  0.00    +0.143 A 
ATOM      7  O   UNL     1       0.639  -2.060  -0.870  0.00  0.00    -0.459 OA
ATOM      8  C   UNL     1       1.491  -2.780  -0.128  0.00  0.00    +0.245 A 
ATOM      9  C   UNL     1       2.786  -2.439   0.032  0.00  0.00    +0.210 A 
ATOM     10  C   UNL     1       3.291  -1.275  -0.614  0.00  0.00    +0.235 A 
ATOM     11  O   UNL     1       4.457  -0.937  -0.492  0.00  0.00    -0.283 OA
ENDROOT
BRANCH   2  12
ATOM     12  O   UNL     1      -0.373   1.649  -3.663  0.00  0.00    -0.506 OA
ATOM     13  H   UNL     1      -0.845   2.331  -3.164  0.00  0.00    +0.292 HD
ENDBRANCH   2  12
BRANCH   1  14
ATOM     14  C   UNL     1      -1.323  -0.678  -2.391  0.00  0.00    -0.036 C 
BRANCH  14  15
ATOM     15  N   UNL     1      -2.082  -0.226  -1.218  0.00  0.00    +0.383 N 
ATOM     16  H   UNL     1      -1.627  -0.551  -0.378  0.00  0.00    -0.081 HD
BRANCH  15  17
ATOM     17  C   UNL     1      -3.445  -0.770  -1.277  0.00  0.00    -0.075 C 
BRANCH  17  19
ATOM     18  C   UNL     1      -2.813  -2.684   0.199  0.00  0.00    +0.005 C 
ATOM     19  C   UNL     1      -3.392  -2.295  -1.163  0.00  0.00    -0.034 C 
ATOM     20  C   UNL     1      -4.805  -2.866  -1.298  0.00  0.00    +0.005 C 
ENDBRANCH  17  19
ENDBRANCH  15  17
BRANCH  15  21
ATOM     21  C   UNL     1      -2.140   1.242  -1.208  0.00  0.00    -0.075 C 
BRANCH  21  22
ATOM     22  C   UNL     1      -2.821   1.716   0.078  0.00  0.00    -0.034 C 
ATOM     23  C   UNL     1      -1.958   1.337   1.283  0.00  0.00    +0.005 C 
ATOM     24  C   UNL     1      -2.994   3.236   0.032  0.00  0.00    +0.005 C 
ENDBRANCH  21  22
ENDBRANCH  15  21
ENDBRANCH  14  15
ENDBRANCH   1  14
BRANCH   9  25
ATOM     25  O   UNL     1       3.606  -3.209   0.799  0.00  0.00    -0.445 OA
BRANCH  25  26
ATOM     26  C   UNL     1       4.088  -2.675   1.953  0.00  0.00    +0.170 A 
ATOM     27  C   UNL     1       3.647  -1.432   2.380  0.00  0.00    +0.050 A 
ATOM     28  C   UNL     1       4.137  -0.891   3.554  0.00  0.00    +0.004 A 
ATOM     29  C   UNL     1       5.068  -1.586   4.303  0.00  0.00    +0.004 A 
ATOM     30  C   UNL     1       5.513  -2.826   3.882  0.00  0.00    +0.049 A 
ATOM     31  C   UNL     1       5.020  -3.377   2.711  0.00  0.00    +0.162 A 
BRANCH  31  32
ATOM     32  O   UNL     1       5.452  -4.599   2.298  0.00  0.00    -0.491 OA
ATOM     33  C   UNL     1       6.410  -5.262   3.126  0.00  0.00    +0.277 C 
ENDBRANCH  31  32
ENDBRANCH  25  26
ENDBRANCH   9  25
TORSDOF 10
