REMARK  Name = ZINC39683564
REMARK  10 active torsions:
REMARK  status: ('A' for Active; 'I' for Inactive)
REMARK    1  A    between atoms: C_1  and  C_2
REMARK    2  A    between atoms: C_2  and  C_3
REMARK    3  A    between atoms: C_3  and  C_4
REMARK    4  A    between atoms: C_4  and  N_5
REMARK    5  A    between atoms: C_8  and  C_11
REMARK    6  A    between atoms: C_11  and  N_12
REMARK    7  A    between atoms: C_13  and  C_15
REMARK    8  A    between atoms: C_26  and  C_28
REMARK    9  A    between atoms: C_30  and  C_37
REMARK   10  A    between atoms: C_32  and  C_33
REMARK                            x       y       z     vdW  Elec       q    Type
REMARK                         _______ _______ _______ _____ _____    ______ ____
ROOT
ATOM      1  C   UNL     1      -7.713  -8.142  -0.763  0.00  0.00    +0.100 C 
ATOM      2  C   UNL     1      -6.890  -8.754   0.393  0.00  0.00    +0.121 C 
ATOM      3  N   UNL     1      -7.865  -8.931   1.494  0.00  0.00    -0.296 N 
ATOM      4  C   UNL     1      -9.103  -9.390   0.820  0.00  0.00    +0.115 C 
ATOM      5  C   UNL     1      -9.164  -8.565  -0.481  0.00  0.00    -0.004 C 
ATOM      6  C   UNL     1     -10.044  -7.334  -0.283  0.00  0.00    -0.010 C 
ATOM      7  C   UNL     1     -11.492  -7.778  -0.061  0.00  0.00    -0.082 C 
ATOM      8  N   UNL     1     -11.952  -8.552  -1.221  0.00  0.00    +0.379 N 
ATOM      9  C   UNL     1     -11.160  -9.781  -1.349  0.00  0.00    -0.082 C 
ATOM     10  C   UNL     1      -9.697  -9.421  -1.625  0.00  0.00    -0.010 C 
ATOM     11  C   UNL     1      -7.671  -8.722   2.812  0.00  0.00    +0.250 C 
ATOM     12  O   UNL     1      -6.628  -8.233   3.203  0.00  0.00    -0.270 OA
ATOM     13  H   UNL     1     -12.925  -8.791  -1.099  0.00  0.00    -0.086 HD
ATOM     14  H   UNL     1     -11.847  -7.997  -2.057  0.00  0.00    -0.086 HD
ENDROOT
BRANCH  11  15
ATOM     15  C   UNL     1      -8.722  -9.087   3.778  0.00  0.00    +0.087 A 
ATOM     16  C   UNL     1      -9.970  -9.813   3.502  0.00  0.00    +0.058 A 
ATOM     17  C   UNL     1     -10.607  -9.913   4.679  0.00  0.00    +0.103 A 
ATOM     18  O   UNL     1      -9.868  -9.320   5.630  0.00  0.00    -0.455 OA
ATOM     19  C   UNL     1      -8.738  -8.825   5.117  0.00  0.00    +0.220 A 
ATOM     20  C   UNL     1     -11.939 -10.583   4.898  0.00  0.00    +0.086 C 
BRANCH  19  21
ATOM     21  C   UNL     1      -7.665  -8.099   5.886  0.00  0.00    +0.451 C 
ATOM     22  F   UNL     1      -7.943  -6.728   5.893  0.00  0.00    -0.163 F 
ATOM     23  F   UNL     1      -7.630  -8.574   7.201  0.00  0.00    -0.163 F 
ATOM     24  F   UNL     1      -6.424  -8.320   5.278  0.00  0.00    -0.163 F 
ENDBRANCH  19  21
ENDBRANCH  11  15
BRANCH   1  26
ATOM     25  N   UNL     1      -7.670  -5.952  -1.911  0.00  0.00    -0.315 N 
ATOM     26  C   UNL     1      -7.592  -6.640  -0.755  0.00  0.00    +0.218 C 
ATOM     27  O   UNL     1      -7.426  -6.050   0.292  0.00  0.00    -0.275 OA
ATOM     28  H   UNL     1      -7.803  -6.423  -2.748  0.00  0.00    +0.149 HD
BRANCH  25  29
ATOM     29  C   UNL     1      -7.553  -4.491  -1.903  0.00  0.00    +0.107 C 
BRANCH  29  33
ATOM     30  N   UNL     1      -6.540  -2.388  -5.486  0.00  0.00    +0.380 N 
ATOM     31  C   UNL     1      -7.719  -1.909  -4.753  0.00  0.00    -0.079 C 
ATOM     32  C   UNL     1      -7.677  -2.431  -3.315  0.00  0.00    -0.014 C 
ATOM     33  C   UNL     1      -7.674  -3.962  -3.334  0.00  0.00    +0.003 C 
ATOM     34  C   UNL     1      -6.482  -4.450  -4.163  0.00  0.00    -0.014 C 
ATOM     35  C   UNL     1      -6.568  -3.853  -5.569  0.00  0.00    -0.079 C 
ATOM     36  H   UNL     1      -5.704  -2.096  -5.002  0.00  0.00    -0.082 HD
BRANCH  30  37
ATOM     37  C   UNL     1      -6.544  -1.822  -6.841  0.00  0.00    -0.079 C 
BRANCH  37  38
ATOM     38  C   UNL     1      -6.390  -0.302  -6.758  0.00  0.00    -0.019 C 
BRANCH  38  40
ATOM     39  C   UNL     1      -6.239   1.809  -8.088  0.00  0.00    +0.004 C 
ATOM     40  C   UNL     1      -6.393   0.289  -8.170  0.00  0.00    -0.005 C 
ENDBRANCH  38  40
ENDBRANCH  37  38
ENDBRANCH  30  37
ENDBRANCH  29  33
ENDBRANCH  25  29
ENDBRANCH   1  26
TORSDOF 8
