REMARK  Name = ZINC11783035
REMARK  10 active torsions:
REMARK  status: ('A' for Active; 'I' for Inactive)
REMARK    1  A    between atoms: C_1  and  C_2
REMARK    2  A    between atoms: C_2  and  N_3
REMARK    3  A    between atoms: C_4  and  C_35
REMARK    4  A    between atoms: C_5  and  C_9
REMARK    5  A    between atoms: C_6  and  C_8
REMARK    6  A    between atoms: C_9  and  N_68
REMARK    7  A    between atoms: C_21  and  N_27
REMARK    8  A    between atoms: C_23  and  O_25
REMARK    9  A    between atoms: O_25  and  C_26
REMARK   10  A    between atoms: C_28  and  C_30
REMARK                            x       y       z     vdW  Elec       q    Type
REMARK                         _______ _______ _______ _____ _____    ______ ____
ROOT
ATOM      1  C   UNL     1      -0.443   7.536   0.997  0.00  0.00    -0.077 C 
ATOM      2  C   UNL     1      -0.705   6.027   1.034  0.00  0.00    -0.005 C 
ATOM      3  C   UNL     1       0.208   5.333   0.027  0.00  0.00    +0.021 C 
ATOM      4  C   UNL     1      -0.004   5.914  -1.368  0.00  0.00    -0.005 C 
ATOM      5  C   UNL     1       0.236   7.426  -1.328  0.00  0.00    -0.077 C 
ATOM      6  C   UNL     1      -0.047   3.845   0.022  0.00  0.00    -0.034 A 
ATOM      7  C   UNL     1      -1.235   3.132   0.030  0.00  0.00    +0.004 A 
ATOM      8  C   UNL     1      -1.219   1.752   0.017  0.00  0.00    +0.000 A 
ATOM      9  C   UNL     1      -0.013   1.076   0.008  0.00  0.00    +0.000 A 
ATOM     10  C   UNL     1       1.173   1.784   0.000  0.00  0.00    +0.006 A 
ATOM     11  C   UNL     1       1.160   3.168   0.007  0.00  0.00    -0.021 A 
ATOM     12  C   UNL     1       2.303   4.160   0.000  0.00  0.00    +0.133 C 
ATOM     13  C   UNL     1       1.679   5.500   0.448  0.00  0.00    +0.153 C 
ATOM     14  N   UNL     1      -0.710   8.036  -0.369  0.00  0.00    +0.383 N 
ATOM     15  H   UNL     1      -1.667   7.777  -0.636  0.00  0.00    -0.081 HD
ENDROOT
BRANCH  12  16
ATOM     16  N   UNL     1       2.860   4.285  -1.349  0.00  0.00    -0.299 N 
ATOM     17  C   UNL     1       3.817   3.432  -1.765  0.00  0.00    +0.280 C 
ATOM     18  O   UNL     1       4.219   2.558  -1.019  0.00  0.00    -0.267 OA
ATOM     19  H   UNL     1       2.539   4.981  -1.944  0.00  0.00    +0.150 HD
BRANCH  17  20
ATOM     20  C   UNL     1       4.374   3.556  -3.116  0.00  0.00    +0.189 A 
ATOM     21  C   UNL     1       5.347   2.766  -3.659  0.00  0.00    +0.054 A 
ATOM     22  C   UNL     1       5.568   3.237  -4.962  0.00  0.00    +0.042 A 
ATOM     23  C   UNL     1       4.738   4.286  -5.152  0.00  0.00    +0.196 A 
ATOM     24  O   UNL     1       4.020   4.475  -4.038  0.00  0.00    -0.458 OA
ENDBRANCH  17  20
ENDBRANCH  12  16
BRANCH  13  25
ATOM     25  O   UNL     1       1.788   5.664   1.863  0.00  0.00    -0.377 OA
ATOM     26  C   UNL     1       2.970   6.349   2.280  0.00  0.00    +0.194 C 
ENDBRANCH  13  25
BRANCH  14  27
ATOM     27  C   UNL     1      -0.584   9.507  -0.401  0.00  0.00    -0.039 C 
BRANCH  27  30
ATOM     28  N   UNL     1       0.074  10.567  -3.827  0.00  0.00    -0.268 N 
ATOM     29  C   UNL     1       0.501  10.149  -2.618  0.00  0.00    +0.038 A 
ATOM     30  C   UNL     1      -0.588   9.972  -1.834  0.00  0.00    -0.021 A 
ATOM     31  C   UNL     1      -1.719  10.302  -2.589  0.00  0.00    +0.062 A 
ATOM     32  N   UNL     1      -1.323  10.659  -3.784  0.00  0.00    -0.176 NA
ATOM     33  C   UNL     1      -3.146  10.255  -2.108  0.00  0.00    +0.068 C 
ATOM     34  C   UNL     1       1.934   9.916  -2.212  0.00  0.00    +0.065 C 
BRANCH  28  36
ATOM     35  C   UNL     1       1.322  12.353  -4.939  0.00  0.00    +0.029 C 
ATOM     36  C   UNL     1       0.922  10.877  -4.981  0.00  0.00    +0.140 C 
ENDBRANCH  28  36
ENDBRANCH  27  30
ENDBRANCH  14  27
TORSDOF 6
