REMARK  Name = ZINC35037941
REMARK  8 active torsions:
REMARK  status: ('A' for Active; 'I' for Inactive)
REMARK    1  A    between atoms: C_1  and  C_2
REMARK    2  A    between atoms: C_2  and  C_3
REMARK    3  A    between atoms: C_3  and  C_5
REMARK    4  A    between atoms: C_3  and  N_23
REMARK    5  A    between atoms: N_15  and  C_16
REMARK    6  A    between atoms: N_23  and  C_24
REMARK    7  A    between atoms: C_24  and  C_25
REMARK    8  A    between atoms: N_28  and  C_29
REMARK                            x       y       z     vdW  Elec       q    Type
REMARK                         _______ _______ _______ _____ _____    ______ ____
ROOT
ATOM      1  C   UNL     1      -1.748  -0.274  -0.575  0.00  0.00    +0.144 C 
ENDROOT
BRANCH   1   2
ATOM      2  C   UNL     1      -1.629  -1.764  -0.387  0.00  0.00    +0.138 A 
ATOM      3  N   UNL     1      -1.097  -2.465  -1.343  0.00  0.00    -0.231 NA
ATOM      4  C   UNL     1      -0.957  -3.811  -1.244  0.00  0.00    +0.078 A 
ATOM      5  C   UNL     1      -0.386  -4.565  -2.272  0.00  0.00    +0.028 A 
ATOM      6  C   UNL     1      -0.262  -5.928  -2.129  0.00  0.00    +0.002 A 
ATOM      7  C   UNL     1      -0.700  -6.566  -0.975  0.00  0.00    +0.001 A 
ATOM      8  C   UNL     1      -1.267  -5.844   0.052  0.00  0.00    +0.015 A 
ATOM      9  C   UNL     1      -1.401  -4.462  -0.072  0.00  0.00    +0.065 A 
ATOM     10  C   UNL     1      -1.997  -3.641   0.991  0.00  0.00    +0.266 A 
ATOM     11  O   UNL     1      -2.399  -4.140   2.026  0.00  0.00    -0.267 OA
ATOM     12  N   UNL     1      -2.078  -2.307   0.777  0.00  0.00    -0.263 N 
BRANCH  12  13
ATOM     13  C   UNL     1      -2.633  -1.478   1.760  0.00  0.00    +0.051 A 
ATOM     14  C   UNL     1      -4.012  -1.394   1.901  0.00  0.00    +0.028 A 
ATOM     15  C   UNL     1      -4.558  -0.576   2.871  0.00  0.00    +0.022 A 
ATOM     16  C   UNL     1      -3.731   0.160   3.702  0.00  0.00    +0.041 A 
ATOM     17  C   UNL     1      -2.356   0.078   3.563  0.00  0.00    +0.022 A 
ATOM     18  C   UNL     1      -1.806  -0.743   2.599  0.00  0.00    +0.028 A 
ATOM     19 CL   UNL     1      -4.419   1.188   4.920  0.00  0.00    -0.084 Cl
ENDBRANCH  12  13
ENDBRANCH   1   2
BRANCH   1  20
ATOM     20  N   UNL     1      -2.687   0.008  -1.663  0.00  0.00    -0.276 N 
ATOM     21  C   UNL     1      -3.794   0.739  -1.426  0.00  0.00    +0.303 C 
ATOM     22  O   UNL     1      -4.013   1.164  -0.308  0.00  0.00    -0.253 OA
ATOM     23  N   UNL     1      -4.658   0.998  -2.427  0.00  0.00    -0.294 N 
ATOM     24  H   UNL     1      -4.484   0.658  -3.319  0.00  0.00    +0.151 HD
BRANCH  23  25
ATOM     25  C   UNL     1      -5.862   1.792  -2.169  0.00  0.00    +0.037 C 
ATOM     26  C   UNL     1      -6.719   1.091  -1.113  0.00  0.00    +0.029 C 
ATOM     27  C   UNL     1      -7.976   1.921  -0.843  0.00  0.00    -0.008 C 
ATOM     28  C   UNL     1      -8.779   2.066  -2.138  0.00  0.00    +0.007 C 
ATOM     29  C   UNL     1      -7.922   2.767  -3.193  0.00  0.00    -0.008 C 
ATOM     30  C   UNL     1      -6.665   1.937  -3.463  0.00  0.00    +0.029 C 
ATOM     31  C   UNL     1      -7.519   4.153  -2.685  0.00  0.00    +0.007 C 
ATOM     32  C   UNL     1      -6.716   4.007  -1.391  0.00  0.00    -0.008 C 
ATOM     33  C   UNL     1      -7.573   3.306  -0.335  0.00  0.00    +0.007 C 
ATOM     34  C   UNL     1      -5.459   3.178  -1.661  0.00  0.00    +0.029 C 
ENDBRANCH  23  25
BRANCH  20  35
ATOM     35  C   UNL     1      -2.423  -0.505  -3.010  0.00  0.00    +0.107 C 
ATOM     36  C   UNL     1      -3.173  -1.823  -3.210  0.00  0.00    +0.024 C 
ENDBRANCH  20  35
ENDBRANCH   1  20
BRANCH   1  38
ATOM     37  C   UNL     1      -0.479   1.831  -1.027  0.00  0.00    +0.006 C 
ATOM     38  C   UNL     1      -0.376   0.308  -0.922  0.00  0.00    +0.027 C 
ENDBRANCH   1  38
TORSDOF 6
