REMARK  Name = ZINC15062207
REMARK  4 active torsions:
REMARK  status: ('A' for Active; 'I' for Inactive)
REMARK    1  A    between atoms: C_3  and  C_9
REMARK    2  A    between atoms: C_9  and  N_10
REMARK    3  A    between atoms: C_13  and  C_16
REMARK    4  A    between atoms: C_22  and  C_24
REMARK                            x       y       z     vdW  Elec       q    Type
REMARK                         _______ _______ _______ _____ _____    ______ ____
ROOT
ATOM      1  N   UNL     1      -3.344   6.951  -0.726  0.00  0.00    +0.382 N 
ATOM      2  C   UNL     1      -2.014   7.155  -0.138  0.00  0.00    -0.078 C 
ATOM      3  C   UNL     1      -1.084   6.018  -0.570  0.00  0.00    -0.015 C 
ATOM      4  C   UNL     1      -1.669   4.682  -0.104  0.00  0.00    -0.010 C 
ATOM      5  C   UNL     1      -3.074   4.516  -0.690  0.00  0.00    -0.015 C 
ATOM      6  C   UNL     1      -3.945   5.697  -0.257  0.00  0.00    -0.078 C 
ATOM      7  H   UNL     1      -3.220   6.876  -1.817  0.00  0.00    -0.081 HD
ENDROOT
BRANCH   4   8
ATOM      8  C   UNL     1      -0.775   3.537  -0.585  0.00  0.00    +0.011 C 
ATOM      9  C   UNL     1       0.660   3.674  -0.013  0.00  0.00    +0.024 C 
ATOM     10  C   UNL     1       1.167   2.217   0.003  0.00  0.00    +0.108 C 
ATOM     11  N   UNL     1      -0.016   1.344   0.009  0.00  0.00    -0.296 N 
ATOM     12  C   UNL     1      -1.226   2.186   0.019  0.00  0.00    +0.112 C 
ATOM     13  C   UNL     1       0.002  -0.004   0.002  0.00  0.00    +0.267 C 
ATOM     14  O   UNL     1      -1.042  -0.626   0.008  0.00  0.00    -0.268 OA
BRANCH  13  15
ATOM     15  C   UNL     1       1.292  -0.726  -0.014  0.00  0.00    +0.149 A 
ATOM     16  C   UNL     1       1.306  -2.125  -0.015  0.00  0.00    +0.207 A 
ATOM     17  C   UNL     1       2.532  -2.786  -0.030  0.00  0.00    +0.054 A 
ATOM     18  C   UNL     1       3.689  -2.029  -0.031  0.00  0.00    +0.021 A 
ATOM     19  C   UNL     1       3.598  -0.644  -0.024  0.00  0.00    +0.083 A 
ATOM     20  N   UNL     1       2.431  -0.042  -0.015  0.00  0.00    -0.354 N 
ATOM     21  O   UNL     1       0.145  -2.826  -0.003  0.00  0.00    -0.286 OA
ATOM     22  H   UNL     1       2.412   1.058  -0.009  0.00  0.00    +0.166 HD
ENDBRANCH  13  15
ENDBRANCH   4   8
BRANCH   1  23
ATOM     23  C   UNL     1      -4.223   8.094  -0.447  0.00  0.00    -0.040 C 
BRANCH  23  26
ATOM     24  C   UNL     1      -6.784   8.577  -3.180  0.00  0.00    +0.003 A 
ATOM     25  C   UNL     1      -5.630   8.695  -2.429  0.00  0.00    +0.005 A 
ATOM     26  C   UNL     1      -5.485   7.968  -1.262  0.00  0.00    -0.026 A 
ATOM     27  C   UNL     1      -6.500   7.127  -0.841  0.00  0.00    +0.160 A 
ATOM     28  C   UNL     1      -7.660   7.012  -1.591  0.00  0.00    +0.159 A 
ATOM     29  C   UNL     1      -7.800   7.739  -2.761  0.00  0.00    +0.041 A 
ATOM     30  F   UNL     1      -8.652   6.192  -1.182  0.00  0.00    -0.202 F 
ATOM     31  F   UNL     1      -6.361   6.419   0.302  0.00  0.00    -0.202 F 
ENDBRANCH  23  26
ENDBRANCH   1  23
TORSDOF 4
