REMARK  Name = ZINC21106776
REMARK  13 active torsions:
REMARK  status: ('A' for Active; 'I' for Inactive)
REMARK    1  A    between atoms: C_1  and  C_2
REMARK    2  A    between atoms: C_2  and  O_3
REMARK    3  A    between atoms: O_3  and  C_4
REMARK    4  A    between atoms: C_4  and  C_6
REMARK    5  A    between atoms: C_10  and  N_11
REMARK    6  A    between atoms: C_12  and  C_14
REMARK    7  A    between atoms: C_14  and  S_15
REMARK    8  A    between atoms: S_15  and  C_16
REMARK    9  A    between atoms: C_18  and  C_21
REMARK   10  A    between atoms: C_22  and  C_28
REMARK   11  A    between atoms: C_22  and  C_29
REMARK   12  A    between atoms: C_24  and  C_26
REMARK   13  A    between atoms: C_24  and  C_27
REMARK                            x       y       z     vdW  Elec       q    Type
REMARK                         _______ _______ _______ _____ _____    ______ ____
ROOT
ATOM      1  C   UNL     1      -7.718   4.602   7.608  0.00  0.00    +0.091 A 
ATOM      2  C   UNL     1      -9.132   4.876   7.755  0.00  0.00    -0.024 A 
ATOM      3  C   UNL     1      -9.887   4.658   6.653  0.00  0.00    -0.016 A 
ATOM      4  S   UNL     1      -8.737   4.105   5.427  0.00  0.00    -0.079 S 
ATOM      5  C   UNL     1      -7.281   4.157   6.364  0.00  0.00    +0.086 A 
ATOM      6  C   UNL     1     -11.364   4.845   6.535  0.00  0.00    -0.041 C 
ATOM      7  N   UNL     1     -11.921   5.497   7.715  0.00  0.00    +0.389 N 
ATOM      8  C   UNL     1     -11.014   6.237   8.578  0.00  0.00    -0.069 C 
ATOM      9  C   UNL     1      -9.817   5.385   9.016  0.00  0.00    +0.024 C 
ATOM     10  C   UNL     1     -10.506   7.505   7.885  0.00  0.00    -0.010 C 
ATOM     11  C   UNL     1     -11.778   6.665   9.845  0.00  0.00    -0.010 C 
ATOM     12  C   UNL     1     -11.676   5.663   5.275  0.00  0.00    -0.005 C 
ATOM     13  C   UNL     1     -12.017   3.458   6.375  0.00  0.00    -0.005 C 
ATOM     14  H   UNL     1     -12.682   6.229   7.405  0.00  0.00    -0.084 HD
ATOM     15  H   UNL     1     -12.384   4.742   8.368  0.00  0.00    -0.084 HD
ENDROOT
BRANCH   5  16
ATOM     16  N   UNL     1      -5.991   3.834   5.972  0.00  0.00    -0.279 N 
ATOM     17  C   UNL     1      -5.754   3.417   4.713  0.00  0.00    +0.228 C 
ATOM     18  O   UNL     1      -6.669   3.325   3.922  0.00  0.00    -0.275 OA
ATOM     19  H   UNL     1      -5.161   3.918   6.689  0.00  0.00    +0.155 HD
BRANCH  17  20
ATOM     20  C   UNL     1      -4.352   3.066   4.287  0.00  0.00    +0.172 C 
BRANCH  20  21
ATOM     21  S   UNL     1      -4.361   2.545   2.553  0.00  0.00    -0.089 S 
BRANCH  21  22
ATOM     22  C   UNL     1      -2.647   2.205   2.327  0.00  0.00    +0.135 A 
ATOM     23  N   UNL     1      -2.021   1.784   1.244  0.00  0.00    -0.238 NA
ATOM     24  C   UNL     1      -0.718   1.572   1.248  0.00  0.00    +0.047 A 
ATOM     25  C   UNL     1      -0.029   1.806   2.390  0.00  0.00    +0.070 A 
ATOM     26  S   UNL     1      -1.347   2.342   3.471  0.00  0.00    -0.069 S 
ATOM     27  C   UNL     1      -0.013   1.086   0.008  0.00  0.00    +0.066 C 
ENDBRANCH  21  22
ENDBRANCH  20  21
ENDBRANCH  17  20
ENDBRANCH   5  16
BRANCH   1  28
ATOM     28  C   UNL     1      -6.778   4.776   8.717  0.00  0.00    +0.342 C 
ATOM     29  O   UNL     1      -6.221   5.846   8.880  0.00  0.00    -0.245 OA
BRANCH  28  30
ATOM     30  O   UNL     1      -6.528   3.751   9.557  0.00  0.00    -0.461 OA
BRANCH  30  32
ATOM     31  C   UNL     1      -5.431   2.727  11.475  0.00  0.00    +0.048 C 
ATOM     32  C   UNL     1      -5.584   3.996  10.633  0.00  0.00    +0.229 C 
ENDBRANCH  30  32
ENDBRANCH  28  30
ENDBRANCH   1  28
TORSDOF 7
