REMARK  Name = ZINC40110730
REMARK  14 active torsions:
REMARK  status: ('A' for Active; 'I' for Inactive)
REMARK    1  A    between atoms: C_1  and  N_2
REMARK    2  A    between atoms: N_2  and  C_3
REMARK    3  A    between atoms: N_2  and  S_4
REMARK    4  A    between atoms: S_4  and  C_7
REMARK    5  A    between atoms: C_10  and  C_13
REMARK    6  A    between atoms: C_13  and  C_15
REMARK    7  A    between atoms: N_19  and  C_32
REMARK    8  A    between atoms: C_20  and  C_22
REMARK    9  A    between atoms: C_24  and  O_30
REMARK   10  A    between atoms: C_27  and  O_28
REMARK   11  A    between atoms: O_28  and  C_29
REMARK   12  A    between atoms: O_30  and  C_31
REMARK   13  A    between atoms: C_32  and  C_33
REMARK   14  A    between atoms: C_33  and  O_34
REMARK                            x       y       z     vdW  Elec       q    Type
REMARK                         _______ _______ _______ _____ _____    ______ ____
ROOT
ATOM      1  C   UNL     1       6.739  -3.213  -2.587  0.00  0.00    +0.076 C 
ATOM      2  C   UNL     1       8.037  -3.591  -2.538  0.00  0.00    +0.249 C 
ATOM      3  C   UNL     1       8.145  -4.865  -1.795  0.00  0.00    +0.288 C 
ATOM      4  O   UNL     1       9.181  -5.461  -1.581  0.00  0.00    -0.266 OA
ATOM      5  N   UNL     1       6.926  -5.265  -1.391  0.00  0.00    -0.281 N 
ATOM      6  C   UNL     1       5.950  -4.266  -1.845  0.00  0.00    +0.148 C 
ATOM      7  O   UNL     1       9.072  -2.912  -3.084  0.00  0.00    -0.282 OA
ENDROOT
BRANCH   6   8
ATOM      8  C   UNL     1       5.247  -3.651  -0.662  0.00  0.00    +0.023 A 
ATOM      9  C   UNL     1       5.983  -3.119   0.379  0.00  0.00    +0.055 A 
ATOM     10  C   UNL     1       5.335  -2.551   1.466  0.00  0.00    +0.121 A 
ATOM     11  C   UNL     1       3.949  -2.518   1.509  0.00  0.00    +0.049 A 
ATOM     12  C   UNL     1       3.214  -3.050   0.468  0.00  0.00    +0.049 A 
ATOM     13  C   UNL     1       3.861  -3.613  -0.622  0.00  0.00    +0.126 A 
BRANCH  13  14
ATOM     14  O   UNL     1       3.137  -4.132  -1.650  0.00  0.00    -0.495 OA
ATOM     15  C   UNL     1       1.718  -3.969  -1.590  0.00  0.00    +0.277 C 
ENDBRANCH  13  14
BRANCH  10  16
ATOM     16  O   UNL     1       6.060  -2.028   2.491  0.00  0.00    -0.495 OA
ATOM     17  C   UNL     1       5.328  -1.460   3.579  0.00  0.00    +0.277 C 
ENDBRANCH  10  16
ENDBRANCH   6   8
BRANCH   1  18
ATOM     18  C   UNL     1       6.202  -2.010  -3.229  0.00  0.00    +0.195 C 
ATOM     19  O   UNL     1       6.488  -0.909  -2.796  0.00  0.00    -0.287 OA
BRANCH  18  23
ATOM     20  C   UNL     1       3.646  -2.365  -6.604  0.00  0.00    +0.105 A 
ATOM     21  C   UNL     1       3.904  -1.117  -6.063  0.00  0.00    +0.029 A 
ATOM     22  C   UNL     1       4.733  -0.995  -4.968  0.00  0.00    +0.013 A 
ATOM     23  C   UNL     1       5.312  -2.133  -4.403  0.00  0.00    +0.022 A 
ATOM     24  C   UNL     1       5.047  -3.389  -4.954  0.00  0.00    +0.013 A 
ATOM     25  C   UNL     1       4.211  -3.498  -6.046  0.00  0.00    +0.029 A 
BRANCH  20  26
ATOM     26  S   UNL     1       2.586  -2.512  -8.003  0.00  0.00    +0.060 S 
ATOM     27  O   UNL     1       2.933  -3.729  -8.649  0.00  0.00    -0.153 OA
ATOM     28  O   UNL     1       2.619  -1.258  -8.671  0.00  0.00    -0.153 OA
BRANCH  26  30
ATOM     29  C   UNL     1       0.201  -1.529  -7.190  0.00  0.00    +0.131 C 
ATOM     30  N   UNL     1       1.043  -2.703  -7.431  0.00  0.00    -0.183 NA
ATOM     31  C   UNL     1       0.521  -4.046  -7.167  0.00  0.00    +0.131 C 
ENDBRANCH  26  30
ENDBRANCH  20  26
ENDBRANCH  18  23
ENDBRANCH   1  18
BRANCH   5  32
ATOM     32  C   UNL     1       6.626  -6.479  -0.628  0.00  0.00    +0.137 C 
BRANCH  32  33
ATOM     33  C   UNL     1       6.860  -6.216   0.861  0.00  0.00    +0.175 C 
BRANCH  33  34
ATOM     34  O   UNL     1       5.807  -5.397   1.371  0.00  0.00    -0.393 OA
ATOM     35  H   UNL     1       5.919  -5.144   2.298  0.00  0.00    +0.209 HD
ENDBRANCH  33  34
ENDBRANCH  32  33
ENDBRANCH   5  32
TORSDOF 10
