REMARK  Name = ZINC39370923
REMARK  7 active torsions:
REMARK  status: ('A' for Active; 'I' for Inactive)
REMARK    1  A    between atoms: C_1  and  C_2
REMARK    2  A    between atoms: C_4  and  C_24
REMARK    3  A    between atoms: C_5  and  C_9
REMARK    4  A    between atoms: C_6  and  C_8
REMARK    5  A    between atoms: C_11  and  C_22
REMARK    6  A    between atoms: C_12  and  N_21
REMARK    7  A    between atoms: C_17  and  C_20
REMARK                            x       y       z     vdW  Elec       q    Type
REMARK                         _______ _______ _______ _____ _____    ______ ____
ROOT
ATOM      1  C   UNL     1       0.134  -4.251   0.356  0.00  0.00    +0.098 C 
ATOM      2  C   UNL     1       1.228  -4.613   1.344  0.00  0.00    +0.097 C 
ATOM      3  C   UNL     1       0.945  -5.087   2.575  0.00  0.00    +0.195 C 
ATOM      4  O   UNL     1      -0.279  -5.323   3.083  0.00  0.00    -0.448 OA
ATOM      5  C   UNL     1      -1.382  -4.641   2.483  0.00  0.00    +0.343 C 
ATOM      6  C   UNL     1      -1.145  -4.748   0.972  0.00  0.00    +0.030 C 
ATOM      7  C   UNL     1      -2.222  -5.323   0.495  0.00  0.00    +0.066 C 
ATOM      8  N   UNL     1      -3.052  -5.682   1.508  0.00  0.00    -0.155 NA
ATOM      9  N   UNL     1      -2.648  -5.358   2.656  0.00  0.00    -0.138 NA
ATOM     10  C   UNL     1      -2.500  -5.553  -0.968  0.00  0.00    +0.067 C 
ENDROOT
BRANCH   1  15
ATOM     11  C   UNL     1      -0.090   1.478  -0.371  0.00  0.00    +0.044 C 
ATOM     12  C   UNL     1      -0.032  -0.016  -0.181  0.00  0.00    -0.050 A 
ATOM     13  C   UNL     1       1.169  -0.685  -0.327  0.00  0.00    +0.007 A 
ATOM     14  C   UNL     1       1.223  -2.055  -0.153  0.00  0.00    -0.046 A 
ATOM     15  C   UNL     1       0.076  -2.757   0.168  0.00  0.00    -0.029 A 
ATOM     16  C   UNL     1      -1.125  -2.088   0.315  0.00  0.00    -0.046 A 
ATOM     17  C   UNL     1      -1.178  -0.717   0.145  0.00  0.00    +0.007 A 
ATOM     18  C   UNL     1      -2.376  -2.852   0.664  0.00  0.00    +0.044 C 
ATOM     19  C   UNL     1       2.532  -2.785  -0.314  0.00  0.00    +0.044 C 
ENDBRANCH   1  15
BRANCH   3  20
ATOM     20  N   UNL     1       2.014  -5.356   3.392  0.00  0.00    -0.329 N 
ATOM     21  H   UNL     1       2.918  -5.204   3.075  0.00  0.00    +0.145 HD
ATOM     22  H   UNL     1       1.866  -5.699   4.287  0.00  0.00    +0.145 HD
ENDBRANCH   3  20
BRANCH   2  23
ATOM     23  C   UNL     1       2.598  -4.448   0.958  0.00  0.00    +0.101 C 
ATOM     24  N   UNL     1       3.684  -4.317   0.652  0.00  0.00    -0.191 NA
ENDBRANCH   2  23
TORSDOF 3
