REMARK  Name = ZINC64815210
REMARK  9 active torsions:
REMARK  status: ('A' for Active; 'I' for Inactive)
REMARK    1  A    between atoms: C_1  and  C_2
REMARK    2  A    between atoms: C_2  and  C_3
REMARK    3  A    between atoms: C_6  and  N_9
REMARK    4  A    between atoms: C_14  and  C_31
REMARK    5  A    between atoms: C_18  and  C_19
REMARK    6  A    between atoms: C_18  and  C_20
REMARK    7  A    between atoms: N_22  and  C_23
REMARK    8  A    between atoms: C_23  and  C_24
REMARK    9  A    between atoms: C_28  and  C_30
REMARK                            x       y       z     vdW  Elec       q    Type
REMARK                         _______ _______ _______ _____ _____    ______ ____
ROOT
ATOM      1  N   UNL     1      -5.354  -1.901   0.015  0.00  0.00    -0.250 N 
ATOM      2  C   UNL     1      -5.954  -2.107   1.212  0.00  0.00    +0.270 C 
ATOM      3  O   UNL     1      -5.505  -1.643   2.243  0.00  0.00    -0.268 OA
ATOM      4  C   UNL     1      -7.179  -2.922   1.198  0.00  0.00    +0.125 A 
ATOM      5  C   UNL     1      -8.108  -3.170   2.165  0.00  0.00    +0.063 A 
ATOM      6  C   UNL     1      -9.063  -4.010   1.548  0.00  0.00    +0.100 A 
ATOM      7  N   UNL     1      -8.670  -4.214   0.303  0.00  0.00    -0.170 NA
ATOM      8  N   UNL     1      -7.573  -3.607   0.068  0.00  0.00    -0.256 N 
ATOM      9  C   UNL     1      -6.762  -3.582  -1.156  0.00  0.00    +0.179 C 
ATOM     10  C   UNL     1      -6.015  -2.248  -1.238  0.00  0.00    +0.135 C 
ATOM     11  C   UNL     1      -7.008  -1.140  -1.596  0.00  0.00    +0.044 C 
ENDROOT
BRANCH   1  15
ATOM     12  C   UNL     1      -1.542  -0.226  -0.090  0.00  0.00    -0.048 A 
ATOM     13  C   UNL     1      -1.740  -1.454   0.513  0.00  0.00    +0.005 A 
ATOM     14  C   UNL     1      -3.002  -2.013   0.550  0.00  0.00    +0.024 A 
ATOM     15  C   UNL     1      -4.075  -1.339  -0.020  0.00  0.00    +0.038 A 
ATOM     16  C   UNL     1      -3.873  -0.105  -0.625  0.00  0.00    +0.024 A 
ATOM     17  C   UNL     1      -2.609   0.450  -0.654  0.00  0.00    +0.005 A 
BRANCH  12  19
ATOM     18  C   UNL     1       0.008   1.335   1.054  0.00  0.00    +0.009 C 
ATOM     19  C   UNL     1      -0.163   0.380  -0.129  0.00  0.00    +0.032 C 
ENDBRANCH  12  19
ENDBRANCH   1  15
BRANCH   6  20
ATOM     20  C   UNL     1     -10.281  -4.560   2.182  0.00  0.00    +0.039 A 
ATOM     21  C   UNL     1     -11.238  -5.378   1.645  0.00  0.00    +0.018 A 
ATOM     22  C   UNL     1     -12.297  -5.768   2.436  0.00  0.00    +0.008 A 
ATOM     23  C   UNL     1     -12.360  -5.330   3.719  0.00  0.00    +0.046 A 
ATOM     24  S   UNL     1     -10.883  -4.336   3.848  0.00  0.00    -0.095 S 
ENDBRANCH   6  20
BRANCH  10  25
ATOM     25  C   UNL     1      -4.977  -2.337  -2.327  0.00  0.00    +0.239 C 
ATOM     26  O   UNL     1      -5.191  -1.837  -3.411  0.00  0.00    -0.273 OA
ATOM     27  N   UNL     1      -3.812  -2.973  -2.097  0.00  0.00    -0.309 N 
ATOM     28  H   UNL     1      -3.611  -3.311  -1.210  0.00  0.00    +0.149 HD
BRANCH  27  29
ATOM     29  C   UNL     1      -2.848  -3.153  -3.185  0.00  0.00    +0.139 C 
BRANCH  29  30
ATOM     30  C   UNL     1      -1.700  -4.003  -2.704  0.00  0.00    -0.030 A 
ATOM     31  C   UNL     1      -0.635  -3.417  -2.045  0.00  0.00    +0.005 A 
ATOM     32  C   UNL     1       0.418  -4.195  -1.603  0.00  0.00    +0.001 A 
ATOM     33  C   UNL     1       0.406  -5.561  -1.820  0.00  0.00    +0.003 A 
ATOM     34  C   UNL     1      -0.659  -6.147  -2.478  0.00  0.00    -0.050 A 
ATOM     35  C   UNL     1      -1.714  -5.369  -2.916  0.00  0.00    +0.008 A 
ATOM     36  C   UNL     1      -0.671  -7.635  -2.714  0.00  0.00    +0.044 C 
ENDBRANCH  29  30
ENDBRANCH  27  29
ENDBRANCH  10  25
TORSDOF 6
