REMARK  Name = ZINC12278437
REMARK  9 active torsions:
REMARK  status: ('A' for Active; 'I' for Inactive)
REMARK    1  A    between atoms: C_1  and  N_61
REMARK    2  A    between atoms: C_2  and  C_3
REMARK    3  A    between atoms: C_2  and  N_61
REMARK    4  A    between atoms: C_3  and  C_4
REMARK    5  A    between atoms: N_6  and  C_7
REMARK    6  A    between atoms: C_7  and  C_8
REMARK    7  A    between atoms: C_15  and  C_18
REMARK    8  A    between atoms: C_23  and  C_24
REMARK    9  A    between atoms: C_28  and  N_61
REMARK                            x       y       z     vdW  Elec       q    Type
REMARK                         _______ _______ _______ _____ _____    ______ ____
ROOT
ATOM      1  C   UNL     1      -0.894  -2.577   2.490  0.00  0.00    +0.195 C 
ATOM      2  C   UNL     1      -2.303  -2.512   1.853  0.00  0.00    +0.085 C 
ATOM      3  C   UNL     1      -2.033  -1.747   0.572  0.00  0.00    -0.002 A 
ATOM      4  C   UNL     1      -2.775  -1.579  -0.578  0.00  0.00    +0.007 A 
ATOM      5  C   UNL     1      -2.276  -0.822  -1.624  0.00  0.00    +0.001 A 
ATOM      6  C   UNL     1      -1.032  -0.235  -1.517  0.00  0.00    +0.012 A 
ATOM      7  C   UNL     1      -0.278  -0.397  -0.360  0.00  0.00    +0.025 A 
ATOM      8  C   UNL     1      -0.781  -1.165   0.702  0.00  0.00    +0.132 A 
ATOM      9  O   UNL     1      -0.236  -1.433   1.920  0.00  0.00    -0.486 OA
ENDROOT
BRANCH   7  10
ATOM     10  C   UNL     1       1.059   0.235  -0.250  0.00  0.00    -0.003 A 
ATOM     11  C   UNL     1       1.177   1.624  -0.241  0.00  0.00    +0.009 A 
ATOM     12  C   UNL     1       2.424   2.207  -0.139  0.00  0.00    +0.001 A 
ATOM     13  C   UNL     1       3.555   1.416  -0.044  0.00  0.00    +0.001 A 
ATOM     14  C   UNL     1       3.443   0.037  -0.052  0.00  0.00    +0.013 A 
ATOM     15  C   UNL     1       2.201  -0.557  -0.154  0.00  0.00    +0.063 A 
BRANCH  15  16
ATOM     16  C   UNL     1       2.082  -2.059  -0.162  0.00  0.00    +0.418 C 
ATOM     17  F   UNL     1       3.355  -2.629  -0.056  0.00  0.00    -0.166 F 
ATOM     18  F   UNL     1       1.295  -2.470   0.919  0.00  0.00    -0.166 F 
ATOM     19  F   UNL     1       1.484  -2.473  -1.357  0.00  0.00    -0.166 F 
ENDBRANCH  15  16
ENDBRANCH   7  10
BRANCH   1  20
ATOM     20  C   UNL     1      -0.980  -2.451   4.012  0.00  0.00    +0.149 C 
BRANCH  20  23
ATOM     21  C   UNL     1       0.537  -2.426   5.918  0.00  0.00    +0.211 C 
ATOM     22  O   UNL     1      -0.425  -2.290   6.645  0.00  0.00    -0.276 OA
ATOM     23  N   UNL     1       0.366  -2.516   4.584  0.00  0.00    -0.312 N 
ATOM     24  H   UNL     1       1.136  -2.624   4.003  0.00  0.00    +0.149 HD
BRANCH  21  25
ATOM     25  C   UNL     1       1.923  -2.492   6.507  0.00  0.00    +0.077 C 
BRANCH  25  26
ATOM     26  C   UNL     1       1.836  -2.366   8.030  0.00  0.00    -0.070 C 
BRANCH  26  28
ATOM     27  C   UNL     1       3.784  -3.757   8.396  0.00  0.00    -0.096 C 
ATOM     28  N   UNL     1       3.203  -2.412   8.590  0.00  0.00    +0.381 N 
ATOM     29  H   UNL     1       3.787  -1.723   8.101  0.00  0.00    -0.082 HD
BRANCH  28  30
ATOM     30  C   UNL     1       3.171  -2.079  10.029  0.00  0.00    -0.046 C 
ATOM     31  C   UNL     1       2.625  -0.651  10.196  0.00  0.00    +0.009 C 
ATOM     32  C   UNL     1       2.909  -0.191  11.655  0.00  0.00    +0.164 C 
ATOM     33  S   UNL     1       4.608  -0.861  11.895  0.00  0.00    -0.033 S 
ATOM     34  O   UNL     1       5.554   0.140  11.545  0.00  0.00    -0.174 OA
ATOM     35  O   UNL     1       4.685  -1.480  13.172  0.00  0.00    -0.174 OA
ATOM     36  C   UNL     1       4.608  -2.164  10.596  0.00  0.00    +0.151 C 
ENDBRANCH  28  30
ENDBRANCH  26  28
ENDBRANCH  25  26
ENDBRANCH  21  25
ENDBRANCH  20  23
ENDBRANCH   1  20
TORSDOF 8
