REMARK  Name = ZINC67324201
REMARK  7 active torsions:
REMARK  status: ('A' for Active; 'I' for Inactive)
REMARK    1  A    between atoms: C_1  and  C_2
REMARK    2  A    between atoms: C_2  and  C_4
REMARK    3  A    between atoms: C_2  and  N_12
REMARK    4  A    between atoms: N_15  and  C_16
REMARK    5  A    between atoms: C_20  and  N_22
REMARK    6  A    between atoms: C_23  and  O_25
REMARK    7  A    between atoms: O_25  and  C_26
REMARK                            x       y       z     vdW  Elec       q    Type
REMARK                         _______ _______ _______ _____ _____    ______ ____
ROOT
ATOM      1  N   UNL     1      -1.783  -0.059  -0.024  0.00  0.00    -0.292 N 
ATOM      2  C   UNL     1      -2.332  -0.494  -1.175  0.00  0.00    +0.304 C 
ATOM      3  O   UNL     1      -1.805  -0.229  -2.239  0.00  0.00    -0.252 OA
ATOM      4  N   UNL     1      -3.465  -1.224  -1.148  0.00  0.00    -0.269 N 
ATOM      5  H   UNL     1      -2.203  -0.271   0.824  0.00  0.00    +0.151 HD
ATOM      6  H   UNL     1      -3.927  -1.371  -0.308  0.00  0.00    +0.156 HD
ENDROOT
BRANCH   4   7
ATOM      7  C   UNL     1      -3.975  -1.770  -2.333  0.00  0.00    +0.037 A 
ATOM      8  C   UNL     1      -3.108  -2.227  -3.317  0.00  0.00    +0.026 A 
ATOM      9  C   UNL     1      -3.609  -2.766  -4.486  0.00  0.00    +0.042 A 
ATOM     10  C   UNL     1      -4.976  -2.852  -4.680  0.00  0.00    +0.145 A 
ATOM     11  C   UNL     1      -5.848  -2.395  -3.699  0.00  0.00    +0.073 A 
ATOM     12  C   UNL     1      -5.346  -1.859  -2.522  0.00  0.00    +0.049 A 
ATOM     13  F   UNL     1      -5.464  -3.379  -5.825  0.00  0.00    -0.204 F 
BRANCH  11  14
ATOM     14  N   UNL     1      -7.233  -2.481  -3.895  0.00  0.00    -0.248 N 
ATOM     15  C   UNL     1      -8.055  -1.598  -3.294  0.00  0.00    +0.404 C 
ATOM     16  O   UNL     1      -7.592  -0.671  -2.659  0.00  0.00    -0.226 OA
ATOM     17  H   UNL     1      -7.599  -3.176  -4.464  0.00  0.00    +0.158 HD
BRANCH  15  18
ATOM     18  O   UNL     1      -9.390  -1.744  -3.397  0.00  0.00    -0.453 OA
ATOM     19  C   UNL     1     -10.201  -0.772  -2.734  0.00  0.00    +0.282 C 
ENDBRANCH  15  18
ENDBRANCH  11  14
ENDBRANCH   4   7
BRANCH   1  21
ATOM     20  C   UNL     1      -0.903   2.218  -0.181  0.00  0.00    +0.033 C 
ATOM     21  C   UNL     1      -0.551   0.734  -0.054  0.00  0.00    +0.104 C 
BRANCH  21  22
ATOM     22  C   UNL     1       0.222   0.509   1.220  0.00  0.00    +0.008 A 
ATOM     23  C   UNL     1      -0.446   0.188   2.386  0.00  0.00    +0.011 A 
ATOM     24  C   UNL     1       0.262  -0.020   3.555  0.00  0.00    +0.039 A 
ATOM     25  C   UNL     1       1.642   0.094   3.558  0.00  0.00    +0.126 A 
ATOM     26  C   UNL     1       2.312   0.415   2.391  0.00  0.00    +0.077 A 
ATOM     27  C   UNL     1       1.602   0.618   1.219  0.00  0.00    +0.131 A 
ATOM     28  F   UNL     1       2.256   0.926   0.078  0.00  0.00    -0.205 F 
ATOM     29  F   UNL     1       2.334  -0.108   4.701  0.00  0.00    -0.205 F 
ENDBRANCH  21  22
ENDBRANCH   1  21
TORSDOF 5
