REMARK  Name = ZINC36526771
REMARK  18 active torsions:
REMARK  status: ('A' for Active; 'I' for Inactive)
REMARK    1  A    between atoms: C_1  and  C_2
REMARK    2  A    between atoms: C_2  and  C_3
REMARK    3  A    between atoms: C_3  and  C_4
REMARK    4  A    between atoms: C_4  and  C_5
REMARK    5  A    between atoms: C_5  and  C_7
REMARK    6  A    between atoms: C_5  and  C_9
REMARK    7  A    between atoms: C_7  and  C_8
REMARK    8  A    between atoms: N_11  and  C_12
REMARK    9  A    between atoms: N_11  and  C_13
REMARK   10  A    between atoms: C_13  and  C_15
REMARK   11  A    between atoms: C_13  and  C_24
REMARK   12  A    between atoms: C_16  and  O_23
REMARK   13  A    between atoms: C_18  and  O_22
REMARK   14  A    between atoms: C_20  and  O_21
REMARK   15  A    between atoms: N_26  and  C_27
REMARK   16  A    between atoms: C_27  and  S_28
REMARK   17  A    between atoms: S_28  and  C_31
REMARK   18  A    between atoms: C_34  and  C_37
REMARK                            x       y       z     vdW  Elec       q    Type
REMARK                         _______ _______ _______ _____ _____    ______ ____
ROOT
ATOM      1  C   UNL     1      -3.815  -6.112   0.811  0.00  0.00    +0.199 C 
ENDROOT
BRANCH   1   2
ATOM      2  C   UNL     1      -4.762  -6.229  -0.355  0.00  0.00    +0.065 A 
ATOM      3  C   UNL     1      -5.960  -6.912  -0.209  0.00  0.00    +0.129 A 
ATOM      4  C   UNL     1      -6.832  -7.020  -1.282  0.00  0.00    +0.091 A 
ATOM      5  C   UNL     1      -6.505  -6.445  -2.501  0.00  0.00    +0.124 A 
ATOM      6  C   UNL     1      -5.308  -5.761  -2.647  0.00  0.00    +0.091 A 
ATOM      7  C   UNL     1      -4.438  -5.650  -1.572  0.00  0.00    +0.129 A 
BRANCH   7   8
ATOM      8  O   UNL     1      -3.266  -4.976  -1.714  0.00  0.00    -0.506 OA
ATOM      9  H   UNL     1      -2.527  -5.528  -2.004  0.00  0.00    +0.292 HD
ENDBRANCH   7   8
BRANCH   5  10
ATOM     10  O   UNL     1      -7.359  -6.551  -3.553  0.00  0.00    -0.507 OA
ATOM     11  H   UNL     1      -8.004  -5.833  -3.611  0.00  0.00    +0.292 HD
ENDBRANCH   5  10
BRANCH   3  12
ATOM     12  O   UNL     1      -6.280  -7.476   0.985  0.00  0.00    -0.506 OA
ATOM     13  H   UNL     1      -6.825  -6.913   1.552  0.00  0.00    +0.292 HD
ENDBRANCH   3  12
ENDBRANCH   1   2
BRANCH   1  16
ATOM     14  C   UNL     1      -2.611  -4.076   1.394  0.00  0.00    +0.219 C 
ATOM     15  O   UNL     1      -1.571  -4.663   1.183  0.00  0.00    -0.275 OA
ATOM     16  N   UNL     1      -3.786  -4.725   1.280  0.00  0.00    -0.289 N 
ATOM     17  C   UNL     1      -5.036  -4.043   1.625  0.00  0.00    +0.133 C 
BRANCH  14  18
ATOM     18  C   UNL     1      -2.588  -2.620   1.783  0.00  0.00    +0.075 C 
BRANCH  18  19
ATOM     19  C   UNL     1      -1.423  -1.922   1.079  0.00  0.00    +0.009 C 
ATOM     20  C   UNL     1      -1.665  -1.925  -0.432  0.00  0.00    +0.004 C 
ENDBRANCH  18  19
BRANCH  18  21
ATOM     21  C   UNL     1      -2.414  -2.500   3.299  0.00  0.00    +0.013 C 
BRANCH  21  22
ATOM     22  C   UNL     1      -2.516  -1.030   3.709  0.00  0.00    +0.000 C 
BRANCH  22  24
ATOM     23  C   UNL     1      -2.443   0.560   5.635  0.00  0.00    +0.004 C 
ATOM     24  C   UNL     1      -2.341  -0.910   5.224  0.00  0.00    -0.003 C 
ENDBRANCH  22  24
ENDBRANCH  21  22
ENDBRANCH  18  21
ENDBRANCH  14  18
ENDBRANCH   1  16
BRANCH   1  25
ATOM     25  C   UNL     1      -4.280  -7.011   1.928  0.00  0.00    +0.240 C 
ATOM     26  O   UNL     1      -5.034  -6.583   2.776  0.00  0.00    -0.273 OA
ATOM     27  N   UNL     1      -3.858  -8.289   1.985  0.00  0.00    -0.294 N 
ATOM     28  H   UNL     1      -3.210  -8.615   1.341  0.00  0.00    +0.150 HD
BRANCH  27  29
ATOM     29  C   UNL     1      -4.377  -9.187   3.020  0.00  0.00    +0.278 C 
BRANCH  29  30
ATOM     30  S   UNL     1      -5.462 -10.425   2.257  0.00  0.00    +0.013 S 
ATOM     31  O   UNL     1      -5.902 -11.359   3.234  0.00  0.00    -0.168 OA
ATOM     32  O   UNL     1      -6.392  -9.792   1.389  0.00  0.00    -0.168 OA
BRANCH  30  33
ATOM     33  C   UNL     1      -4.410 -11.352   1.190  0.00  0.00    +0.090 A 
ATOM     34  C   UNL     1      -4.213 -10.941  -0.115  0.00  0.00    +0.027 A 
ATOM     35  C   UNL     1      -3.388 -11.669  -0.952  0.00  0.00    +0.005 A 
ATOM     36  C   UNL     1      -2.759 -12.807  -0.484  0.00  0.00    -0.050 A 
ATOM     37  C   UNL     1      -2.955 -13.218   0.822  0.00  0.00    +0.005 A 
ATOM     38  C   UNL     1      -3.777 -12.488   1.660  0.00  0.00    +0.027 A 
ATOM     39  C   UNL     1      -1.861 -13.601  -1.397  0.00  0.00    +0.044 C 
ENDBRANCH  30  33
ENDBRANCH  29  30
ENDBRANCH  27  29
ENDBRANCH   1  25
TORSDOF 14
