REMARK  Name = ZINC08952977
REMARK  9 active torsions:
REMARK  status: ('A' for Active; 'I' for Inactive)
REMARK    1  A    between atoms: C_1  and  C_2
REMARK    2  A    between atoms: C_2  and  C_4
REMARK    3  A    between atoms: C_2  and  S_15
REMARK    4  A    between atoms: N_6  and  C_7
REMARK    5  A    between atoms: C_7  and  C_13
REMARK    6  A    between atoms: S_15  and  C_16
REMARK    7  A    between atoms: N_26  and  C_27
REMARK    8  A    between atoms: C_30  and  O_33
REMARK    9  A    between atoms: O_33  and  C_34
REMARK                            x       y       z     vdW  Elec       q    Type
REMARK                         _______ _______ _______ _____ _____    ______ ____
ROOT
ATOM      1  C   UNL     1      -1.255   3.432   0.130  0.00  0.00    +0.177 A 
ATOM      2  N   UNL     1      -2.360   4.135   0.146  0.00  0.00    -0.223 NA
ATOM      3  C   UNL     1      -3.571   3.551   0.052  0.00  0.00    +0.079 A 
ATOM      4  C   UNL     1      -4.751   4.302   0.069  0.00  0.00    +0.028 A 
ATOM      5  C   UNL     1      -5.957   3.668  -0.028  0.00  0.00    +0.002 A 
ATOM      6  C   UNL     1      -6.032   2.286  -0.144  0.00  0.00    +0.001 A 
ATOM      7  C   UNL     1      -4.896   1.524  -0.164  0.00  0.00    +0.015 A 
ATOM      8  C   UNL     1      -3.651   2.144  -0.066  0.00  0.00    +0.065 A 
ATOM      9  C   UNL     1      -2.399   1.377  -0.087  0.00  0.00    +0.267 A 
ATOM     10  O   UNL     1      -2.403   0.164  -0.192  0.00  0.00    -0.267 OA
ATOM     11  N   UNL     1      -1.240   2.069   0.019  0.00  0.00    -0.255 N 
ENDROOT
BRANCH  11  12
ATOM     12  C   UNL     1      -0.017   1.384   0.010  0.00  0.00    +0.052 A 
ATOM     13  C   UNL     1       0.634   1.142  -1.192  0.00  0.00    +0.030 A 
ATOM     14  C   UNL     1       1.836   0.463  -1.202  0.00  0.00    +0.048 A 
ATOM     15  C   UNL     1       2.394   0.022  -0.010  0.00  0.00    +0.127 A 
ATOM     16  C   UNL     1       1.743   0.264   1.191  0.00  0.00    +0.048 A 
ATOM     17  C   UNL     1       0.541   0.943   1.202  0.00  0.00    +0.030 A 
BRANCH  15  18
ATOM     18  O   UNL     1       3.577  -0.647  -0.020  0.00  0.00    -0.434 OA
BRANCH  18  19
ATOM     19  C   UNL     1       4.191  -0.861  -1.292  0.00  0.00    +0.541 C 
ATOM     20  F   UNL     1       3.331  -1.606  -2.106  0.00  0.00    -0.166 F 
ATOM     21  F   UNL     1       4.452   0.374  -1.897  0.00  0.00    -0.166 F 
ENDBRANCH  18  19
ENDBRANCH  15  18
ENDBRANCH  11  12
BRANCH   1  22
ATOM     22  S   UNL     1       0.283   4.281   0.259  0.00  0.00    -0.075 S 
BRANCH  22  24
ATOM     23  C   UNL     1      -1.101   6.165   1.672  0.00  0.00    +0.029 C 
ATOM     24  C   UNL     1      -0.308   5.988   0.376  0.00  0.00    +0.137 C 
BRANCH  24  25
ATOM     25  C   UNL     1       0.869   6.929   0.373  0.00  0.00    +0.227 C 
ATOM     26  O   UNL     1       1.973   6.519   0.663  0.00  0.00    -0.275 OA
ATOM     27  N   UNL     1       0.694   8.226   0.050  0.00  0.00    -0.296 N 
ATOM     28  H   UNL     1      -0.189   8.553  -0.182  0.00  0.00    +0.150 HD
BRANCH  27  29
ATOM     29  C   UNL     1       1.838   9.140   0.048  0.00  0.00    +0.121 C 
ATOM     30  C   UNL     1       2.455   9.188   1.447  0.00  0.00    +0.041 C 
ATOM     31  C   UNL     1       3.650  10.144   1.445  0.00  0.00    +0.003 C 
ATOM     32  C   UNL     1       3.182  11.545   1.045  0.00  0.00    +0.000 C 
ATOM     33  C   UNL     1       2.565  11.497  -0.354  0.00  0.00    +0.003 C 
ATOM     34  C   UNL     1       1.370  10.541  -0.352  0.00  0.00    +0.041 C 
BRANCH  29  35
ATOM     35  C   UNL     1       2.844   8.666  -0.916  0.00  0.00    +0.088 C 
ATOM     36  N   UNL     1       3.620   8.299  -1.660  0.00  0.00    -0.194 NA
ENDBRANCH  29  35
ENDBRANCH  27  29
ENDBRANCH  24  25
ENDBRANCH  22  24
ENDBRANCH   1  22
TORSDOF 8
