REMARK  Name = ZINC20932327
REMARK  12 active torsions:
REMARK  status: ('A' for Active; 'I' for Inactive)
REMARK    1  A    between atoms: C_1  and  C_2
REMARK    2  A    between atoms: C_2  and  O_3
REMARK    3  A    between atoms: O_3  and  C_4
REMARK    4  A    between atoms: C_4  and  C_6
REMARK    5  A    between atoms: C_6  and  C_7
REMARK    6  A    between atoms: C_11  and  O_31
REMARK    7  A    between atoms: C_12  and  O_29
REMARK    8  A    between atoms: N_17  and  C_18
REMARK    9  A    between atoms: C_18  and  C_19
REMARK   10  A    between atoms: N_21  and  C_22
REMARK   11  A    between atoms: O_29  and  C_30
REMARK   12  A    between atoms: O_31  and  C_32
REMARK                            x       y       z     vdW  Elec       q    Type
REMARK                         _______ _______ _______ _____ _____    ______ ____
ROOT
ATOM      1  C   UNL     1       0.258  -1.611  -1.475  0.00  0.00    -0.026 C 
ATOM      2  C   UNL     1       0.928  -2.958  -1.390  0.00  0.00    -0.054 A 
ATOM      3  C   UNL     1       1.538  -3.463  -2.530  0.00  0.00    +0.051 A 
ATOM      4  C   UNL     1       2.173  -4.691  -2.499  0.00  0.00    +0.162 A 
ATOM      5  C   UNL     1       2.200  -5.423  -1.315  0.00  0.00    +0.162 A 
ATOM      6  C   UNL     1       1.589  -4.917  -0.182  0.00  0.00    +0.053 A 
ATOM      7  C   UNL     1       0.952  -3.686  -0.219  0.00  0.00    -0.044 A 
ATOM      8  C   UNL     1       0.298  -3.179   1.041  0.00  0.00    +0.017 C 
ATOM      9  C   UNL     1       0.033  -1.677   0.924  0.00  0.00    -0.073 C 
ATOM     10  N   UNL     1      -0.662  -1.424  -0.348  0.00  0.00    +0.391 N 
ATOM     11  H   UNL     1      -1.484  -2.148  -0.449  0.00  0.00    -0.080 HD
ENDROOT
BRANCH   5  12
ATOM     12  O   UNL     1       2.825  -6.631  -1.274  0.00  0.00    -0.491 OA
ATOM     13  C   UNL     1       2.812  -7.325  -0.025  0.00  0.00    +0.277 C 
ENDBRANCH   5  12
BRANCH   4  14
ATOM     14  O   UNL     1       2.770  -5.179  -3.619  0.00  0.00    -0.491 OA
ATOM     15  C   UNL     1       2.702  -4.372  -4.795  0.00  0.00    +0.277 C 
ENDBRANCH   4  14
BRANCH   1  16
ATOM     16  C   UNL     1      -0.525  -1.519  -2.786  0.00  0.00    +0.110 C 
BRANCH  16  17
ATOM     17  C   UNL     1      -1.633  -2.540  -2.783  0.00  0.00    +0.306 C 
ATOM     18  O   UNL     1      -1.856  -3.187  -1.787  0.00  0.00    -0.251 OA
BRANCH  17  19
ATOM     19  O   UNL     1      -2.373  -2.732  -3.887  0.00  0.00    -0.465 OA
BRANCH  19  21
ATOM     20  C   UNL     1      -4.152  -3.807  -5.155  0.00  0.00    +0.048 C 
ATOM     21  C   UNL     1      -3.422  -3.732  -3.812  0.00  0.00    +0.229 C 
ENDBRANCH  19  21
ENDBRANCH  17  19
ENDBRANCH  16  17
ENDBRANCH   1  16
BRANCH  10  22
ATOM     22  C   UNL     1      -1.250  -0.078  -0.367  0.00  0.00    +0.020 C 
BRANCH  22  23
ATOM     23  C   UNL     1      -2.349   0.005   0.661  0.00  0.00    +0.201 C 
ATOM     24  O   UNL     1      -2.690  -0.990   1.265  0.00  0.00    -0.278 OA
ATOM     25  N   UNL     1      -2.952   1.184   0.909  0.00  0.00    -0.287 N 
ATOM     26  H   UNL     1      -2.589   2.101   0.422  0.00  0.00    +0.155 HD
BRANCH  25  27
ATOM     27  C   UNL     1      -4.040   1.243   1.787  0.00  0.00    +0.033 A 
ATOM     28  C   UNL     1      -4.947   0.192   1.841  0.00  0.00    +0.024 A 
ATOM     29  C   UNL     1      -6.018   0.251   2.712  0.00  0.00    +0.017 A 
ATOM     30  C   UNL     1      -6.193   1.358   3.522  0.00  0.00    +0.018 A 
ATOM     31  C   UNL     1      -5.294   2.409   3.466  0.00  0.00    +0.017 A 
ATOM     32  C   UNL     1      -4.219   2.353   2.601  0.00  0.00    +0.024 A 
ATOM     33 BR   UNL     1      -7.664   1.437   4.707  0.00  0.00    -0.050 Br
ENDBRANCH  25  27
ENDBRANCH  22  23
ENDBRANCH  10  22
TORSDOF 9
