REMARK  Name = ZINC65816268
REMARK  8 active torsions:
REMARK  status: ('A' for Active; 'I' for Inactive)
REMARK    1  A    between atoms: C_1  and  C_2
REMARK    2  A    between atoms: C_2  and  C_3
REMARK    3  A    between atoms: C_2  and  C_4
REMARK    4  A    between atoms: C_4  and  C_5
REMARK    5  A    between atoms: C_5  and  C_6
REMARK    6  A    between atoms: C_5  and  N_10
REMARK    7  A    between atoms: N_8  and  C_9
REMARK    8  A    between atoms: N_13  and  C_14
REMARK                            x       y       z     vdW  Elec       q    Type
REMARK                         _______ _______ _______ _____ _____    ______ ____
ROOT
ATOM      1  N   UNL     1      -1.481  -0.799  -2.413  0.00  0.00    -0.288 N 
ATOM      2  C   UNL     1      -0.395  -0.245  -2.987  0.00  0.00    +0.305 C 
ATOM      3  O   UNL     1       0.046   0.806  -2.565  0.00  0.00    -0.252 OA
ATOM      4  N   UNL     1       0.202  -0.856  -4.030  0.00  0.00    -0.268 N 
ATOM      5  H   UNL     1      -1.833  -1.638  -2.750  0.00  0.00    +0.151 HD
ATOM      6  H   UNL     1      -0.108  -1.727  -4.324  0.00  0.00    +0.156 HD
ENDROOT
BRANCH   4   7
ATOM      7  C   UNL     1       1.271  -0.232  -4.690  0.00  0.00    +0.051 A 
ATOM      8  C   UNL     1       2.184   0.542  -3.977  0.00  0.00    +0.028 A 
ATOM      9  C   UNL     1       3.223   1.139  -4.668  0.00  0.00    +0.043 A 
ATOM     10  C   UNL     1       3.321   0.947  -6.042  0.00  0.00    +0.099 A 
ATOM     11  N   UNL     1       2.435   0.205  -6.687  0.00  0.00    -0.348 N 
ATOM     12  C   UNL     1       1.435  -0.383  -6.058  0.00  0.00    +0.107 A 
ATOM     13  N   UNL     1       4.364   1.542  -6.748  0.00  0.00    -0.317 N 
ATOM     14  C   UNL     1       5.420   2.384  -6.167  0.00  0.00    +0.106 C 
ATOM     15  C   UNL     1       6.332   2.839  -7.326  0.00  0.00    +0.020 C 
ATOM     16  C   UNL     1       5.414   2.692  -8.569  0.00  0.00    +0.020 C 
ATOM     17  C   UNL     1       4.594   1.429  -8.199  0.00  0.00    +0.106 C 
ATOM     18  H   UNL     1       2.525   0.087  -7.645  0.00  0.00    +0.167 HD
ENDBRANCH   4   7
BRANCH   1  19
ATOM     19  C   UNL     1      -2.130  -0.136  -1.280  0.00  0.00    +0.161 C 
BRANCH  19  20
ATOM     20  C   UNL     1      -3.576  -0.555  -1.213  0.00  0.00    +0.233 C 
ATOM     21  O   UNL     1      -4.020  -1.332  -2.031  0.00  0.00    -0.274 OA
ATOM     22  N   UNL     1      -4.375  -0.067  -0.243  0.00  0.00    -0.317 N 
ATOM     23  C   UNL     1      -5.780  -0.475  -0.178  0.00  0.00    +0.128 C 
ATOM     24  H   UNL     1      -4.019   0.555   0.411  0.00  0.00    +0.148 HD
ENDBRANCH  19  20
BRANCH  19  25
ATOM     25  C   UNL     1      -1.423  -0.533   0.017  0.00  0.00    +0.034 C 
BRANCH  25  27
ATOM     26  C   UNL     1      -0.016   1.532   0.007  0.00  0.00    +0.007 C 
ATOM     27  C   UNL     1       0.011   0.002   0.001  0.00  0.00    -0.015 C 
ATOM     28  C   UNL     1       0.756  -0.500   1.239  0.00  0.00    +0.007 C 
ENDBRANCH  25  27
ENDBRANCH  19  25
ENDBRANCH   1  19
TORSDOF 5
