REMARK  Name = ZINC09361305
REMARK  7 active torsions:
REMARK  status: ('A' for Active; 'I' for Inactive)
REMARK    1  A    between atoms: C_1  and  C_2
REMARK    2  A    between atoms: C_2  and  C_33
REMARK    3  A    between atoms: C_7  and  C_32
REMARK    4  A    between atoms: C_10  and  N_11
REMARK    5  A    between atoms: C_10  and  N_61
REMARK    6  A    between atoms: N_19  and  N_20
REMARK    7  A    between atoms: C_21  and  C_23
REMARK                            x       y       z     vdW  Elec       q    Type
REMARK                         _______ _______ _______ _____ _____    ______ ____
ROOT
ATOM      1  N   UNL     1       0.775   3.152   1.969  0.00  0.00    -0.282 N 
ATOM      2  C   UNL     1       0.140   4.264   2.513  0.00  0.00    +0.044 A 
ATOM      3  C   UNL     1      -0.964   4.379   3.351  0.00  0.00    +0.025 A 
ATOM      4  C   UNL     1      -1.402   5.624   3.754  0.00  0.00    +0.017 A 
ATOM      5  C   UNL     1      -0.750   6.772   3.332  0.00  0.00    +0.019 A 
ATOM      6  C   UNL     1       0.349   6.677   2.500  0.00  0.00    +0.027 A 
ATOM      7  C   UNL     1       0.796   5.426   2.089  0.00  0.00    +0.029 A 
ATOM      8  C   UNL     1       1.913   4.983   1.222  0.00  0.00    +0.153 C 
ATOM      9  N   UNL     1       2.792   5.735   0.606  0.00  0.00    -0.174 NA
ATOM     10  C   UNL     1       1.824   3.509   1.208  0.00  0.00    +0.270 C 
ATOM     11  O   UNL     1       2.567   2.752   0.612  0.00  0.00    -0.268 OA
ATOM     12 BR   UNL     1      -1.364   8.469   3.895  0.00  0.00    -0.050 Br
ENDROOT
BRANCH   9  13
ATOM     13  N   UNL     1       3.791   5.145  -0.180  0.00  0.00    -0.202 N 
ATOM     14  C   UNL     1       4.695   5.918  -0.814  0.00  0.00    +0.265 C 
ATOM     15  O   UNL     1       4.643   7.128  -0.704  0.00  0.00    -0.268 OA
ATOM     16  H   UNL     1       3.832   4.180  -0.268  0.00  0.00    +0.178 HD
BRANCH  14  17
ATOM     17  C   UNL     1       5.747   5.296  -1.643  0.00  0.00    +0.056 A 
ATOM     18  C   UNL     1       6.689   6.089  -2.312  0.00  0.00    +0.016 A 
ATOM     19  C   UNL     1       7.658   5.456  -3.070  0.00  0.00    +0.020 A 
ATOM     20  C   UNL     1       7.659   4.075  -3.152  0.00  0.00    +0.111 A 
ATOM     21  N   UNL     1       6.756   3.354  -2.516  0.00  0.00    -0.263 NA
ATOM     22  C   UNL     1       5.818   3.909  -1.777  0.00  0.00    +0.123 A 
ENDBRANCH  14  17
ENDBRANCH   9  13
BRANCH   1  23
ATOM     23  C   UNL     1       0.357   1.768   2.202  0.00  0.00    +0.039 C 
BRANCH  23  34
ATOM     24  C   UNL     1      -3.342  -1.509   3.168  0.00  0.00    +0.011 C 
ATOM     25  C   UNL     1      -2.583  -0.252   2.671  0.00  0.00    -0.036 C 
ATOM     26  C   UNL     1      -1.180  -0.691   2.314  0.00  0.00    -0.009 C 
ATOM     27  C   UNL     1      -0.613  -0.169   1.005  0.00  0.00    -0.065 C 
ATOM     28  C   UNL     1      -1.728  -0.311  -0.070  0.00  0.00    -0.011 C 
ATOM     29  C   UNL     1      -2.651   0.860   0.364  0.00  0.00    -0.048 C 
ATOM     30  C   UNL     1      -3.430   0.379   1.586  0.00  0.00    +0.011 C 
ATOM     31  C   UNL     1      -1.660   1.957   0.821  0.00  0.00    -0.070 C 
ATOM     32  C   UNL     1      -3.565   1.338  -0.774  0.00  0.00    +0.009 C 
ATOM     33  C   UNL     1      -2.521   0.708   3.876  0.00  0.00    +0.011 C 
ATOM     34  N   UNL     1      -0.367   1.290   0.976  0.00  0.00    +0.393 N 
ATOM     35  H   UNL     1       0.216   1.508   0.160  0.00  0.00    -0.079 HD
ENDBRANCH  23  34
ENDBRANCH   1  23
TORSDOF 4
