REMARK  Name = ZINC34835435
REMARK  13 active torsions:
REMARK  status: ('A' for Active; 'I' for Inactive)
REMARK    1  A    between atoms: C_1  and  C_2
REMARK    2  A    between atoms: C_2  and  C_3
REMARK    3  A    between atoms: C_3  and  N_4
REMARK    4  A    between atoms: N_4  and  C_5
REMARK    5  A    between atoms: C_5  and  C_6
REMARK    6  A    between atoms: C_7  and  C_27
REMARK    7  A    between atoms: N_9  and  C_20
REMARK    8  A    between atoms: C_10  and  N_11
REMARK    9  A    between atoms: N_14  and  C_17
REMARK   10  A    between atoms: C_17  and  C_18
REMARK   11  A    between atoms: C_17  and  C_19
REMARK   12  A    between atoms: C_27  and  C_28
REMARK   13  A    between atoms: C_29  and  C_31
REMARK                            x       y       z     vdW  Elec       q    Type
REMARK                         _______ _______ _______ _____ _____    ______ ____
ROOT
ATOM      1  C   UNL     1      -2.095  -3.291   1.907  0.00  0.00    +0.033 A 
ATOM      2  C   UNL     1      -3.262  -2.542   2.084  0.00  0.00    +0.070 A 
ATOM      3  N   UNL     1      -4.124  -2.892   1.164  0.00  0.00    -0.169 NA
ATOM      4  N   UNL     1      -3.539  -3.881   0.362  0.00  0.00    -0.218 N 
ATOM      5  C   UNL     1      -2.284  -4.109   0.834  0.00  0.00    +0.130 A 
ENDROOT
BRANCH   5   6
ATOM      6  N   UNL     1      -1.362  -5.016   0.318  0.00  0.00    -0.318 N 
ATOM      7  C   UNL     1      -1.555  -6.465   0.479  0.00  0.00    +0.088 C 
ATOM      8  C   UNL     1      -1.401  -7.131  -0.892  0.00  0.00    -0.059 C 
ATOM      9  N   UNL     1      -0.109  -6.753  -1.477  0.00  0.00    +0.383 N 
ATOM     10  C   UNL     1      -0.080  -5.307  -1.734  0.00  0.00    -0.059 C 
ATOM     11  C   UNL     1      -0.170  -4.551  -0.409  0.00  0.00    +0.088 C 
ATOM     12  H   UNL     1       0.632  -6.994  -0.836  0.00  0.00    -0.081 HD
BRANCH   9  13
ATOM     13  C   UNL     1       0.086  -7.477  -2.740  0.00  0.00    -0.075 C 
ATOM     14  C   UNL     1       1.433  -7.084  -3.351  0.00  0.00    -0.014 C 
ATOM     15  C   UNL     1       0.067  -8.983  -2.473  0.00  0.00    -0.014 C 
ENDBRANCH   9  13
ENDBRANCH   5   6
BRANCH   4  16
ATOM     16  C   UNL     1      -4.138  -4.517  -0.734  0.00  0.00    +0.068 A 
ATOM     17  C   UNL     1      -3.377  -4.845  -1.848  0.00  0.00    +0.030 A 
ATOM     18  C   UNL     1      -3.969  -5.472  -2.927  0.00  0.00    +0.040 A 
ATOM     19  C   UNL     1      -5.321  -5.773  -2.899  0.00  0.00    +0.124 A 
ATOM     20  C   UNL     1      -6.081  -5.445  -1.789  0.00  0.00    +0.040 A 
ATOM     21  C   UNL     1      -5.492  -4.824  -0.705  0.00  0.00    +0.030 A 
ATOM     22  F   UNL     1      -5.898  -6.386  -3.955  0.00  0.00    -0.205 F 
ENDBRANCH   4  16
BRANCH   2  23
ATOM     23  C   UNL     1      -3.489  -1.506   3.155  0.00  0.00    +0.054 C 
ATOM     24  C   UNL     1      -3.255  -0.111   2.572  0.00  0.00    +0.010 C 
ENDBRANCH   2  23
BRANCH   1  25
ATOM     25  C   UNL     1      -0.849  -3.204   2.749  0.00  0.00    +0.148 C 
BRANCH  25  26
ATOM     26  N   UNL     1      -0.760  -4.384   3.613  0.00  0.00    -0.297 N 
ATOM     27  C   UNL     1      -1.405  -4.402   4.797  0.00  0.00    +0.219 C 
ATOM     28  O   UNL     1      -2.128  -3.479   5.108  0.00  0.00    -0.275 OA
BRANCH  27  29
ATOM     29  C   UNL     1      -1.228  -5.569   5.734  0.00  0.00    +0.075 C 
ATOM     30  C   UNL     1      -2.244  -6.678   5.394  0.00  0.00    +0.013 C 
ATOM     31  C   UNL     1      -2.653  -7.254   6.772  0.00  0.00    +0.001 C 
ATOM     32  C   UNL     1      -2.705  -5.992   7.668  0.00  0.00    +0.001 C 
ATOM     33  C   UNL     1      -1.521  -5.133   7.180  0.00  0.00    +0.013 C 
ENDBRANCH  27  29
BRANCH  26  34
ATOM     34  C   UNL     1       0.029  -5.544   3.192  0.00  0.00    +0.108 C 
BRANCH  34  36
ATOM     35  C   UNL     1       2.304  -6.577   3.203  0.00  0.00    +0.005 C 
ATOM     36  C   UNL     1       1.480  -5.366   3.644  0.00  0.00    +0.016 C 
ENDBRANCH  34  36
ENDBRANCH  26  34
ENDBRANCH  25  26
ENDBRANCH   1  25
TORSDOF 9
