REMARK  Name = ZINC03841721
REMARK  7 active torsions:
REMARK  status: ('A' for Active; 'I' for Inactive)
REMARK    1  A    between atoms: C_10  and  N_11
REMARK    2  A    between atoms: N_11  and  C_12
REMARK    3  A    between atoms: C_12  and  N_14
REMARK    4  A    between atoms: N_14  and  C_15
REMARK    5  A    between atoms: C_25  and  O_27
REMARK    6  A    between atoms: O_27  and  C_28
REMARK    7  A    between atoms: N_30  and  C_31
REMARK                            x       y       z     vdW  Elec       q    Type
REMARK                         _______ _______ _______ _____ _____    ______ ____
ROOT
ATOM      1  C   UNL     1       1.009   1.853  -0.230  0.00  0.00    +0.129 C 
ATOM      2  C   UNL     1      -0.476   1.560  -0.539  0.00  0.00    +0.185 C 
ATOM      3  O   UNL     1      -0.561   0.121  -0.611  0.00  0.00    -0.368 OA
ATOM      4  C   UNL     1       0.628  -0.305  -1.308  0.00  0.00    +0.192 C 
ATOM      5  C   UNL     1       1.758   0.613  -0.764  0.00  0.00    +0.173 C 
ATOM      6  O   UNL     1       2.382  -0.071   0.325  0.00  0.00    -0.368 OA
ATOM      7  C   UNL     1       1.699  -1.307   0.588  0.00  0.00    +0.207 C 
ATOM      8  C   UNL     1       1.040  -1.696  -0.759  0.00  0.00    +0.235 C 
ENDROOT
BRANCH   1   9
ATOM      9  N   UNL     1       1.450   3.060  -0.932  0.00  0.00    -0.319 N 
ATOM     10  H   UNL     1       1.873   2.988  -1.803  0.00  0.00    +0.148 HD
BRANCH   9  11
ATOM     11  C   UNL     1       1.269   4.271  -0.370  0.00  0.00    +0.135 C 
ATOM     12  S   UNL     1       0.523   4.398   1.166  0.00  0.00    -0.019 S 
BRANCH  11  13
ATOM     13  N   UNL     1       1.675   5.382  -1.016  0.00  0.00    -0.296 N 
ATOM     14  H   UNL     1       2.153   5.307  -1.856  0.00  0.00    +0.154 HD
BRANCH  13  24
ATOM     15  C   UNL     1      -0.202   9.701  -2.832  0.00  0.00    +0.001 A 
ATOM     16  C   UNL     1       0.058   8.452  -3.392  0.00  0.00    +0.001 A 
ATOM     17  C   UNL     1       0.582   7.443  -2.641  0.00  0.00    +0.010 A 
ATOM     18  C   UNL     1       0.864   7.662  -1.284  0.00  0.00    +0.003 A 
ATOM     19  C   UNL     1       0.600   8.932  -0.714  0.00  0.00    -0.016 A 
ATOM     20  C   UNL     1       0.059   9.949  -1.519  0.00  0.00    +0.008 A 
ATOM     21  C   UNL     1       0.883   9.152   0.645  0.00  0.00    +0.008 A 
ATOM     22  C   UNL     1       1.407   8.149   1.402  0.00  0.00    +0.002 A 
ATOM     23  C   UNL     1       1.665   6.896   0.855  0.00  0.00    +0.024 A 
ATOM     24  C   UNL     1       1.407   6.641  -0.475  0.00  0.00    +0.040 A 
ENDBRANCH  13  24
ENDBRANCH  11  13
ENDBRANCH   9  11
ENDBRANCH   1   9
BRANCH   8  25
ATOM     25  O   UNL     1      -0.123  -2.538  -0.546  0.00  0.00    -0.442 OA
BRANCH  25  26
ATOM     26  C   UNL     1       0.051  -3.867  -0.682  0.00  0.00    +0.401 C 
ATOM     27  O   UNL     1       1.145  -4.310  -0.970  0.00  0.00    -0.226 OA
ATOM     28  N   UNL     1      -0.989  -4.705  -0.498  0.00  0.00    -0.278 N 
ATOM     29  H   UNL     1      -1.862  -4.351  -0.267  0.00  0.00    +0.152 HD
BRANCH  28  30
ATOM     30  C   UNL     1      -0.799  -6.150  -0.645  0.00  0.00    +0.076 C 
ATOM     31  C   UNL     1      -0.940  -6.535  -2.119  0.00  0.00    +0.022 C 
ATOM     32  C   UNL     1      -0.742  -8.044  -2.273  0.00  0.00    +0.002 C 
ATOM     33  C   UNL     1      -1.799  -8.784  -1.451  0.00  0.00    +0.000 C 
ATOM     34  C   UNL     1      -1.659  -8.399   0.024  0.00  0.00    +0.002 C 
ATOM     35  C   UNL     1      -1.856  -6.889   0.178  0.00  0.00    +0.022 C 
ENDBRANCH  28  30
ENDBRANCH  25  26
ENDBRANCH   8  25
TORSDOF 7
