REMARK  Name = ZINC40907005
REMARK  8 active torsions:
REMARK  status: ('A' for Active; 'I' for Inactive)
REMARK    1  A    between atoms: C_1  and  C_2
REMARK    2  A    between atoms: C_2  and  C_3
REMARK    3  A    between atoms: C_3  and  N_4
REMARK    4  A    between atoms: C_5  and  C_7
REMARK    5  A    between atoms: C_7  and  N_8
REMARK    6  A    between atoms: C_14  and  C_16
REMARK    7  A    between atoms: C_25  and  C_28
REMARK    8  A    between atoms: C_31  and  C_34
REMARK                            x       y       z     vdW  Elec       q    Type
REMARK                         _______ _______ _______ _____ _____    ______ ____
ROOT
ATOM      1  C   UNL     1       4.550  -8.301  -5.640  0.00  0.00    +0.078 C 
ATOM      2  C   UNL     1       3.607  -8.503  -6.829  0.00  0.00    +0.032 C 
ATOM      3  C   UNL     1       3.305  -9.996  -6.987  0.00  0.00    +0.107 C 
ATOM      4  N   UNL     1       4.575 -10.727  -7.094  0.00  0.00    -0.314 N 
ATOM      5  C   UNL     1       5.590 -10.534  -6.050  0.00  0.00    +0.107 C 
ATOM      6  C   UNL     1       5.867  -9.035  -5.902  0.00  0.00    +0.032 C 
ATOM      7  C   UNL     1       4.811 -11.584  -8.162  0.00  0.00    +0.144 A 
ATOM      8  C   UNL     1       3.937 -11.603  -9.250  0.00  0.00    +0.047 A 
ATOM      9  C   UNL     1       4.213 -12.472 -10.290  0.00  0.00    +0.033 A 
ATOM     10  C   UNL     1       5.351 -13.279 -10.186  0.00  0.00    +0.093 A 
ATOM     11  N   UNL     1       6.125 -13.193  -9.113  0.00  0.00    -0.147 NA
ATOM     12  N   UNL     1       5.870 -12.382  -8.151  0.00  0.00    -0.134 NA
ENDROOT
BRANCH   1  19
ATOM     13  N   UNL     1       2.781  -4.862  -2.534  0.00  0.00    -0.291 NA
ATOM     14  C   UNL     1       4.112  -4.414  -2.963  0.00  0.00    +0.104 C 
ATOM     15  C   UNL     1       4.269  -4.656  -4.468  0.00  0.00    +0.123 C 
ATOM     16  N   UNL     1       3.968  -6.068  -4.747  0.00  0.00    -0.299 N 
ATOM     17  C   UNL     1       2.711  -6.628  -4.229  0.00  0.00    +0.123 C 
ATOM     18  C   UNL     1       2.616  -6.308  -2.733  0.00  0.00    +0.104 C 
ATOM     19  C   UNL     1       4.822  -6.829  -5.460  0.00  0.00    +0.219 C 
ATOM     20  O   UNL     1       5.810  -6.330  -5.957  0.00  0.00    -0.275 OA
BRANCH  13  21
ATOM     21  C   UNL     1       2.526  -4.491  -1.135  0.00  0.00    +0.180 C 
BRANCH  21  23
ATOM     22  N   UNL     1       2.236  -2.417   0.181  0.00  0.00    -0.314 N 
ATOM     23  C   UNL     1       2.462  -2.990  -1.018  0.00  0.00    +0.227 C 
ATOM     24  O   UNL     1       2.614  -2.297  -2.002  0.00  0.00    -0.274 OA
ATOM     25  H   UNL     1       2.114  -2.971   0.968  0.00  0.00    +0.149 HD
BRANCH  22  26
ATOM     26  C   UNL     1       2.174  -0.958   0.296  0.00  0.00    +0.104 C 
BRANCH  26  28
ATOM     27  C   UNL     1       1.843   0.952   1.872  0.00  0.00    +0.005 C 
ATOM     28  C   UNL     1       1.908  -0.572   1.752  0.00  0.00    +0.015 C 
ENDBRANCH  26  28
ENDBRANCH  22  26
ENDBRANCH  21  23
ENDBRANCH  13  21
ENDBRANCH   1  19
BRANCH  10  29
ATOM     29  C   UNL     1       5.691 -14.229 -11.274  0.00  0.00    +0.002 A 
ATOM     30  C   UNL     1       4.882 -14.316 -12.405  0.00  0.00    +0.010 A 
ATOM     31  C   UNL     1       5.204 -15.201 -13.414  0.00  0.00    +0.004 A 
ATOM     32  C   UNL     1       6.327 -16.001 -13.304  0.00  0.00    -0.050 A 
ATOM     33  C   UNL     1       7.134 -15.919 -12.183  0.00  0.00    +0.004 A 
ATOM     34  C   UNL     1       6.825 -15.033 -11.171  0.00  0.00    +0.010 A 
ATOM     35  C   UNL     1       6.673 -16.966 -14.408  0.00  0.00    +0.044 C 
ENDBRANCH  10  29
TORSDOF 6
