REMARK  Name = ZINC19781967
REMARK  6 active torsions:
REMARK  status: ('A' for Active; 'I' for Inactive)
REMARK    1  A    between atoms: C_1  and  C_2
REMARK    2  A    between atoms: C_3  and  C_26
REMARK    3  A    between atoms: C_4  and  C_14
REMARK    4  A    between atoms: C_26  and  O_28
REMARK    5  A    between atoms: O_28  and  C_29
REMARK    6  A    between atoms: C_29  and  C_30
REMARK                            x       y       z     vdW  Elec       q    Type
REMARK                         _______ _______ _______ _____ _____    ______ ____
ROOT
ATOM      1  C   UNL     1      -0.018   1.503   0.010  0.00  0.00    +0.061 C 
ATOM      2  C   UNL     1       0.002  -0.004   0.002  0.00  0.00    +0.016 C 
ATOM      3  C   UNL     1      -1.155  -0.688   0.004  0.00  0.00    +0.065 C 
ATOM      4  C   UNL     1      -1.174  -2.188   0.005  0.00  0.00    +0.099 C 
ATOM      5  C   UNL     1       0.160  -2.746  -0.422  0.00  0.00    +0.024 C 
ATOM      6  C   UNL     1       1.267  -1.974  -0.410  0.00  0.00    +0.015 C 
ATOM      7  N   UNL     1       1.198  -0.667  -0.013  0.00  0.00    -0.321 N 
ATOM      8  C   UNL     1       2.604  -2.524  -0.842  0.00  0.00    +0.051 C 
ATOM      9  C   UNL     1       2.670  -4.019  -0.526  0.00  0.00    +0.014 C 
ATOM     10  C   UNL     1       1.517  -4.721  -1.252  0.00  0.00    +0.080 C 
ATOM     11  C   UNL     1       0.218  -4.091  -0.830  0.00  0.00    +0.162 C 
ATOM     12  O   UNL     1      -0.799  -4.755  -0.843  0.00  0.00    -0.292 OA
ATOM     13  H   UNL     1       2.005  -0.207   0.265  0.00  0.00    +0.152 HD
ENDROOT
BRANCH   4  14
ATOM     14  C   UNL     1      -1.492  -2.678   1.395  0.00  0.00    +0.047 A 
ATOM     15  C   UNL     1      -2.579  -3.440   1.611  0.00  0.00    +0.204 A 
ATOM     16  O   UNL     1      -2.911  -3.902   2.821  0.00  0.00    -0.462 OA
ATOM     17  C   UNL     1      -2.178  -3.639   3.922  0.00  0.00    +0.138 A 
ATOM     18  C   UNL     1      -2.550  -4.136   5.165  0.00  0.00    +0.048 A 
ATOM     19  C   UNL     1      -1.784  -3.853   6.276  0.00  0.00    +0.023 A 
ATOM     20  C   UNL     1      -0.640  -3.075   6.169  0.00  0.00    +0.042 A 
ATOM     21  C   UNL     1      -0.253  -2.572   4.944  0.00  0.00    +0.035 A 
ATOM     22  C   UNL     1      -1.020  -2.852   3.814  0.00  0.00    +0.066 A 
ATOM     23  C   UNL     1      -0.642  -2.342   2.482  0.00  0.00    +0.197 A 
ATOM     24  O   UNL     1       0.354  -1.658   2.322  0.00  0.00    -0.287 OA
ATOM     25 CL   UNL     1       0.308  -2.732   7.582  0.00  0.00    -0.084 Cl
ENDBRANCH   4  14
BRANCH   3  26
ATOM     26  C   UNL     1      -2.380   0.021   0.005  0.00  0.00    +0.338 C 
ATOM     27  O   UNL     1      -2.378   1.238   0.004  0.00  0.00    -0.245 OA
BRANCH  26  28
ATOM     28  O   UNL     1      -3.549  -0.652   0.007  0.00  0.00    -0.459 OA
BRANCH  28  29
ATOM     29  C   UNL     1      -4.747   0.128   0.008  0.00  0.00    +0.264 C 
BRANCH  29  30
ATOM     30  C   UNL     1      -5.961  -0.803   0.010  0.00  0.00    +0.156 C 
ATOM     31  C   UNL     1      -7.270   0.021   0.103  0.00  0.00    +0.037 C 
ATOM     32  C   UNL     1      -8.284  -0.962  -0.543  0.00  0.00    +0.031 C 
ATOM     33  C   UNL     1      -7.423  -1.663  -1.616  0.00  0.00    +0.160 C 
ATOM     34  O   UNL     1      -6.049  -1.511  -1.237  0.00  0.00    -0.373 OA
ENDBRANCH  29  30
ENDBRANCH  28  29
ENDBRANCH  26  28
ENDBRANCH   3  26
TORSDOF 5
