REMARK  Name = ZINC39638973
REMARK  5 active torsions:
REMARK  status: ('A' for Active; 'I' for Inactive)
REMARK    1  A    between atoms: C_5  and  C_7
REMARK    2  A    between atoms: C_7  and  C_8
REMARK    3  A    between atoms: C_8  and  N_9
REMARK    4  A    between atoms: C_10  and  C_12
REMARK    5  A    between atoms: C_23  and  C_25
REMARK                            x       y       z     vdW  Elec       q    Type
REMARK                         _______ _______ _______ _____ _____    ______ ____
ROOT
ATOM      1  C   UNL     1       0.565  -5.858   2.848  0.00  0.00    +0.100 C 
ATOM      2  C   UNL     1      -0.433  -6.800   2.138  0.00  0.00    +0.121 C 
ATOM      3  N   UNL     1      -0.497  -8.000   3.005  0.00  0.00    -0.296 N 
ATOM      4  C   UNL     1      -0.469  -7.460   4.385  0.00  0.00    +0.115 C 
ATOM      5  C   UNL     1       0.538  -6.294   4.323  0.00  0.00    -0.004 C 
ATOM      6  C   UNL     1       1.921  -6.767   4.759  0.00  0.00    -0.010 C 
ATOM      7  C   UNL     1       1.883  -7.142   6.244  0.00  0.00    -0.082 C 
ATOM      8  N   UNL     1       1.471  -5.975   7.034  0.00  0.00    +0.379 N 
ATOM      9  C   UNL     1       0.103  -5.583   6.673  0.00  0.00    -0.082 C 
ATOM     10  C   UNL     1       0.066  -5.143   5.206  0.00  0.00    -0.010 C 
ATOM     11  C   UNL     1      -0.566  -9.291   2.625  0.00  0.00    +0.248 C 
ATOM     12  O   UNL     1      -0.454  -9.586   1.450  0.00  0.00    -0.270 OA
ATOM     13  H   UNL     1       1.505  -6.206   8.015  0.00  0.00    -0.086 HD
ATOM     14  H   UNL     1       2.099  -5.207   6.850  0.00  0.00    -0.086 HD
ENDROOT
BRANCH  11  15
ATOM     15  C   UNL     1      -0.777 -10.348   3.633  0.00  0.00    +0.055 A 
ATOM     16  C   UNL     1      -1.312 -10.033   4.892  0.00  0.00    +0.018 A 
ATOM     17  C   UNL     1      -1.490 -11.044   5.797  0.00  0.00    +0.044 A 
ATOM     18  C   UNL     1      -1.140 -12.346   5.445  0.00  0.00    +0.121 A 
ATOM     19  N   UNL     1      -0.636 -12.617   4.249  0.00  0.00    -0.240 NA
ATOM     20  C   UNL     1      -0.454 -11.675   3.347  0.00  0.00    +0.126 A 
ATOM     21  N   UNL     1      -1.319 -13.372   6.358  0.00  0.00    -0.311 N 
ATOM     22  C   UNL     1      -1.140 -14.778   5.963  0.00  0.00    +0.134 C 
ATOM     23  C   UNL     1      -0.203 -15.448   6.973  0.00  0.00    +0.178 C 
ATOM     24  O   UNL     1      -0.694 -15.219   8.296  0.00  0.00    -0.377 OA
ATOM     25  C   UNL     1      -0.729 -13.841   8.675  0.00  0.00    +0.178 C 
ATOM     26  C   UNL     1      -1.688 -13.087   7.754  0.00  0.00    +0.134 C 
ENDBRANCH  11  15
BRANCH   1  28
ATOM     27  N   UNL     1       1.032  -3.436   2.663  0.00  0.00    -0.315 N 
ATOM     28  C   UNL     1       0.118  -4.425   2.717  0.00  0.00    +0.218 C 
ATOM     29  O   UNL     1      -1.065  -4.161   2.658  0.00  0.00    -0.275 OA
ATOM     30  H   UNL     1       1.978  -3.647   2.710  0.00  0.00    +0.149 HD
BRANCH  27  31
ATOM     31  C   UNL     1       0.598  -2.043   2.535  0.00  0.00    +0.109 C 
BRANCH  31  32
ATOM     32  C   UNL     1       1.823  -1.128   2.498  0.00  0.00    +0.056 C 
BRANCH  32  37
ATOM     33  C   UNL     1       0.899   2.211   0.998  0.00  0.00    +0.000 A 
ATOM     34  C   UNL     1       0.558   2.936   2.124  0.00  0.00    +0.003 A 
ATOM     35  C   UNL     1       0.625   2.347   3.372  0.00  0.00    +0.038 A 
ATOM     36  C   UNL     1       1.035   1.030   3.495  0.00  0.00    +0.127 A 
ATOM     37  C   UNL     1       1.377   0.305   2.366  0.00  0.00    -0.011 A 
ATOM     38  C   UNL     1       1.308   0.896   1.119  0.00  0.00    +0.006 A 
ATOM     39  F   UNL     1       1.102   0.454   4.715  0.00  0.00    -0.205 F 
ENDBRANCH  32  37
ENDBRANCH  31  32
ENDBRANCH  27  31
ENDBRANCH   1  28
TORSDOF 5
