REMARK  Name = ZINC22107632
REMARK  12 active torsions:
REMARK  status: ('A' for Active; 'I' for Inactive)
REMARK    1  A    between atoms: C_1  and  O_2
REMARK    2  A    between atoms: O_2  and  C_3
REMARK    3  A    between atoms: C_5  and  C_17
REMARK    4  A    between atoms: C_8  and  O_9
REMARK    5  A    between atoms: O_9  and  C_10
REMARK    6  A    between atoms: C_10  and  C_11
REMARK    7  A    between atoms: C_17  and  N_18
REMARK    8  A    between atoms: N_18  and  C_19
REMARK    9  A    between atoms: C_19  and  C_20
REMARK   10  A    between atoms: C_20  and  S_21
REMARK   11  A    between atoms: S_21  and  C_22
REMARK   12  A    between atoms: N_26  and  C_27
REMARK                            x       y       z     vdW  Elec       q    Type
REMARK                         _______ _______ _______ _____ _____    ______ ____
ROOT
ATOM      1  C   UNL     1       0.208   6.050  -0.475  0.00  0.00    -0.047 C 
ENDROOT
BRANCH   1   4
ATOM      2  C   UNL     1      -0.787   2.893   1.346  0.00  0.00    +0.163 A 
ATOM      3  C   UNL     1      -0.259   3.751   0.395  0.00  0.00    +0.051 A 
ATOM      4  C   UNL     1      -0.367   5.119   0.561  0.00  0.00    -0.059 A 
ATOM      5  C   UNL     1      -1.002   5.635   1.675  0.00  0.00    +0.025 A 
ATOM      6  C   UNL     1      -1.532   4.784   2.629  0.00  0.00    +0.086 A 
ATOM      7  C   UNL     1      -1.431   3.411   2.465  0.00  0.00    +0.181 A 
ATOM      8 CL   UNL     1      -2.329   5.436   4.027  0.00  0.00    -0.080 Cl
BRANCH   2  10
ATOM      9  C   UNL     1      -0.013   1.086   0.008  0.00  0.00    +0.277 C 
ATOM     10  O   UNL     1      -0.682   1.547   1.184  0.00  0.00    -0.491 OA
ENDBRANCH   2  10
BRANCH   7  11
ATOM     11  O   UNL     1      -1.956   2.573   3.399  0.00  0.00    -0.482 OA
BRANCH  11  12
ATOM     12  C   UNL     1      -1.101   2.184   4.476  0.00  0.00    +0.271 C 
BRANCH  12  13
ATOM     13  C   UNL     1      -1.850   1.261   5.403  0.00  0.00    +0.027 A 
ATOM     14  C   UNL     1      -1.946  -0.090   5.368  0.00  0.00    +0.014 A 
ATOM     15  C   UNL     1      -2.696  -0.734   6.335  0.00  0.00    +0.008 A 
ATOM     16  C   UNL     1      -3.313   0.005   7.288  0.00  0.00    +0.045 A 
ATOM     17  S   UNL     1      -2.833   1.665   6.837  0.00  0.00    -0.098 S 
ENDBRANCH  12  13
ENDBRANCH  11  12
ENDBRANCH   7  11
ENDBRANCH   1   4
BRANCH   1  18
ATOM     18  N   UNL     1      -0.811   6.340  -1.493  0.00  0.00    +0.382 N 
ATOM     19  H   UNL     1      -1.124   5.402  -1.976  0.00  0.00    -0.085 HD
ATOM     20  H   UNL     1      -1.681   6.814  -1.016  0.00  0.00    -0.085 HD
BRANCH  18  21
ATOM     21  C   UNL     1      -0.284   7.247  -2.522  0.00  0.00    -0.071 C 
BRANCH  21  22
ATOM     22  C   UNL     1      -1.371   7.524  -3.561  0.00  0.00    +0.058 C 
BRANCH  22  23
ATOM     23  S   UNL     1      -0.723   8.642  -4.829  0.00  0.00    -0.086 S 
BRANCH  23  24
ATOM     24  C   UNL     1      -2.141   8.786  -5.864  0.00  0.00    +0.214 A 
ATOM     25  N   UNL     1      -3.306   8.203  -5.681  0.00  0.00    -0.101 NA
ATOM     26  N   UNL     1      -4.121   8.521  -6.621  0.00  0.00    -0.022 NA
ATOM     27  N   UNL     1      -3.551   9.316  -7.460  0.00  0.00    -0.038 NA
ATOM     28  N   UNL     1      -2.240   9.525  -6.998  0.00  0.00    -0.187 N 
BRANCH  28  29
ATOM     29  C   UNL     1      -1.248  10.323  -7.584  0.00  0.00    +0.070 A 
ATOM     30  C   UNL     1      -0.351  11.018  -6.784  0.00  0.00    +0.028 A 
ATOM     31  C   UNL     1       0.629  11.799  -7.364  0.00  0.00    +0.002 A 
ATOM     32  C   UNL     1       0.711  11.899  -8.741  0.00  0.00    +0.000 A 
ATOM     33  C   UNL     1      -0.184  11.212  -9.541  0.00  0.00    +0.002 A 
ATOM     34  C   UNL     1      -1.163  10.425  -8.966  0.00  0.00    +0.028 A 
ENDBRANCH  28  29
ENDBRANCH  23  24
ENDBRANCH  22  23
ENDBRANCH  21  22
ENDBRANCH  18  21
ENDBRANCH   1  18
TORSDOF 11
