REMARK  Name = ZINC39530001
REMARK  7 active torsions:
REMARK  status: ('A' for Active; 'I' for Inactive)
REMARK    1  A    between atoms: C_4  and  O_7
REMARK    2  A    between atoms: O_7  and  S_8
REMARK    3  A    between atoms: S_8  and  C_11
REMARK    4  A    between atoms: N_14  and  C_18
REMARK    5  A    between atoms: C_21  and  O_31
REMARK    6  A    between atoms: C_23  and  C_24
REMARK    7  A    between atoms: C_29  and  O_30
REMARK                            x       y       z     vdW  Elec       q    Type
REMARK                         _______ _______ _______ _____ _____    ______ ____
ROOT
ATOM      1  C   UNL     1       3.125  -2.313   1.960  0.00  0.00    +0.133 C 
ATOM      2  C   UNL     1       3.599  -2.713   3.361  0.00  0.00    +0.115 C 
ATOM      3  N   UNL     1       2.851  -3.907   3.784  0.00  0.00    -0.331 N 
ATOM      4  C   UNL     1       2.792  -5.051   2.860  0.00  0.00    +0.086 C 
ATOM      5  C   UNL     1       2.356  -4.541   1.483  0.00  0.00    -0.061 C 
ATOM      6  N   UNL     1       3.255  -3.462   1.054  0.00  0.00    +0.398 N 
ATOM      7  H   UNL     1       3.014  -3.177   0.116  0.00  0.00    -0.083 HD
ATOM      8  H   UNL     1       4.207  -3.794   1.068  0.00  0.00    -0.083 HD
ENDROOT
BRANCH   3   9
ATOM      9  C   UNL     1       2.215  -3.954   5.027  0.00  0.00    +0.038 A 
ATOM     10  C   UNL     1       0.900  -3.533   5.152  0.00  0.00    +0.027 A 
ATOM     11  C   UNL     1       0.270  -3.579   6.381  0.00  0.00    +0.047 A 
ATOM     12  C   UNL     1       0.950  -4.047   7.497  0.00  0.00    +0.118 A 
ATOM     13  C   UNL     1       2.263  -4.470   7.386  0.00  0.00    +0.055 A 
ATOM     14  C   UNL     1       2.902  -4.432   6.149  0.00  0.00    +0.010 A 
BRANCH  14  15
ATOM     15  C   UNL     1       4.307  -4.890   6.022  0.00  0.00    +0.025 A 
ATOM     16  C   UNL     1       4.628  -6.228   6.237  0.00  0.00    +0.012 A 
ATOM     17  C   UNL     1       5.937  -6.650   6.117  0.00  0.00    +0.001 A 
ATOM     18  C   UNL     1       6.932  -5.747   5.785  0.00  0.00    +0.004 A 
ATOM     19  C   UNL     1       6.624  -4.417   5.570  0.00  0.00    +0.046 A 
ATOM     20  C   UNL     1       5.313  -3.982   5.681  0.00  0.00    +0.125 A 
BRANCH  20  21
ATOM     21  O   UNL     1       5.008  -2.676   5.464  0.00  0.00    -0.506 OA
ATOM     22  H   UNL     1       5.054  -2.124   6.257  0.00  0.00    +0.292 HD
ENDBRANCH  20  21
ENDBRANCH  14  15
BRANCH  12  23
ATOM     23  O   UNL     1       0.323  -4.089   8.704  0.00  0.00    -0.507 OA
ATOM     24  H   UNL     1      -0.137  -4.921   8.879  0.00  0.00    +0.292 HD
ENDBRANCH  12  23
ENDBRANCH   3   9
BRANCH   1  25
ATOM     25  S   UNL     1       4.140  -0.941   1.346  0.00  0.00    +0.109 S 
ATOM     26  O   UNL     1       5.471  -1.383   1.113  0.00  0.00    -0.138 OA
ATOM     27  O   UNL     1       3.889   0.232   2.108  0.00  0.00    -0.138 OA
BRANCH  25  28
ATOM     28  O   UNL     1       3.586  -0.632  -0.037  0.00  0.00    -0.347 OA
BRANCH  28  32
ATOM     29  C   UNL     1      -0.017   1.378   0.010  0.00  0.00    +0.000 A 
ATOM     30  C   UNL     1       1.170   2.088   0.002  0.00  0.00    +0.004 A 
ATOM     31  C   UNL     1       2.377   1.417  -0.013  0.00  0.00    +0.048 A 
ATOM     32  C   UNL     1       2.399   0.030  -0.021  0.00  0.00    +0.156 A 
ATOM     33  C   UNL     1       1.207  -0.680  -0.013  0.00  0.00    +0.048 A 
ATOM     34  C   UNL     1       0.002  -0.004   0.002  0.00  0.00    +0.004 A 
ENDBRANCH  28  32
ENDBRANCH  25  28
ENDBRANCH   1  25
TORSDOF 7
