REMARK  Name = ZINC09157991
REMARK  12 active torsions:
REMARK  status: ('A' for Active; 'I' for Inactive)
REMARK    1  A    between atoms: C_1  and  C_2
REMARK    2  A    between atoms: C_7  and  N_12
REMARK    3  A    between atoms: C_9  and  C_11
REMARK    4  A    between atoms: C_18  and  C_20
REMARK    5  A    between atoms: C_18  and  C_21
REMARK    6  A    between atoms: C_22  and  C_25
REMARK    7  A    between atoms: C_22  and  N_29
REMARK    8  A    between atoms: C_30  and  C_32
REMARK    9  A    between atoms: C_35  and  O_38
REMARK   10  A    between atoms: O_38  and  C_39
REMARK   11  A    between atoms: C_39  and  C_40
REMARK   12  A    between atoms: C_39  and  C_41
REMARK                            x       y       z     vdW  Elec       q    Type
REMARK                         _______ _______ _______ _____ _____    ______ ____
ROOT
ATOM      1  N   UNL     1       1.506   3.818   0.296  0.00  0.00    -0.269 N 
ATOM      2  C   UNL     1       1.873   4.728   1.234  0.00  0.00    +0.024 C 
ATOM      3  C   UNL     1       1.579   5.995   0.837  0.00  0.00    +0.053 C 
ATOM      4  C   UNL     1       1.857   7.134   1.606  0.00  0.00    +0.164 C 
ATOM      5  O   UNL     1       1.545   8.243   1.220  0.00  0.00    -0.292 OA
ATOM      6  C   UNL     1       2.546   6.936   2.939  0.00  0.00    +0.086 C 
ATOM      7  C   UNL     1       2.151   5.583   3.533  0.00  0.00    -0.023 C 
ATOM      8  C   UNL     1       2.529   4.450   2.572  0.00  0.00    +0.058 C 
ATOM      9  C   UNL     1       0.640   5.559   3.775  0.00  0.00    +0.011 C 
ATOM     10  C   UNL     1       2.877   5.383   4.864  0.00  0.00    +0.011 C 
ATOM     11  C   UNL     1       0.928   5.885  -0.514  0.00  0.00    +0.237 C 
ATOM     12  C   UNL     1       0.931   4.390  -0.781  0.00  0.00    +0.257 C 
ATOM     13  O   UNL     1       0.502   3.825  -1.764  0.00  0.00    -0.272 OA
ENDROOT
BRANCH   1  19
ATOM     14  C   UNL     1      -0.794  -0.555   0.488  0.00  0.00    +0.008 C 
ATOM     15  C   UNL     1       0.560   0.155   0.539  0.00  0.00    -0.009 C 
ATOM     16  C   UNL     1       1.446  -0.353  -0.600  0.00  0.00    +0.003 C 
ATOM     17  C   UNL     1       2.800   0.357  -0.549  0.00  0.00    +0.002 C 
ATOM     18  C   UNL     1       2.591   1.865  -0.699  0.00  0.00    +0.023 C 
ATOM     19  C   UNL     1       1.706   2.373   0.440  0.00  0.00    +0.084 C 
ATOM     20  C   UNL     1       0.351   1.663   0.389  0.00  0.00    +0.010 C 
ATOM     21  C   UNL     1      -0.535   2.172   1.528  0.00  0.00    +0.009 C 
ENDBRANCH   1  19
BRANCH  11  22
ATOM     22  C   UNL     1      -0.503   6.423  -0.470  0.00  0.00    +0.424 C 
ATOM     23  F   UNL     1      -1.221   5.757   0.529  0.00  0.00    -0.167 F 
ATOM     24  F   UNL     1      -0.477   7.794  -0.191  0.00  0.00    -0.167 F 
ATOM     25  F   UNL     1      -1.119   6.211  -1.708  0.00  0.00    -0.167 F 
ENDBRANCH  11  22
BRANCH  11  26
ATOM     26  N   UNL     1       1.717   6.591  -1.527  0.00  0.00    -0.287 N 
ATOM     27  C   UNL     1       1.356   6.533  -2.824  0.00  0.00    +0.245 C 
ATOM     28  O   UNL     1       0.376   5.894  -3.154  0.00  0.00    -0.270 OA
ATOM     29  H   UNL     1       2.499   7.101  -1.264  0.00  0.00    +0.151 HD
BRANCH  27  30
ATOM     30  C   UNL     1       2.151   7.245  -3.844  0.00  0.00    +0.037 A 
ATOM     31  C   UNL     1       3.274   7.985  -3.466  0.00  0.00    +0.016 A 
ATOM     32  C   UNL     1       4.016   8.643  -4.421  0.00  0.00    +0.046 A 
ATOM     33  C   UNL     1       3.642   8.582  -5.759  0.00  0.00    +0.121 A 
ATOM     34  C   UNL     1       2.522   7.852  -6.138  0.00  0.00    +0.046 A 
ATOM     35  C   UNL     1       1.778   7.186  -5.189  0.00  0.00    +0.016 A 
BRANCH  33  36
ATOM     36  O   UNL     1       4.373   9.236  -6.697  0.00  0.00    -0.489 OA
BRANCH  36  37
ATOM     37  C   UNL     1       3.867   9.232  -8.033  0.00  0.00    +0.167 C 
ATOM     38  C   UNL     1       4.403  10.450  -8.786  0.00  0.00    +0.051 C 
ATOM     39  C   UNL     1       4.317   7.954  -8.744  0.00  0.00    +0.051 C 
ENDBRANCH  36  37
ENDBRANCH  33  36
ENDBRANCH  27  30
ENDBRANCH  11  26
TORSDOF 6
