REMARK  Name = ZINC00931339
REMARK  11 active torsions:
REMARK  status: ('A' for Active; 'I' for Inactive)
REMARK    1  A    between atoms: C_1  and  C_2
REMARK    2  A    between atoms: C_3  and  C_8
REMARK    3  A    between atoms: N_5  and  C_7
REMARK    4  A    between atoms: C_8  and  C_10
REMARK    5  A    between atoms: C_8  and  N_19
REMARK    6  A    between atoms: N_12  and  C_13
REMARK    7  A    between atoms: N_19  and  C_20
REMARK    8  A    between atoms: C_23  and  C_26
REMARK    9  A    between atoms: C_26  and  C_27
REMARK   10  A    between atoms: C_26  and  C_28
REMARK   11  A    between atoms: C_29  and  C_31
REMARK                            x       y       z     vdW  Elec       q    Type
REMARK                         _______ _______ _______ _____ _____    ______ ____
ROOT
ATOM      1  N   UNL     1      -3.198   0.570   6.119  0.00  0.00    -0.252 N 
ATOM      2  C   UNL     1      -2.220   1.060   6.906  0.00  0.00    +0.265 C 
ATOM      3  O   UNL     1      -1.725   0.361   7.765  0.00  0.00    -0.271 OA
ENDROOT
BRANCH   2   4
ATOM      4  C   UNL     1      -1.740   2.477   6.718  0.00  0.00    +0.296 C 
ATOM      5  C   UNL     1      -2.829   3.456   7.178  0.00  0.00    +0.283 C 
ATOM      6  O   UNL     1      -2.337   4.789   6.999  0.00  0.00    -0.484 OA
ATOM      7  C   UNL     1      -1.072   5.037   7.436  0.00  0.00    +0.162 A 
ATOM      8  C   UNL     1      -0.663   6.349   7.628  0.00  0.00    +0.049 A 
ATOM      9  C   UNL     1       0.619   6.617   8.069  0.00  0.00    +0.004 A 
ATOM     10  C   UNL     1       1.497   5.580   8.320  0.00  0.00    +0.004 A 
ATOM     11  C   UNL     1       1.096   4.271   8.132  0.00  0.00    +0.049 A 
ATOM     12  C   UNL     1      -0.190   3.994   7.691  0.00  0.00    +0.163 A 
ATOM     13  O   UNL     1      -0.571   2.700   7.514  0.00  0.00    -0.472 OA
ENDBRANCH   2   4
BRANCH   1  14
ATOM     14  C   UNL     1      -3.694  -0.720   6.340  0.00  0.00    +0.038 A 
ATOM     15  C   UNL     1      -4.601  -1.278   5.450  0.00  0.00    +0.024 A 
ATOM     16  C   UNL     1      -5.084  -2.554   5.668  0.00  0.00    +0.006 A 
ATOM     17  C   UNL     1      -4.674  -3.270   6.777  0.00  0.00    -0.045 A 
ATOM     18  C   UNL     1      -3.774  -2.714   7.669  0.00  0.00    +0.006 A 
ATOM     19  C   UNL     1      -3.284  -1.441   7.454  0.00  0.00    +0.024 A 
BRANCH  17  20
ATOM     20  C   UNL     1      -5.207  -4.659   7.016  0.00  0.00    +0.013 C 
ATOM     21  C   UNL     1      -6.730  -4.603   7.153  0.00  0.00    +0.012 C 
ATOM     22  C   UNL     1      -4.834  -5.558   5.835  0.00  0.00    +0.012 C 
ENDBRANCH  17  20
ENDBRANCH   1  14
BRANCH   1  23
ATOM     23  C   UNL     1      -3.744   1.388   5.033  0.00  0.00    +0.200 C 
BRANCH  23  26
ATOM     24  C   UNL     1      -5.437   3.763   3.794  0.00  0.00    +0.068 C 
ATOM     25  C   UNL     1      -5.948   2.718   4.752  0.00  0.00    +0.065 A 
ATOM     26  C   UNL     1      -5.200   1.670   5.299  0.00  0.00    +0.022 A 
ATOM     27  C   UNL     1      -6.013   0.958   6.113  0.00  0.00    +0.114 A 
ATOM     28  N   UNL     1      -7.234   1.531   6.078  0.00  0.00    -0.274 N 
ATOM     29  N   UNL     1      -7.170   2.632   5.214  0.00  0.00    -0.176 NA
ATOM     30  C   UNL     1      -8.419   1.082   6.814  0.00  0.00    +0.172 C 
ENDBRANCH  23  26
BRANCH  23  31
ATOM     31  C   UNL     1      -3.605   0.647   3.728  0.00  0.00    +0.239 C 
ATOM     32  O   UNL     1      -3.101  -0.456   3.708  0.00  0.00    -0.273 OA
ATOM     33  N   UNL     1      -4.042   1.210   2.584  0.00  0.00    -0.311 N 
ATOM     34  H   UNL     1      -4.445   2.092   2.600  0.00  0.00    +0.149 HD
BRANCH  33  35
ATOM     35  C   UNL     1      -3.908   0.489   1.316  0.00  0.00    +0.073 C 
ATOM     36  C   UNL     1      -2.514   0.737   0.734  0.00  0.00    +0.022 C 
ATOM     37  C   UNL     1      -2.374  -0.015  -0.591  0.00  0.00    +0.002 C 
ATOM     38  C   UNL     1      -3.434   0.483  -1.576  0.00  0.00    +0.000 C 
ATOM     39  C   UNL     1      -4.827   0.235  -0.994  0.00  0.00    +0.002 C 
ATOM     40  C   UNL     1      -4.968   0.988   0.331  0.00  0.00    +0.022 C 
ENDBRANCH  33  35
ENDBRANCH  23  31
ENDBRANCH   1  23
TORSDOF 7
