REMARK  Name = ZINC11012630
REMARK  9 active torsions:
REMARK  status: ('A' for Active; 'I' for Inactive)
REMARK    1  A    between atoms: C_1  and  N_55
REMARK    2  A    between atoms: C_2  and  C_3
REMARK    3  A    between atoms: C_2  and  N_55
REMARK    4  A    between atoms: C_5  and  N_10
REMARK    5  A    between atoms: C_13  and  C_14
REMARK    6  A    between atoms: C_13  and  N_55
REMARK    7  A    between atoms: N_16  and  C_17
REMARK    8  A    between atoms: N_16  and  C_23
REMARK    9  A    between atoms: C_17  and  C_18
REMARK                            x       y       z     vdW  Elec       q    Type
REMARK                         _______ _______ _______ _____ _____    ______ ____
ROOT
ATOM      1  C   UNL     1       4.778   0.020  -0.156  0.00  0.00    +0.204 C 
ATOM      2  O   UNL     1       4.769   1.233  -0.149  0.00  0.00    -0.277 OA
ATOM      3  N   UNL     1       3.621  -0.663  -0.044  0.00  0.00    -0.268 N 
ENDROOT
BRANCH   3   4
ATOM      4  C   UNL     1       2.401   0.025  -0.020  0.00  0.00    +0.040 A 
ATOM      5  C   UNL     1       1.643   0.054   1.143  0.00  0.00    +0.027 A 
ATOM      6  C   UNL     1       0.440   0.732   1.167  0.00  0.00    +0.051 A 
ATOM      7  C   UNL     1      -0.015   1.385   0.031  0.00  0.00    +0.162 A 
ATOM      8  C   UNL     1       0.743   1.360  -1.134  0.00  0.00    +0.164 A 
ATOM      9  C   UNL     1       1.950   0.679  -1.158  0.00  0.00    +0.073 A 
ATOM     10  O   UNL     1       0.317   2.003  -2.256  0.00  0.00    -0.485 OA
ATOM     11  C   UNL     1      -1.068   2.359  -2.307  0.00  0.00    +0.270 C 
ATOM     12  C   UNL     1      -1.450   2.999  -0.965  0.00  0.00    +0.270 C 
ATOM     13  O   UNL     1      -1.208   2.042   0.072  0.00  0.00    -0.485 OA
ENDBRANCH   3   4
BRANCH   1  14
ATOM     14  C   UNL     1       6.082  -0.724  -0.289  0.00  0.00    +0.019 C 
BRANCH  14  16
ATOM     15  C   UNL     1       7.343   0.999   0.854  0.00  0.00    -0.095 C 
ATOM     16  N   UNL     1       7.180   0.258  -0.415  0.00  0.00    +0.386 N 
ATOM     17  H   UNL     1       6.948   0.923  -1.162  0.00  0.00    -0.081 HD
BRANCH  16  18
ATOM     18  C   UNL     1       8.439  -0.434  -0.761  0.00  0.00    -0.041 C 
BRANCH  18  19
ATOM     19  C   UNL     1       9.484   0.598  -1.098  0.00  0.00    -0.043 A 
ATOM     20  C   UNL     1      10.500   0.871  -0.202  0.00  0.00    +0.036 A 
ATOM     21  C   UNL     1      11.462   1.814  -0.513  0.00  0.00    +0.126 A 
ATOM     22  C   UNL     1      11.402   2.492  -1.716  0.00  0.00    +0.034 A 
ATOM     23  C   UNL     1      10.383   2.224  -2.611  0.00  0.00    +0.022 A 
ATOM     24  C   UNL     1       9.423   1.276  -2.302  0.00  0.00    +0.042 A 
ATOM     25 CL   UNL     1       8.144   0.939  -3.426  0.00  0.00    -0.083 Cl
BRANCH  21  26
ATOM     26  N   UNL     1      12.553   2.103   0.445  0.00  0.00    +0.056 N 
ATOM     27  O   UNL     1      13.397   2.937   0.173  0.00  0.00    -0.126 OA
ATOM     28  O   UNL     1      12.605   1.506   1.505  0.00  0.00    -0.126 OA
ENDBRANCH  21  26
ENDBRANCH  18  19
ENDBRANCH  16  18
ENDBRANCH  14  16
ENDBRANCH   1  14
BRANCH   3  29
ATOM     29  C   UNL     1       3.640  -2.125   0.052  0.00  0.00    +0.156 C 
BRANCH  29  30
ATOM     30  C   UNL     1       3.565  -2.720  -1.331  0.00  0.00    +0.007 A 
ATOM     31  C   UNL     1       4.574  -3.047  -2.175  0.00  0.00    +0.013 A 
ATOM     32  C   UNL     1       4.267  -3.588  -3.409  0.00  0.00    +0.008 A 
ATOM     33  C   UNL     1       2.965  -3.774  -3.740  0.00  0.00    +0.045 A 
ATOM     34  S   UNL     1       2.125  -3.183  -2.279  0.00  0.00    -0.100 S 
ENDBRANCH  29  30
ENDBRANCH   3  29
TORSDOF 8
