REMARK  Name = ZINC36082891
REMARK  11 active torsions:
REMARK  status: ('A' for Active; 'I' for Inactive)
REMARK    1  A    between atoms: C_1  and  C_2
REMARK    2  A    between atoms: C_7  and  C_8
REMARK    3  A    between atoms: C_8  and  N_9
REMARK    4  A    between atoms: N_9  and  C_10
REMARK    5  A    between atoms: N_9  and  C_17
REMARK    6  A    between atoms: C_10  and  C_11
REMARK    7  A    between atoms: C_17  and  C_18
REMARK    8  A    between atoms: C_20  and  C_23
REMARK    9  A    between atoms: N_25  and  C_26
REMARK   10  A    between atoms: C_26  and  C_28
REMARK   11  A    between atoms: C_26  and  C_29
REMARK                            x       y       z     vdW  Elec       q    Type
REMARK                         _______ _______ _______ _____ _____    ______ ____
ROOT
ATOM      1  C   UNL     1      -0.952   2.163   3.480  0.00  0.00    +0.020 C 
ENDROOT
BRANCH   1   2
ATOM      2  C   UNL     1      -0.252   3.353   2.875  0.00  0.00    +0.179 A 
ATOM      3  N   UNL     1      -0.840   4.362   2.306  0.00  0.00    -0.210 NA
ATOM      4  C   UNL     1       0.114   5.235   1.883  0.00  0.00    +0.163 A 
ATOM      5  C   UNL     1       1.321   4.705   2.224  0.00  0.00    +0.230 A 
ATOM      6  O   UNL     1       1.075   3.539   2.843  0.00  0.00    -0.449 OA
BRANCH   4   7
ATOM      7  C   UNL     1      -0.115   6.514   1.187  0.00  0.00    +0.266 C 
ATOM      8  O   UNL     1       0.829   7.161   0.776  0.00  0.00    -0.268 OA
ATOM      9  N   UNL     1      -1.372   6.966   1.004  0.00  0.00    -0.303 N 
ATOM     10  H   UNL     1      -2.120   6.489   1.395  0.00  0.00    +0.150 HD
BRANCH   9  11
ATOM     11  C   UNL     1      -1.607   8.178   0.215  0.00  0.00    +0.100 C 
ATOM     12  C   UNL     1      -1.451   9.408   1.111  0.00  0.00    +0.033 C 
BRANCH  11  13
ATOM     13  C   UNL     1      -3.002   8.144  -0.354  0.00  0.00    -0.027 A 
ATOM     14  C   UNL     1      -4.051   7.679   0.417  0.00  0.00    +0.005 A 
ATOM     15  C   UNL     1      -5.331   7.648  -0.104  0.00  0.00    +0.000 A 
ATOM     16  C   UNL     1      -5.562   8.082  -1.397  0.00  0.00    +0.000 A 
ATOM     17  C   UNL     1      -4.512   8.547  -2.167  0.00  0.00    +0.000 A 
ATOM     18  C   UNL     1      -3.233   8.582  -1.644  0.00  0.00    +0.005 A 
ENDBRANCH  11  13
ENDBRANCH   9  11
ENDBRANCH   4   7
ENDBRANCH   1   2
BRANCH   1  19
ATOM     19  N   UNL     1      -1.249   1.182   2.428  0.00  0.00    +0.391 N 
ATOM     20  H   UNL     1      -1.776   1.627   1.692  0.00  0.00    -0.080 HD
BRANCH  19  21
ATOM     21  C   UNL     1       0.009   0.657   1.879  0.00  0.00    -0.042 C 
BRANCH  21  28
ATOM     22  C   UNL     1      -0.576   1.771  -0.721  0.00  0.00    +0.044 C 
ATOM     23  C   UNL     1      -0.572   0.277  -0.525  0.00  0.00    -0.049 A 
ATOM     24  C   UNL     1      -0.842  -0.561  -1.591  0.00  0.00    +0.003 A 
ATOM     25  C   UNL     1      -0.838  -1.931  -1.412  0.00  0.00    +0.000 A 
ATOM     26  C   UNL     1      -0.563  -2.465  -0.166  0.00  0.00    +0.000 A 
ATOM     27  C   UNL     1      -0.292  -1.627   0.899  0.00  0.00    +0.002 A 
ATOM     28  C   UNL     1      -0.292  -0.256   0.719  0.00  0.00    -0.061 A 
ENDBRANCH  21  28
ENDBRANCH  19  21
BRANCH  19  29
ATOM     29  C   UNL     1      -2.034   0.078   2.995  0.00  0.00    -0.042 C 
BRANCH  29  30
ATOM     30  C   UNL     1      -3.380   0.594   3.435  0.00  0.00    -0.064 A 
ATOM     31  C   UNL     1      -3.584   0.960   4.752  0.00  0.00    +0.002 A 
ATOM     32  C   UNL     1      -4.818   1.433   5.156  0.00  0.00    +0.000 A 
ATOM     33  C   UNL     1      -5.850   1.540   4.241  0.00  0.00    +0.000 A 
ATOM     34  C   UNL     1      -5.646   1.174   2.924  0.00  0.00    +0.000 A 
ATOM     35  C   UNL     1      -4.410   0.705   2.520  0.00  0.00    +0.002 A 
ENDBRANCH  29  30
ENDBRANCH  19  29
ENDBRANCH   1  19
TORSDOF 9
