REMARK  Name = ZINC42880327
REMARK  3 active torsions:
REMARK  status: ('A' for Active; 'I' for Inactive)
REMARK    1  A    between atoms: C_5  and  C_7
REMARK    2  A    between atoms: C_7  and  N_8
REMARK    3  A    between atoms: C_14  and  C_17
REMARK                            x       y       z     vdW  Elec       q    Type
REMARK                         _______ _______ _______ _____ _____    ______ ____
ROOT
ATOM      1  N   UNL     1       1.369  -2.645  -1.403  0.00  0.00    -0.294 N 
ATOM      2  C   UNL     1       1.415  -3.968  -1.657  0.00  0.00    +0.303 C 
ATOM      3  O   UNL     1       1.451  -4.762  -0.737  0.00  0.00    -0.253 OA
ATOM      4  N   UNL     1       1.421  -4.410  -2.930  0.00  0.00    -0.282 N 
ATOM      5  C   UNL     1       1.357  -5.848  -3.242  0.00  0.00    +0.114 C 
ATOM      6  C   UNL     1       0.070  -6.103  -4.031  0.00  0.00    +0.054 C 
ATOM      7  C   UNL     1      -0.096  -5.071  -5.107  0.00  0.00    -0.039 C 
ATOM      8  C   UNL     1       0.519  -3.912  -5.123  0.00  0.00    -0.004 C 
ATOM      9  C   UNL     1       1.486  -3.476  -4.063  0.00  0.00    +0.137 C 
ATOM     10  H   UNL     1       1.415  -2.009  -2.134  0.00  0.00    +0.151 HD
ENDROOT
BRANCH   7  11
ATOM     11  C   UNL     1      -1.014  -5.379  -6.221  0.00  0.00    +0.003 A 
ATOM     12  C   UNL     1      -0.781  -6.234  -7.250  0.00  0.00    +0.091 A 
ATOM     13  N   UNL     1      -1.862  -6.257  -8.084  0.00  0.00    -0.360 N 
ATOM     14  H   UNL     1      -1.931  -6.793  -8.889  0.00  0.00    +0.165 HD
ATOM     15  C   UNL     1      -2.842  -5.408  -7.616  0.00  0.00    +0.050 A 
ATOM     16  C   UNL     1      -2.362  -4.825  -6.430  0.00  0.00    +0.007 A 
ATOM     17  C   UNL     1      -3.154  -3.918  -5.728  0.00  0.00    +0.013 A 
ATOM     18  C   UNL     1      -4.407  -3.598  -6.200  0.00  0.00    +0.039 A 
ATOM     19  C   UNL     1      -4.885  -4.176  -7.370  0.00  0.00    +0.125 A 
ATOM     20  C   UNL     1      -4.109  -5.069  -8.079  0.00  0.00    +0.064 A 
ATOM     21  F   UNL     1      -6.117  -3.854  -7.821  0.00  0.00    -0.205 F 
ENDBRANCH   7  11
BRANCH   1  22
ATOM     22  C   UNL     1       1.250  -2.167  -0.023  0.00  0.00    +0.161 C 
BRANCH  22  27
ATOM     23  C   UNL     1      -0.012   1.384   0.007  0.00  0.00    +0.003 A 
ATOM     24  C   UNL     1       1.200   2.059   0.002  0.00  0.00    +0.020 A 
ATOM     25  C   UNL     1       2.375   1.332  -0.011  0.00  0.00    +0.111 A 
ATOM     26  N   UNL     1       2.353   0.014  -0.019  0.00  0.00    -0.258 NA
ATOM     27  C   UNL     1       1.220  -0.661  -0.014  0.00  0.00    +0.058 A 
ATOM     28  C   UNL     1       0.005  -0.002  -0.001  0.00  0.00    +0.025 A 
ENDBRANCH  22  27
ENDBRANCH   1  22
TORSDOF 3
