REMARK  Name = ZINC06506944
REMARK  3 active torsions:
REMARK  status: ('A' for Active; 'I' for Inactive)
REMARK    1  A    between atoms: C_11  and  S_14
REMARK    2  A    between atoms: S_14  and  C_15
REMARK    3  A    between atoms: C_15  and  C_16
REMARK                            x       y       z     vdW  Elec       q    Type
REMARK                         _______ _______ _______ _____ _____    ______ ____
ROOT
ATOM      1  C   UNL     1       1.179   1.782   0.000  0.00  0.00    +0.002 A 
ATOM      2  C   UNL     1      -0.013   1.076   0.008  0.00  0.00    +0.002 A 
ATOM      3  C   UNL     1      -1.219   1.747   0.017  0.00  0.00    +0.028 A 
ATOM      4  C   UNL     1      -1.239   3.134   0.031  0.00  0.00    +0.075 A 
ATOM      5  C   UNL     1      -0.039   3.846   0.023  0.00  0.00    +0.066 A 
ATOM      6  C   UNL     1       1.169   3.162   0.007  0.00  0.00    +0.028 A 
ATOM      7  N   UNL     1      -0.357   5.200   0.033  0.00  0.00    -0.322 N 
ATOM      8  H   UNL     1       0.445   5.953   0.028  0.00  0.00    +0.169 HD
ATOM      9  C   UNL     1      -1.736   5.318   0.047  0.00  0.00    +0.235 A 
ATOM     10  N   UNL     1      -2.281   4.065   0.046  0.00  0.00    -0.255 N 
ATOM     11  C   UNL     1      -3.644   4.196   0.060  0.00  0.00    +0.198 A 
ATOM     12  N   UNL     1      -3.928   5.475   0.070  0.00  0.00    -0.120 NA
ATOM     13  N   UNL     1      -2.721   6.187   0.061  0.00  0.00    -0.110 NA
ENDROOT
BRANCH  11  14
ATOM     14  S   UNL     1      -4.811   2.876   0.065  0.00  0.00    -0.079 S 
BRANCH  14  15
ATOM     15  C   UNL     1      -6.420   3.713   0.086  0.00  0.00    +0.133 C 
BRANCH  15  16
ATOM     16  C   UNL     1      -7.521   2.684   0.092  0.00  0.00    +0.059 A 
ATOM     17  C   UNL     1      -8.228   2.420   1.246  0.00  0.00    +0.095 A 
ATOM     18  C   UNL     1      -9.249   1.469   1.230  0.00  0.00    +0.259 A 
ATOM     19  O   UNL     1      -9.882   1.234   2.248  0.00  0.00    -0.267 OA
ATOM     20  N   UNL     1      -9.535   0.795   0.076  0.00  0.00    -0.262 N 
ATOM     21  C   UNL     1     -10.499  -0.169  -0.095  0.00  0.00    +0.104 A 
ATOM     22  C   UNL     1     -10.682  -0.757  -1.277  0.00  0.00    +0.067 A 
ATOM     23  S   UNL     1      -9.445   0.050  -2.282  0.00  0.00    -0.058 S 
ATOM     24  C   UNL     1      -8.780   1.115  -1.021  0.00  0.00    +0.180 A 
ATOM     25  N   UNL     1      -7.825   2.011  -1.015  0.00  0.00    -0.227 NA
ENDBRANCH  15  16
ENDBRANCH  14  15
ENDBRANCH  11  14
TORSDOF 3
