REMARK  Name = ZINC09834262
REMARK  8 active torsions:
REMARK  status: ('A' for Active; 'I' for Inactive)
REMARK    1  A    between atoms: C_1  and  C_2
REMARK    2  A    between atoms: C_5  and  C_34
REMARK    3  A    between atoms: C_6  and  N_8
REMARK    4  A    between atoms: C_9  and  C_11
REMARK    5  A    between atoms: C_11  and  S_12
REMARK    6  A    between atoms: S_12  and  C_13
REMARK    7  A    between atoms: N_26  and  C_27
REMARK    8  A    between atoms: C_32  and  C_33
REMARK                            x       y       z     vdW  Elec       q    Type
REMARK                         _______ _______ _______ _____ _____    ______ ____
ROOT
ATOM      1  C   UNL     1      -4.359   5.194   0.103  0.00  0.00    +0.177 A 
ATOM      2  N   UNL     1      -3.636   4.095   0.096  0.00  0.00    -0.219 NA
ATOM      3  C   UNL     1      -2.297   4.150   0.095  0.00  0.00    +0.125 A 
ATOM      4  C   UNL     1      -1.230   3.137   0.087  0.00  0.00    +0.046 A 
ATOM      5  C   UNL     1      -1.216   1.744   0.073  0.00  0.00    +0.014 A 
ATOM      6  C   UNL     1      -0.012   1.074   0.073  0.00  0.00    +0.001 A 
ATOM      7  C   UNL     1       1.181   1.781   0.076  0.00  0.00    +0.004 A 
ATOM      8  C   UNL     1       1.180   3.159   0.084  0.00  0.00    +0.047 A 
ATOM      9  C   UNL     1      -0.023   3.855   0.090  0.00  0.00    +0.138 A 
ATOM     10  O   UNL     1      -0.314   5.173   0.098  0.00  0.00    -0.448 OA
ATOM     11  C   UNL     1      -1.648   5.383   0.102  0.00  0.00    +0.219 A 
ATOM     12  C   UNL     1      -2.434   6.552   0.110  0.00  0.00    +0.302 A 
ATOM     13  O   UNL     1      -1.910   7.654   0.117  0.00  0.00    -0.263 OA
ATOM     14  N   UNL     1      -3.778   6.430   0.110  0.00  0.00    -0.253 N 
ENDROOT
BRANCH  14  15
ATOM     15  C   UNL     1      -4.582   7.577   0.118  0.00  0.00    +0.055 A 
ATOM     16  C   UNL     1      -4.985   8.136   1.323  0.00  0.00    +0.026 A 
ATOM     17  C   UNL     1      -5.773   9.270   1.328  0.00  0.00    +0.002 A 
ATOM     18  C   UNL     1      -6.171   9.842   0.133  0.00  0.00    +0.000 A 
ATOM     19  C   UNL     1      -5.776   9.285  -1.069  0.00  0.00    +0.005 A 
ATOM     20  C   UNL     1      -4.983   8.154  -1.080  0.00  0.00    -0.026 A 
ATOM     21  C   UNL     1      -4.553   7.547  -2.391  0.00  0.00    +0.046 C 
ENDBRANCH  14  15
BRANCH   1  22
ATOM     22  S   UNL     1      -6.117   5.068   0.105  0.00  0.00    -0.078 S 
BRANCH  22  23
ATOM     23  C   UNL     1      -6.303   3.268   0.095  0.00  0.00    +0.173 C 
BRANCH  23  25
ATOM     24  N   UNL     1      -8.150   1.622   0.088  0.00  0.00    -0.285 N 
ATOM     25  C   UNL     1      -7.768   2.914   0.095  0.00  0.00    +0.227 C 
ATOM     26  O   UNL     1      -8.604   3.793   0.101  0.00  0.00    -0.275 OA
ATOM     27  H   UNL     1      -7.485   0.920   0.002  0.00  0.00    +0.155 HD
BRANCH  24  33
ATOM     28  C   UNL     1     -12.678   2.798   1.599  0.00  0.00    +0.044 C 
ATOM     29  C   UNL     1     -11.722   1.843   0.932  0.00  0.00    -0.049 A 
ATOM     30  C   UNL     1     -12.183   0.638   0.435  0.00  0.00    +0.004 A 
ATOM     31  C   UNL     1     -11.309  -0.241  -0.177  0.00  0.00    +0.005 A 
ATOM     32  C   UNL     1      -9.971   0.082  -0.294  0.00  0.00    -0.029 A 
ATOM     33  C   UNL     1      -9.504   1.292   0.204  0.00  0.00    +0.037 A 
ATOM     34  C   UNL     1     -10.384   2.170   0.824  0.00  0.00    +0.027 A 
ATOM     35  C   UNL     1      -9.019  -0.876  -0.961  0.00  0.00    +0.045 C 
ENDBRANCH  24  33
ENDBRANCH  23  25
ENDBRANCH  22  23
ENDBRANCH   1  22
TORSDOF 5
