REMARK  Name = ZINC47221150
REMARK  3 active torsions:
REMARK  status: ('A' for Active; 'I' for Inactive)
REMARK    1  A    between atoms: C_3  and  C_6
REMARK    2  A    between atoms: C_6  and  N_7
REMARK    3  A    between atoms: C_13  and  C_19
REMARK                            x       y       z     vdW  Elec       q    Type
REMARK                         _______ _______ _______ _____ _____    ______ ____
ROOT
ATOM      1  N   UNL     1       5.743   0.399   1.014  0.00  0.00    -0.279 N 
ATOM      2  C   UNL     1       5.549   1.558   1.681  0.00  0.00    +0.263 A 
ATOM      3  O   UNL     1       5.194   2.678   1.027  0.00  0.00    -0.267 OA
ATOM      4  C   UNL     1       5.728   1.562   3.080  0.00  0.00    +0.065 A 
ATOM      5  C   UNL     1       5.544   2.726   3.840  0.00  0.00    +0.016 A 
ATOM      6  C   UNL     1       5.726   2.691   5.189  0.00  0.00    +0.014 A 
ATOM      7  C   UNL     1       6.096   1.501   5.834  0.00  0.00    +0.039 A 
ATOM      8  C   UNL     1       6.284   0.335   5.109  0.00  0.00    +0.041 A 
ATOM      9  C   UNL     1       6.102   0.351   3.719  0.00  0.00    +0.080 A 
ATOM     10  N   UNL     1       6.273  -0.753   2.978  0.00  0.00    -0.222 NA
ATOM     11  C   UNL     1       6.091  -0.722   1.667  0.00  0.00    +0.184 A 
ATOM     12  S   UNL     1       6.316  -2.163   0.769  0.00  0.00    -0.011 S 
ENDROOT
BRANCH   7  13
ATOM     13  C   UNL     1       6.287   1.491   7.303  0.00  0.00    +0.247 C 
ATOM     14  O   UNL     1       6.119   0.464   7.930  0.00  0.00    -0.270 OA
ATOM     15  N   UNL     1       6.648   2.620   7.943  0.00  0.00    -0.298 N 
ATOM     16  C   UNL     1       6.434   3.931   7.314  0.00  0.00    +0.108 C 
ATOM     17  C   UNL     1       4.938   4.207   7.235  0.00  0.00    +0.019 C 
ATOM     18  C   UNL     1       4.408   4.524   8.643  0.00  0.00    +0.002 C 
ATOM     19  C   UNL     1       4.247   3.227   9.428  0.00  0.00    +0.000 C 
ATOM     20  C   UNL     1       5.237   3.178  10.607  0.00  0.00    +0.002 C 
ATOM     21  C   UNL     1       6.617   3.642  10.141  0.00  0.00    +0.019 C 
ATOM     22  C   UNL     1       7.246   2.556   9.266  0.00  0.00    +0.108 C 
ENDBRANCH   7  13
BRANCH   1  23
ATOM     23  C   UNL     1       5.565   0.363  -0.440  0.00  0.00    +0.201 C 
BRANCH  23  26
ATOM     24  C   UNL     1       1.967   0.168  -1.214  0.00  0.00    +0.041 A 
ATOM     25  C   UNL     1       3.133   0.914  -0.925  0.00  0.00    +0.046 A 
ATOM     26  C   UNL     1       4.131   0.027  -0.762  0.00  0.00    +0.125 A 
ATOM     27  O   UNL     1       3.634  -1.208  -0.935  0.00  0.00    -0.466 OA
ATOM     28  C   UNL     1       2.322  -1.129  -1.209  0.00  0.00    +0.195 A 
ENDBRANCH  23  26
ENDBRANCH   1  23
TORSDOF 3
