REMARK  Name = ZINC09112577
REMARK  15 active torsions:
REMARK  status: ('A' for Active; 'I' for Inactive)
REMARK    1  A    between atoms: C_1  and  N_66
REMARK    2  A    between atoms: C_2  and  N_66
REMARK    3  A    between atoms: C_3  and  C_5
REMARK    4  A    between atoms: C_3  and  C_26
REMARK    5  A    between atoms: C_3  and  N_66
REMARK    6  A    between atoms: C_5  and  N_6
REMARK    7  A    between atoms: C_7  and  C_9
REMARK    8  A    between atoms: C_12  and  S_15
REMARK    9  A    between atoms: S_15  and  N_18
REMARK   10  A    between atoms: N_18  and  C_19
REMARK   11  A    between atoms: N_18  and  C_20
REMARK   12  A    between atoms: C_29  and  O_34
REMARK   13  A    between atoms: C_30  and  O_32
REMARK   14  A    between atoms: O_32  and  C_33
REMARK   15  A    between atoms: O_34  and  C_35
REMARK                            x       y       z     vdW  Elec       q    Type
REMARK                         _______ _______ _______ _____ _____    ______ ____
ROOT
ATOM      1  N   UNL     1       7.287   4.074   4.550  0.00  0.00    -0.313 N 
ATOM      2  C   UNL     1       7.417   2.744   4.368  0.00  0.00    +0.244 C 
ATOM      3  O   UNL     1       8.457   2.189   4.664  0.00  0.00    -0.270 OA
ATOM      4  H   UNL     1       6.457   4.517   4.314  0.00  0.00    +0.149 HD
ENDROOT
BRANCH   2   5
ATOM      5  C   UNL     1       6.294   1.962   3.808  0.00  0.00    +0.037 A 
ATOM      6  C   UNL     1       6.425   0.586   3.618  0.00  0.00    +0.015 A 
ATOM      7  C   UNL     1       5.373  -0.139   3.095  0.00  0.00    +0.029 A 
ATOM      8  C   UNL     1       4.191   0.497   2.761  0.00  0.00    +0.109 A 
ATOM      9  C   UNL     1       4.056   1.862   2.942  0.00  0.00    +0.029 A 
ATOM     10  C   UNL     1       5.098   2.597   3.468  0.00  0.00    +0.015 A 
BRANCH   8  11
ATOM     11  S   UNL     1       2.853  -0.436   2.094  0.00  0.00    +0.074 S 
ATOM     12  O   UNL     1       3.418  -1.610   1.527  0.00  0.00    -0.150 OA
ATOM     13  O   UNL     1       2.063   0.471   1.337  0.00  0.00    -0.150 OA
BRANCH  11  14
ATOM     14  N   UNL     1       1.916  -0.928   3.368  0.00  0.00    -0.206 N 
ATOM     15  C   UNL     1       2.259  -2.151   4.099  0.00  0.00    +0.157 C 
BRANCH  14  16
ATOM     16  C   UNL     1       0.800  -0.179   3.745  0.00  0.00    +0.051 A 
ATOM     17  C   UNL     1      -0.274  -0.797   4.373  0.00  0.00    +0.025 A 
ATOM     18  C   UNL     1      -1.377  -0.053   4.744  0.00  0.00    +0.002 A 
ATOM     19  C   UNL     1      -1.413   1.306   4.492  0.00  0.00    +0.000 A 
ATOM     20  C   UNL     1      -0.346   1.925   3.866  0.00  0.00    +0.002 A 
ATOM     21  C   UNL     1       0.760   1.187   3.493  0.00  0.00    +0.025 A 
ENDBRANCH  14  16
ENDBRANCH  11  14
ENDBRANCH   8  11
ENDBRANCH   2   5
BRANCH   1  22
ATOM     22  C   UNL     1       8.399   4.849   5.105  0.00  0.00    +0.094 C 
BRANCH  22  23
ATOM     23  C   UNL     1       8.066   6.340   5.037  0.00  0.00    -0.021 C 
BRANCH  23  24
ATOM     24  C   UNL     1       9.175   7.133   5.679  0.00  0.00    -0.056 A 
ATOM     25  C   UNL     1      10.272   7.516   4.929  0.00  0.00    +0.006 A 
ATOM     26  C   UNL     1      11.292   8.244   5.512  0.00  0.00    +0.049 A 
ATOM     27  C   UNL     1      11.217   8.591   6.852  0.00  0.00    +0.161 A 
ATOM     28  C   UNL     1      10.113   8.205   7.607  0.00  0.00    +0.162 A 
ATOM     29  C   UNL     1       9.092   7.481   7.014  0.00  0.00    +0.051 A 
BRANCH  28  30
ATOM     30  O   UNL     1      10.035   8.544   8.922  0.00  0.00    -0.491 OA
ATOM     31  C   UNL     1       8.874   8.114   9.634  0.00  0.00    +0.277 C 
ENDBRANCH  28  30
BRANCH  27  32
ATOM     32  O   UNL     1      12.220   9.307   7.427  0.00  0.00    -0.491 OA
ATOM     33  C   UNL     1      13.321   9.668   6.592  0.00  0.00    +0.277 C 
ENDBRANCH  27  32
ENDBRANCH  23  24
BRANCH  23  36
ATOM     34  C   UNL     1       8.786   5.940   2.761  0.00  0.00    -0.096 C 
ATOM     35  C   UNL     1       6.519   6.668   3.203  0.00  0.00    -0.096 C 
ATOM     36  N   UNL     1       7.930   6.774   3.631  0.00  0.00    +0.382 N 
ATOM     37  H   UNL     1       8.229   7.753   3.554  0.00  0.00    -0.082 HD
ENDBRANCH  23  36
ENDBRANCH  22  23
ENDBRANCH   1  22
TORSDOF 10
