REMARK  Name = ZINC59844838
REMARK  10 active torsions:
REMARK  status: ('A' for Active; 'I' for Inactive)
REMARK    1  A    between atoms: C_1  and  C_2
REMARK    2  A    between atoms: C_2  and  C_4
REMARK    3  A    between atoms: C_2  and  S_14
REMARK    4  A    between atoms: N_6  and  N_7
REMARK    5  A    between atoms: C_8  and  C_10
REMARK    6  A    between atoms: S_14  and  C_15
REMARK    7  A    between atoms: C_18  and  C_26
REMARK    8  A    between atoms: N_19  and  C_20
REMARK    9  A    between atoms: C_26  and  N_27
REMARK   10  A    between atoms: N_27  and  C_28
REMARK                            x       y       z     vdW  Elec       q    Type
REMARK                         _______ _______ _______ _____ _____    ______ ____
ROOT
ATOM      1  C   UNL     1       2.509  -0.029  -1.285  0.00  0.00    +0.197 A 
ATOM      2  N   UNL     1       2.983   0.649  -0.266  0.00  0.00    -0.122 NA
ATOM      3  N   UNL     1       4.233   0.892  -0.445  0.00  0.00    -0.132 NA
ATOM      4  C   UNL     1       4.630   0.389  -1.579  0.00  0.00    +0.156 A 
ATOM      5  N   UNL     1       3.547  -0.222  -2.155  0.00  0.00    -0.273 N 
ENDROOT
BRANCH   5   6
ATOM      6  C   UNL     1       3.510  -0.902  -3.381  0.00  0.00    +0.050 A 
ATOM      7  C   UNL     1       4.232  -2.076  -3.547  0.00  0.00    +0.026 A 
ATOM      8  C   UNL     1       4.193  -2.744  -4.756  0.00  0.00    +0.002 A 
ATOM      9  C   UNL     1       3.436  -2.244  -5.800  0.00  0.00    +0.000 A 
ATOM     10  C   UNL     1       2.716  -1.075  -5.636  0.00  0.00    +0.002 A 
ATOM     11  C   UNL     1       2.746  -0.406  -4.428  0.00  0.00    +0.026 A 
ENDBRANCH   5   6
BRANCH   1  12
ATOM     12  S   UNL     1       0.851  -0.589  -1.490  0.00  0.00    -0.073 S 
BRANCH  12  14
ATOM     13  C   UNL     1      -0.019   1.526   0.010  0.00  0.00    +0.029 C 
ATOM     14  C   UNL     1       0.002  -0.004   0.002  0.00  0.00    +0.138 C 
BRANCH  14  15
ATOM     15  C   UNL     1      -1.412  -0.526   0.013  0.00  0.00    +0.242 C 
ATOM     16  O   UNL     1      -1.927  -0.901  -1.019  0.00  0.00    -0.273 OA
ATOM     17  N   UNL     1      -2.103  -0.575   1.169  0.00  0.00    -0.233 N 
ATOM     18  H   UNL     1      -1.691  -0.275   1.994  0.00  0.00    +0.173 HD
BRANCH  17  19
ATOM     19  N   UNL     1      -3.417  -1.060   1.179  0.00  0.00    -0.234 N 
ATOM     20  C   UNL     1      -4.109  -1.109   2.334  0.00  0.00    +0.232 C 
ATOM     21  O   UNL     1      -3.593  -0.734   3.366  0.00  0.00    -0.274 OA
ATOM     22  H   UNL     1      -3.830  -1.360   0.353  0.00  0.00    +0.173 HD
BRANCH  20  23
ATOM     23  C   UNL     1      -5.523  -1.631   2.345  0.00  0.00    +0.076 C 
ATOM     24  C   UNL     1      -6.570  -0.581   1.937  0.00  0.00    +0.013 C 
ATOM     25  C   UNL     1      -7.464  -1.156   3.048  0.00  0.00    +0.001 C 
ATOM     26  C   UNL     1      -6.172  -1.622   3.739  0.00  0.00    +0.013 C 
ENDBRANCH  20  23
ENDBRANCH  17  19
ENDBRANCH  14  15
ENDBRANCH  12  14
ENDBRANCH   1  12
BRANCH   4  27
ATOM     27  C   UNL     1       6.023   0.460  -2.150  0.00  0.00    +0.178 C 
BRANCH  27  28
ATOM     28  N   UNL     1       6.795  -0.700  -1.698  0.00  0.00    -0.336 N 
ATOM     29  H   UNL     1       6.384  -1.361  -1.119  0.00  0.00    +0.147 HD
BRANCH  28  30
ATOM     30  C   UNL     1       8.121  -0.853  -2.099  0.00  0.00    +0.035 A 
ATOM     31  C   UNL     1       8.713   0.086  -2.916  0.00  0.00    +0.023 A 
ATOM     32  C   UNL     1      10.037  -0.058  -3.322  0.00  0.00    +0.002 A 
ATOM     33  C   UNL     1      10.782  -1.126  -2.925  0.00  0.00    +0.008 A 
ATOM     34  C   UNL     1      10.216  -2.106  -2.091  0.00  0.00    -0.016 A 
ATOM     35  C   UNL     1       8.871  -1.968  -1.667  0.00  0.00    +0.003 A 
ATOM     36  C   UNL     1       8.309  -2.945  -0.830  0.00  0.00    +0.010 A 
ATOM     37  C   UNL     1       9.062  -4.007  -0.434  0.00  0.00    +0.001 A 
ATOM     38  C   UNL     1      10.387  -4.141  -0.846  0.00  0.00    +0.001 A 
ATOM     39  C   UNL     1      10.961  -3.219  -1.666  0.00  0.00    +0.008 A 
ENDBRANCH  28  30
ENDBRANCH  27  28
ENDBRANCH   4  27
TORSDOF 9
