REMARK  Name = ZINC12497454
REMARK  10 active torsions:
REMARK  status: ('A' for Active; 'I' for Inactive)
REMARK    1  A    between atoms: C_1  and  C_2
REMARK    2  A    between atoms: C_5  and  N_8
REMARK    3  A    between atoms: C_13  and  C_28
REMARK    4  A    between atoms: C_15  and  C_20
REMARK    5  A    between atoms: C_15  and  C_24
REMARK    6  A    between atoms: C_20  and  C_21
REMARK    7  A    between atoms: C_21  and  S_22
REMARK    8  A    between atoms: S_22  and  C_23
REMARK    9  A    between atoms: C_24  and  O_26
REMARK   10  A    between atoms: O_26  and  C_27
REMARK                            x       y       z     vdW  Elec       q    Type
REMARK                         _______ _______ _______ _____ _____    ______ ____
ROOT
ATOM      1  N   UNL     1      -0.450   7.666   3.298  0.00  0.00    -0.210 N 
ATOM      2  C   UNL     1       0.261   6.674   2.670  0.00  0.00    +0.229 C 
ATOM      3  O   UNL     1       1.218   6.064   3.097  0.00  0.00    -0.275 OA
ATOM      4  C   UNL     1      -0.383   6.519   1.386  0.00  0.00    +0.077 C 
ATOM      5  C   UNL     1      -0.079   6.003   0.036  0.00  0.00    -0.027 C 
ATOM      6  C   UNL     1      -1.783   7.722  -0.051  0.00  0.00    +0.044 C 
ATOM      7  C   UNL     1      -0.780   8.016   1.062  0.00  0.00    +0.086 C 
ATOM      8  C   UNL     1      -1.272   8.347   2.445  0.00  0.00    +0.229 C 
ATOM      9  O   UNL     1      -2.202   9.067   2.740  0.00  0.00    -0.275 OA
ATOM     10  N   UNL     1      -1.232   6.535  -0.757  0.00  0.00    +0.395 N 
ATOM     11  H   UNL     1      -1.958   5.813  -0.839  0.00  0.00    -0.083 HD
ATOM     12  H   UNL     1      -0.912   6.806  -1.694  0.00  0.00    -0.083 HD
ENDROOT
BRANCH   1  17
ATOM     13  C   UNL     1      -0.024   8.814   8.840  0.00  0.00    +0.044 C 
ATOM     14  C   UNL     1      -0.137   8.509   7.369  0.00  0.00    -0.050 A 
ATOM     15  C   UNL     1       0.617   7.491   6.815  0.00  0.00    +0.005 A 
ATOM     16  C   UNL     1       0.515   7.209   5.467  0.00  0.00    +0.024 A 
ATOM     17  C   UNL     1      -0.345   7.949   4.667  0.00  0.00    +0.044 A 
ATOM     18  C   UNL     1      -1.097   8.975   5.225  0.00  0.00    +0.024 A 
ATOM     19  C   UNL     1      -0.995   9.248   6.575  0.00  0.00    +0.005 A 
ENDBRANCH   1  17
BRANCH   5  20
ATOM     20  C   UNL     1      -0.059   4.497   0.027  0.00  0.00    -0.061 A 
ATOM     21  C   UNL     1       1.148   3.822   0.012  0.00  0.00    +0.003 A 
ATOM     22  C   UNL     1       1.167   2.440   0.004  0.00  0.00    +0.020 A 
ATOM     23  C   UNL     1      -0.021   1.732   0.012  0.00  0.00    +0.041 A 
ATOM     24  C   UNL     1      -1.229   2.407   0.021  0.00  0.00    +0.020 A 
ATOM     25  C   UNL     1      -1.247   3.789   0.034  0.00  0.00    +0.003 A 
ATOM     26 CL   UNL     1       0.002  -0.004   0.002  0.00  0.00    -0.084 Cl
ENDBRANCH   5  20
BRANCH   6  27
ATOM     27  C   UNL     1      -1.882   8.897  -0.989  0.00  0.00    +0.297 C 
ATOM     28  O   UNL     1      -1.605  10.007  -0.599  0.00  0.00    -0.252 OA
BRANCH  27  29
ATOM     29  O   UNL     1      -2.278   8.711  -2.258  0.00  0.00    -0.469 OA
ATOM     30  C   UNL     1      -2.350   9.889  -3.106  0.00  0.00    +0.280 C 
ENDBRANCH  27  29
ENDBRANCH   6  27
BRANCH   6  31
ATOM     31  C   UNL     1      -3.156   7.402   0.543  0.00  0.00    +0.010 C 
BRANCH  31  32
ATOM     32  C   UNL     1      -4.113   6.990  -0.577  0.00  0.00    +0.068 C 
BRANCH  32  33
ATOM     33  S   UNL     1      -5.741   6.610   0.127  0.00  0.00    -0.164 S 
ATOM     34  C   UNL     1      -6.744   6.145  -1.311  0.00  0.00    +0.084 C 
ENDBRANCH  32  33
ENDBRANCH  31  32
ENDBRANCH   6  31
TORSDOF 7
