REMARK  Name = ZINC35760466
REMARK  19 active torsions:
REMARK  status: ('A' for Active; 'I' for Inactive)
REMARK    1  A    between atoms: C_1  and  C_2
REMARK    2  A    between atoms: C_2  and  N_3
REMARK    3  A    between atoms: N_3  and  C_4
REMARK    4  A    between atoms: N_3  and  C_6
REMARK    5  A    between atoms: C_4  and  C_5
REMARK    6  A    between atoms: C_7  and  C_18
REMARK    7  A    between atoms: C_8  and  C_11
REMARK    8  A    between atoms: C_18  and  N_19
REMARK    9  A    between atoms: N_19  and  C_20
REMARK   10  A    between atoms: N_19  and  C_25
REMARK   11  A    between atoms: C_20  and  C_21
REMARK   12  A    between atoms: C_21  and  C_22
REMARK   13  A    between atoms: C_22  and  C_23
REMARK   14  A    between atoms: C_22  and  C_24
REMARK   15  A    between atoms: C_25  and  C_26
REMARK   16  A    between atoms: C_26  and  C_28
REMARK   17  A    between atoms: C_26  and  O_36
REMARK   18  A    between atoms: C_28  and  O_29
REMARK   19  A    between atoms: O_29  and  C_30
REMARK                            x       y       z     vdW  Elec       q    Type
REMARK                         _______ _______ _______ _____ _____    ______ ____
ROOT
ATOM      1  N   UNL     1       1.750  -3.204  -4.081  0.00  0.00    +0.384 N 
ATOM      2  H   UNL     1       1.229  -3.505  -3.271  0.00  0.00    -0.081 HD
ENDROOT
BRANCH   1   3
ATOM      3  C   UNL     1       1.783  -1.736  -4.122  0.00  0.00    -0.035 C 
BRANCH   3   5
ATOM      4  C   UNL     1      -0.411  -0.942  -3.086  0.00  0.00    +0.222 A 
ATOM      5  C   UNL     1       0.375  -1.202  -4.162  0.00  0.00    +0.025 A 
ATOM      6  C   UNL     1      -0.359  -0.883  -5.324  0.00  0.00    +0.117 A 
ATOM      7  N   UNL     1      -1.541  -0.449  -4.949  0.00  0.00    -0.076 NA
ATOM      8  O   UNL     1      -1.592  -0.485  -3.534  0.00  0.00    -0.339 OA
BRANCH   6   9
ATOM      9  C   UNL     1       0.119  -1.015  -6.722  0.00  0.00    +0.004 A 
ATOM     10  C   UNL     1       1.406  -0.603  -7.062  0.00  0.00    +0.013 A 
ATOM     11  C   UNL     1       1.847  -0.727  -8.364  0.00  0.00    +0.039 A 
ATOM     12  C   UNL     1       1.012  -1.260  -9.332  0.00  0.00    +0.123 A 
ATOM     13  C   UNL     1      -0.269  -1.671  -8.998  0.00  0.00    +0.039 A 
ATOM     14  C   UNL     1      -0.716  -1.556  -7.698  0.00  0.00    +0.013 A 
ATOM     15  F   UNL     1       1.447  -1.380 -10.605  0.00  0.00    -0.205 F 
ENDBRANCH   6   9
BRANCH   4  16
ATOM     16  N   UNL     1      -0.059  -1.122  -1.761  0.00  0.00    -0.300 N 
BRANCH  16  18
ATOM     17  C   UNL     1       1.940   0.170  -1.198  0.00  0.00    +0.024 C 
ATOM     18  C   UNL     1       0.435   0.011  -0.974  0.00  0.00    +0.104 C 
ENDBRANCH  16  18
BRANCH  16  19
ATOM     19  C   UNL     1      -0.180  -2.445  -1.144  0.00  0.00    +0.104 C 
ATOM     20  C   UNL     1      -1.608  -2.639  -0.629  0.00  0.00    +0.024 C 
ENDBRANCH  16  19
ENDBRANCH   4  16
ENDBRANCH   3   5
ENDBRANCH   1   3
BRANCH   1  21
ATOM     21  C   UNL     1       1.101  -3.713  -5.297  0.00  0.00    -0.078 C 
BRANCH  21  22
ATOM     22  C   UNL     1       0.931  -5.230  -5.187  0.00  0.00    -0.016 C 
BRANCH  22  23
ATOM     23  C   UNL     1       0.337  -5.772  -6.488  0.00  0.00    -0.019 C 
ATOM     24  C   UNL     1       0.282  -7.300  -6.426  0.00  0.00    +0.007 C 
ATOM     25  C   UNL     1      -1.077  -5.218  -6.673  0.00  0.00    +0.007 C 
ENDBRANCH  22  23
ENDBRANCH  21  22
ENDBRANCH   1  21
BRANCH   1  26
ATOM     26  C   UNL     1       3.121  -3.723  -4.003  0.00  0.00    -0.043 C 
BRANCH  26  27
ATOM     27  C   UNL     1       3.729  -3.357  -2.647  0.00  0.00    +0.135 C 
BRANCH  27  28
ATOM     28  O   UNL     1       3.933  -1.944  -2.583  0.00  0.00    -0.390 OA
ATOM     29  H   UNL     1       4.528  -1.601  -3.264  0.00  0.00    +0.210 HD
ENDBRANCH  27  28
BRANCH  27  30
ATOM     30  C   UNL     1       5.070  -4.074  -2.479  0.00  0.00    +0.258 C 
BRANCH  30  31
ATOM     31  O   UNL     1       5.582  -3.826  -1.169  0.00  0.00    -0.489 OA
BRANCH  31  32
ATOM     32  C   UNL     1       6.775  -4.395  -0.854  0.00  0.00    +0.121 A 
ATOM     33  C   UNL     1       7.443  -5.172  -1.790  0.00  0.00    +0.045 A 
ATOM     34  C   UNL     1       8.656  -5.750  -1.468  0.00  0.00    +0.004 A 
ATOM     35  C   UNL     1       9.205  -5.554  -0.215  0.00  0.00    +0.000 A 
ATOM     36  C   UNL     1       8.542  -4.780   0.720  0.00  0.00    +0.004 A 
ATOM     37  C   UNL     1       7.331  -4.196   0.401  0.00  0.00    +0.045 A 
ENDBRANCH  31  32
ENDBRANCH  30  31
ENDBRANCH  27  30
ENDBRANCH  26  27
ENDBRANCH   1  26
TORSDOF 15
