REMARK  Name = ZINC63384538
REMARK  3 active torsions:
REMARK  status: ('A' for Active; 'I' for Inactive)
REMARK    1  A    between atoms: C_4  and  N_7
REMARK    2  A    between atoms: C_12  and  C_29
REMARK    3  A    between atoms: C_29  and  C_30
REMARK                            x       y       z     vdW  Elec       q    Type
REMARK                         _______ _______ _______ _____ _____    ______ ____
ROOT
ATOM      1  N   UNL     1       3.624  -0.652  -0.037  0.00  0.00    -0.210 N 
ATOM      2  C   UNL     1       4.838  -0.027  -0.041  0.00  0.00    +0.232 C 
ATOM      3  O   UNL     1       5.067   1.129   0.243  0.00  0.00    -0.274 OA
ATOM      4  C   UNL     1       5.833  -1.071  -0.470  0.00  0.00    +0.107 C 
ATOM      5  C   UNL     1       7.177  -1.170   0.263  0.00  0.00    +0.072 C 
ATOM      6  N   UNL     1       7.455  -2.644   0.245  0.00  0.00    -0.295 NA
ATOM      7  C   UNL     1       6.135  -3.345   0.183  0.00  0.00    +0.136 C 
ATOM      8  C   UNL     1       5.119  -2.282   0.255  0.00  0.00    +0.123 C 
ATOM      9  C   UNL     1       3.731  -2.021  -0.046  0.00  0.00    +0.233 C 
ATOM     10  O   UNL     1       2.855  -2.831  -0.261  0.00  0.00    -0.274 OA
ATOM     11  C   UNL     1       6.058  -4.158  -1.083  0.00  0.00    +0.003 A 
ATOM     12  C   UNL     1       6.075  -3.826  -2.420  0.00  0.00    +0.008 A 
ATOM     13  C   UNL     1       5.984  -4.817  -3.381  0.00  0.00    +0.000 A 
ATOM     14  C   UNL     1       5.878  -6.141  -2.995  0.00  0.00    +0.002 A 
ATOM     15  C   UNL     1       5.863  -6.478  -1.658  0.00  0.00    +0.023 A 
ATOM     16  C   UNL     1       5.954  -5.486  -0.684  0.00  0.00    +0.039 A 
ATOM     17  N   UNL     1       5.960  -5.573   0.709  0.00  0.00    -0.283 N 
ATOM     18  C   UNL     1       6.064  -4.366   1.293  0.00  0.00    +0.243 C 
ATOM     19  O   UNL     1       6.095  -4.140   2.485  0.00  0.00    -0.273 OA
ATOM     20  H   UNL     1       8.034  -2.894  -0.542  0.00  0.00    +0.124 HD
ATOM     21  H   UNL     1       5.897  -6.408   1.199  0.00  0.00    +0.155 HD
ENDROOT
BRANCH   1  25
ATOM     22  C   UNL     1      -0.017   1.379   0.010  0.00  0.00    +0.000 A 
ATOM     23  C   UNL     1       1.170   2.089   0.002  0.00  0.00    +0.002 A 
ATOM     24  C   UNL     1       2.377   1.419  -0.013  0.00  0.00    +0.024 A 
ATOM     25  C   UNL     1       2.399   0.031  -0.021  0.00  0.00    +0.044 A 
ATOM     26  C   UNL     1       1.207  -0.680  -0.013  0.00  0.00    +0.024 A 
ATOM     27  C   UNL     1       0.002  -0.004   0.002  0.00  0.00    +0.002 A 
ENDBRANCH   1  25
BRANCH   5  28
ATOM     28  C   UNL     1       7.052  -0.654   1.698  0.00  0.00    +0.052 C 
BRANCH  28  29
ATOM     29  C   UNL     1       8.410  -0.649   2.350  0.00  0.00    -0.040 C 
ATOM     30  C   UNL     1       9.266   0.395   2.439  0.00  0.00    -0.001 A 
ATOM     31  C   UNL     1       9.191   1.784   1.972  0.00  0.00    +0.010 A 
ATOM     32  C   UNL     1      10.230   2.615   2.215  0.00  0.00    +0.001 A 
ATOM     33  C   UNL     1      11.375   2.182   2.900  0.00  0.00    +0.002 A 
ATOM     34  C   UNL     1      11.517   0.921   3.359  0.00  0.00    +0.026 A 
ATOM     35  C   UNL     1      10.485  -0.037   3.160  0.00  0.00    +0.043 A 
ATOM     36  N   UNL     1      10.387  -1.298   3.503  0.00  0.00    -0.380 N 
ATOM     37  C   UNL     1       9.090  -1.809   3.044  0.00  0.00    +0.144 C 
ATOM     38  H   UNL     1      11.058  -1.808   3.984  0.00  0.00    +0.160 HD
ENDBRANCH  28  29
ENDBRANCH   5  28
TORSDOF 3
