REMARK  Name = ZINC36306696
REMARK  15 active torsions:
REMARK  status: ('A' for Active; 'I' for Inactive)
REMARK    1  A    between atoms: C_1  and  C_2
REMARK    2  A    between atoms: C_2  and  C_3
REMARK    3  A    between atoms: C_2  and  C_4
REMARK    4  A    between atoms: C_4  and  N_5
REMARK    5  A    between atoms: N_5  and  C_6
REMARK    6  A    between atoms: N_5  and  C_27
REMARK    7  A    between atoms: C_6  and  C_7
REMARK    8  A    between atoms: C_8  and  C_21
REMARK    9  A    between atoms: N_10  and  C_20
REMARK   10  A    between atoms: C_11  and  O_12
REMARK   11  A    between atoms: O_12  and  C_13
REMARK   12  A    between atoms: C_27  and  C_28
REMARK   13  A    between atoms: C_28  and  C_30
REMARK   14  A    between atoms: C_28  and  O_37
REMARK   15  A    between atoms: C_30  and  N_31
REMARK                            x       y       z     vdW  Elec       q    Type
REMARK                         _______ _______ _______ _____ _____    ______ ____
ROOT
ATOM      1  C   UNL     1       4.178   0.153  -0.169  0.00  0.00    +0.025 A 
ATOM      2  C   UNL     1       5.393  -0.379  -0.640  0.00  0.00    +0.098 A 
ATOM      3  N   UNL     1       6.372   0.376  -0.191  0.00  0.00    -0.168 NA
ATOM      4  N   UNL     1       5.815   1.407   0.577  0.00  0.00    -0.235 N 
ATOM      5  C   UNL     1       4.466   1.253   0.572  0.00  0.00    +0.221 A 
ATOM      6  C   UNL     1       6.558   2.469   1.261  0.00  0.00    +0.176 C 
ENDROOT
BRANCH   2   7
ATOM      7  C   UNL     1       5.543  -1.583  -1.496  0.00  0.00    +0.002 A 
ATOM      8  C   UNL     1       4.797  -2.728  -1.228  0.00  0.00    +0.010 A 
ATOM      9  C   UNL     1       4.941  -3.844  -2.027  0.00  0.00    +0.001 A 
ATOM     10  C   UNL     1       5.824  -3.827  -3.092  0.00  0.00    +0.000 A 
ATOM     11  C   UNL     1       6.567  -2.692  -3.362  0.00  0.00    +0.001 A 
ATOM     12  C   UNL     1       6.427  -1.569  -2.573  0.00  0.00    +0.010 A 
ENDBRANCH   2   7
BRANCH   1  13
ATOM     13  C   UNL     1       2.802  -0.398  -0.443  0.00  0.00    -0.035 C 
BRANCH  13  14
ATOM     14  N   UNL     1       2.202   0.323  -1.573  0.00  0.00    +0.384 N 
ATOM     15  H   UNL     1       2.213   1.315  -1.383  0.00  0.00    -0.081 HD
BRANCH  14  16
ATOM     16  C   UNL     1       0.815  -0.124  -1.758  0.00  0.00    -0.075 C 
BRANCH  16  18
ATOM     17  C   UNL     1      -0.084   1.823  -0.476  0.00  0.00    +0.005 C 
ATOM     18  C   UNL     1      -0.022   0.296  -0.548  0.00  0.00    -0.034 C 
ATOM     19  C   UNL     1      -1.439  -0.265  -0.688  0.00  0.00    +0.005 C 
ENDBRANCH  16  18
ENDBRANCH  14  16
BRANCH  14  20
ATOM     20  C   UNL     1       2.972   0.049  -2.793  0.00  0.00    -0.045 C 
BRANCH  20  21
ATOM     21  C   UNL     1       2.424   0.896  -3.943  0.00  0.00    +0.112 C 
BRANCH  21  22
ATOM     22  O   UNL     1       2.642   2.280  -3.662  0.00  0.00    -0.392 OA
ATOM     23  H   UNL     1       3.573   2.517  -3.551  0.00  0.00    +0.210 HD
ENDBRANCH  21  22
BRANCH  21  24
ATOM     24  C   UNL     1       3.142   0.520  -5.241  0.00  0.00    +0.114 C 
BRANCH  24  25
ATOM     25  N   UNL     1       2.616   1.334  -6.345  0.00  0.00    -0.296 NA
ATOM     26  C   UNL     1       1.211   1.001  -6.622  0.00  0.00    +0.112 C 
ATOM     27  C   UNL     1       0.686   1.911  -7.736  0.00  0.00    +0.175 C 
ATOM     28  O   UNL     1       1.515   1.766  -8.893  0.00  0.00    -0.377 OA
ATOM     29  C   UNL     1       2.890   2.083  -8.659  0.00  0.00    +0.175 C 
ATOM     30  C   UNL     1       3.437   1.175  -7.554  0.00  0.00    +0.112 C 
ENDBRANCH  24  25
ENDBRANCH  21  24
ENDBRANCH  20  21
ENDBRANCH  14  20
ENDBRANCH  13  14
ENDBRANCH   1  13
BRANCH   5  31
ATOM     31  O   UNL     1       3.567   2.055   1.198  0.00  0.00    -0.435 OA
BRANCH  31  32
ATOM     32  C   UNL     1       3.278   1.794   2.500  0.00  0.00    +0.165 A 
ATOM     33  C   UNL     1       3.969   0.803   3.181  0.00  0.00    +0.049 A 
ATOM     34  C   UNL     1       3.674   0.540   4.505  0.00  0.00    +0.004 A 
ATOM     35  C   UNL     1       2.690   1.264   5.152  0.00  0.00    +0.003 A 
ATOM     36  C   UNL     1       1.998   2.252   4.478  0.00  0.00    +0.042 A 
ATOM     37  C   UNL     1       2.293   2.524   3.154  0.00  0.00    +0.165 A 
ATOM     38  F   UNL     1       1.621   3.494   2.497  0.00  0.00    -0.202 F 
ENDBRANCH  31  32
ENDBRANCH   5  31
TORSDOF 12
