REMARK  Name = ZINC14983720
REMARK  10 active torsions:
REMARK  status: ('A' for Active; 'I' for Inactive)
REMARK    1  A    between atoms: C_1  and  C_2
REMARK    2  A    between atoms: C_3  and  C_4
REMARK    3  A    between atoms: C_3  and  C_5
REMARK    4  A    between atoms: C_5  and  N_65
REMARK    5  A    between atoms: C_7  and  N_27
REMARK    6  A    between atoms: C_10  and  C_12
REMARK    7  A    between atoms: N_17  and  C_20
REMARK    8  A    between atoms: C_29  and  C_32
REMARK    9  A    between atoms: C_32  and  O_34
REMARK   10  A    between atoms: O_34  and  C_35
REMARK                            x       y       z     vdW  Elec       q    Type
REMARK                         _______ _______ _______ _____ _____    ______ ____
ROOT
ATOM      1  C   UNL     1      -0.014   1.083   0.005  0.00  0.00    -0.050 C 
ATOM      2  C   UNL     1      -0.759   1.587   1.259  0.00  0.00    +0.091 C 
ATOM      3  C   UNL     1      -1.547   2.815   0.723  0.00  0.00    +0.019 C 
ATOM      4  C   UNL     1      -1.920   2.351  -0.707  0.00  0.00    +0.022 C 
ATOM      5  N   UNL     1      -0.738   1.601  -1.170  0.00  0.00    +0.391 N 
ATOM      6  H   UNL     1      -0.122   2.231  -1.698  0.00  0.00    -0.080 HD
ENDROOT
BRANCH   4   7
ATOM      7  C   UNL     1      -2.157   3.541  -1.600  0.00  0.00    +0.202 C 
ATOM      8  O   UNL     1      -1.238   4.019  -2.231  0.00  0.00    -0.277 OA
ATOM      9  N   UNL     1      -3.390   4.075  -1.698  0.00  0.00    -0.300 N 
ATOM     10  C   UNL     1      -4.496   3.581  -0.863  0.00  0.00    +0.126 C 
ATOM     11  C   UNL     1      -5.155   4.785  -0.173  0.00  0.00    +0.124 C 
ATOM     12  N   UNL     1      -5.540   5.774  -1.189  0.00  0.00    -0.327 N 
ATOM     13  C   UNL     1      -4.363   6.303  -1.891  0.00  0.00    +0.124 C 
ATOM     14  C   UNL     1      -3.669   5.164  -2.647  0.00  0.00    +0.126 C 
BRANCH  12  15
ATOM     15  C   UNL     1      -6.292   6.808  -0.623  0.00  0.00    +0.030 A 
ATOM     16  C   UNL     1      -5.878   8.127  -0.765  0.00  0.00    +0.026 A 
ATOM     17  C   UNL     1      -6.626   9.147  -0.209  0.00  0.00    +0.040 A 
ATOM     18  C   UNL     1      -7.780   8.855   0.498  0.00  0.00    +0.124 A 
ATOM     19  C   UNL     1      -8.191   7.541   0.645  0.00  0.00    +0.040 A 
ATOM     20  C   UNL     1      -7.449   6.518   0.087  0.00  0.00    +0.026 A 
ATOM     21  F   UNL     1      -8.507   9.854   1.045  0.00  0.00    -0.205 F 
ENDBRANCH  12  15
ENDBRANCH   4   7
BRANCH   2  22
ATOM     22  N   UNL     1       0.190   1.991   2.299  0.00  0.00    -0.250 N 
ATOM     23  C   UNL     1       1.405   2.542   2.107  0.00  0.00    +0.145 A 
ATOM     24  C   UNL     1       1.942   2.759   3.345  0.00  0.00    +0.189 A 
ATOM     25  N   UNL     1       1.062   2.334   4.269  0.00  0.00    -0.123 NA
ATOM     26  N   UNL     1       0.012   1.873   3.684  0.00  0.00    -0.065 NA
BRANCH  24  27
ATOM     27  C   UNL     1       3.263   3.351   3.621  0.00  0.00    +0.361 C 
ATOM     28  O   UNL     1       3.976   3.700   2.701  0.00  0.00    -0.243 OA
BRANCH  27  29
ATOM     29  O   UNL     1       3.680   3.506   4.893  0.00  0.00    -0.463 OA
ATOM     30  C   UNL     1       4.992   4.096   5.089  0.00  0.00    +0.280 C 
ENDBRANCH  27  29
ENDBRANCH  24  27
ENDBRANCH   2  22
BRANCH   5  31
ATOM     31  C   UNL     1      -1.153   0.477  -2.049  0.00  0.00    -0.047 C 
BRANCH  31  34
ATOM     32  C   UNL     1      -4.575  -0.877  -0.953  0.00  0.00    +0.035 C 
ATOM     33  C   UNL     1      -3.494  -0.074  -1.629  0.00  0.00    -0.033 C 
ATOM     34  C   UNL     1      -2.234  -0.326  -1.374  0.00  0.00    -0.093 C 
ATOM     35  C   UNL     1      -1.866  -1.420  -0.405  0.00  0.00    +0.037 C 
ENDBRANCH  31  34
ENDBRANCH   5  31
TORSDOF 7
