REMARK  Name = ZINC17020598
REMARK  5 active torsions:
REMARK  status: ('A' for Active; 'I' for Inactive)
REMARK    1  A    between atoms: C_1  and  N_2
REMARK    2  A    between atoms: C_3  and  N_19
REMARK    3  A    between atoms: C_4  and  N_11
REMARK    4  A    between atoms: N_7  and  C_10
REMARK    5  A    between atoms: C_12  and  C_13
REMARK                            x       y       z     vdW  Elec       q    Type
REMARK                         _______ _______ _______ _____ _____    ______ ____
ROOT
ATOM      1  C   UNL     1      -5.759   1.021   1.341  0.00  0.00    +0.155 C 
ATOM      2  N   UNL     1      -4.584   0.652   0.547  0.00  0.00    -0.283 N 
ATOM      3  C   UNL     1      -3.424   1.372   0.675  0.00  0.00    +0.131 A 
ATOM      4  C   UNL     1      -2.315   1.010  -0.085  0.00  0.00    +0.166 A 
ATOM      5  C   UNL     1      -2.429  -0.091  -0.970  0.00  0.00    +0.284 A 
ATOM      6  O   UNL     1      -1.480  -0.431  -1.653  0.00  0.00    -0.265 OA
ATOM      7  N   UNL     1      -3.597  -0.760  -1.046  0.00  0.00    -0.262 N 
ATOM      8  C   UNL     1      -4.653  -0.390  -0.301  0.00  0.00    +0.333 A 
ATOM      9  O   UNL     1      -5.693  -1.011  -0.395  0.00  0.00    -0.246 OA
ATOM     10  C   UNL     1      -3.718  -1.901  -1.956  0.00  0.00    +0.157 C 
ENDROOT
BRANCH   3  11
ATOM     11  N   UNL     1      -3.356   2.431   1.539  0.00  0.00    -0.343 N 
ATOM     12  H   UNL     1      -2.422   3.004   1.635  0.00  0.00    +0.144 HD
ATOM     13  H   UNL     1      -4.237   2.711   2.136  0.00  0.00    +0.144 HD
ENDBRANCH   3  11
BRANCH   4  14
ATOM     14  N   UNL     1      -1.139   1.706   0.017  0.00  0.00    -0.251 NA
ATOM     15  C   UNL     1      -0.024   1.073   0.166  0.00  0.00    +0.088 C 
BRANCH  15  16
ATOM     16  C   UNL     1       1.279   1.829   0.158  0.00  0.00    +0.030 C 
ATOM     17  C   UNL     1       2.156   1.320  -0.988  0.00  0.00    +0.009 C 
ATOM     18  C   UNL     1       3.479   2.088  -0.997  0.00  0.00    +0.001 C 
ATOM     19  C   UNL     1       4.203   1.873   0.334  0.00  0.00    +0.000 C 
ATOM     20  C   UNL     1       3.326   2.381   1.479  0.00  0.00    +0.001 C 
ATOM     21  C   UNL     1       2.003   1.613   1.488  0.00  0.00    +0.009 C 
ENDBRANCH  15  16
ENDBRANCH   4  14
TORSDOF 3
