REMARK  Name = ZINC36331014
REMARK  3 active torsions:
REMARK  status: ('A' for Active; 'I' for Inactive)
REMARK    1  A    between atoms: C_3  and  N_8
REMARK    2  A    between atoms: C_6  and  N_7
REMARK    3  A    between atoms: N_8  and  C_9
REMARK                            x       y       z     vdW  Elec       q    Type
REMARK                         _______ _______ _______ _____ _____    ______ ____
ROOT
ATOM      1  N   UNL     1       3.584   2.130  -0.021  0.00  0.00    -0.341 N 
ATOM      2  H   UNL     1       3.571   3.099  -0.016  0.00  0.00    +0.146 HD
ENDROOT
BRANCH   1   3
ATOM      3  C   UNL     1       4.863   1.415  -0.037  0.00  0.00    +0.073 C 
ATOM      4  C   UNL     1       5.239   1.026   1.390  0.00  0.00    +0.045 C 
ATOM      5  C   UNL     1       6.421   0.053   1.372  0.00  0.00    +0.167 C 
ATOM      6  S   UNL     1       7.864   0.894   0.655  0.00  0.00    -0.031 S 
ATOM      7  O   UNL     1       8.864  -0.078   0.382  0.00  0.00    -0.174 OA
ATOM      8  O   UNL     1       8.187   2.011   1.470  0.00  0.00    -0.174 OA
ATOM      9  C   UNL     1       7.202   1.500  -0.925  0.00  0.00    +0.167 C 
ATOM     10  C   UNL     1       5.933   2.312  -0.652  0.00  0.00    +0.045 C 
ENDBRANCH   1   3
BRANCH   1  13
ATOM     11  C   UNL     1      -0.017   1.384   0.010  0.00  0.00    +0.024 A 
ATOM     12  C   UNL     1       1.170   2.091   0.002  0.00  0.00    +0.025 A 
ATOM     13  C   UNL     1       2.381   1.413  -0.013  0.00  0.00    +0.027 A 
ATOM     14  C   UNL     1       2.400   0.025  -0.021  0.00  0.00    +0.025 A 
ATOM     15  C   UNL     1       1.214  -0.682  -0.013  0.00  0.00    +0.024 A 
ATOM     16  C   UNL     1       0.002  -0.004   0.002  0.00  0.00    +0.025 A 
BRANCH  16  17
ATOM     17  N   UNL     1      -1.201  -0.721   0.010  0.00  0.00    -0.358 N 
ATOM     18  H   UNL     1      -2.047  -0.247   0.021  0.00  0.00    +0.142 HD
ATOM     19  H   UNL     1      -1.188  -1.690   0.005  0.00  0.00    +0.142 HD
ENDBRANCH  16  17
ENDBRANCH   1  13
TORSDOF 3
