REMARK  Name = ZINC16617738
REMARK  5 active torsions:
REMARK  status: ('A' for Active; 'I' for Inactive)
REMARK    1  A    between atoms: C_1  and  N_2
REMARK    2  A    between atoms: N_2  and  C_21
REMARK    3  A    between atoms: C_3  and  C_5
REMARK    4  A    between atoms: C_5  and  N_6
REMARK    5  A    between atoms: C_21  and  C_27
REMARK                            x       y       z     vdW  Elec       q    Type
REMARK                         _______ _______ _______ _____ _____    ______ ____
ROOT
ATOM      1  N   UNL     1      -0.018   1.461   0.010  0.00  0.00    -0.215 N 
ATOM      2  C   UNL     1       1.089   2.235   0.004  0.00  0.00    +0.251 C 
ATOM      3  O   UNL     1       2.244   1.868  -0.009  0.00  0.00    -0.272 OA
ATOM      4  C   UNL     1       0.580   3.653   0.016  0.00  0.00    +0.138 C 
ATOM      5  C   UNL     1       1.084   4.414   1.249  0.00  0.00    +0.045 C 
ATOM      6  C   UNL     1       2.326   5.148   0.693  0.00  0.00    +0.038 C 
ATOM      7  C   UNL     1       2.070   5.293  -0.793  0.00  0.00    -0.042 A 
ATOM      8  C   UNL     1       1.062   4.426  -1.182  0.00  0.00    -0.012 A 
ATOM      9  C   UNL     1       0.664   4.388  -2.508  0.00  0.00    +0.006 A 
ATOM     10  C   UNL     1       1.266   5.209  -3.441  0.00  0.00    +0.000 A 
ATOM     11  C   UNL     1       2.271   6.075  -3.051  0.00  0.00    +0.000 A 
ATOM     12  C   UNL     1       2.671   6.115  -1.730  0.00  0.00    +0.004 A 
ATOM     13  N   UNL     1      -0.877   3.522   0.028  0.00  0.00    -0.281 N 
ATOM     14  C   UNL     1      -1.136   2.199   0.019  0.00  0.00    +0.310 C 
ATOM     15  O   UNL     1      -2.256   1.728   0.021  0.00  0.00    -0.252 OA
ATOM     16  H   UNL     1      -1.527   4.243   0.038  0.00  0.00    +0.152 HD
ENDROOT
BRANCH   1  17
ATOM     17  C   UNL     1       0.002  -0.004   0.002  0.00  0.00    +0.213 C 
BRANCH  17  20
ATOM     18  C   UNL     1       0.045  -2.786   0.540  0.00  0.00    +0.133 C 
ATOM     19  N   UNL     1       0.043  -1.840   1.659  0.00  0.00    -0.285 N 
ATOM     20  C   UNL     1       0.022  -0.514   1.420  0.00  0.00    +0.234 C 
ATOM     21  O   UNL     1       0.021   0.269   2.346  0.00  0.00    -0.274 OA
BRANCH  19  22
ATOM     22  C   UNL     1       0.063  -2.336   3.037  0.00  0.00    +0.124 C 
ATOM     23  C   UNL     1       1.312  -1.813   3.750  0.00  0.00    +0.041 C 
ATOM     24  C   UNL     1       1.332  -2.330   5.189  0.00  0.00    +0.003 C 
ATOM     25  C   UNL     1       1.353  -3.860   5.181  0.00  0.00    +0.000 C 
ATOM     26  C   UNL     1       0.104  -4.383   4.469  0.00  0.00    +0.003 C 
ATOM     27  C   UNL     1       0.083  -3.866   3.029  0.00  0.00    +0.041 C 
BRANCH  22  28
ATOM     28  C   UNL     1      -1.139  -1.865   3.745  0.00  0.00    +0.089 C 
ATOM     29  N   UNL     1      -2.067  -1.502   4.292  0.00  0.00    -0.194 NA
ENDBRANCH  22  28
ENDBRANCH  19  22
ENDBRANCH  17  20
ENDBRANCH   1  17
TORSDOF 4
