REMARK  Name = ZINC14468122
REMARK  6 active torsions:
REMARK  status: ('A' for Active; 'I' for Inactive)
REMARK    1  A    between atoms: C_1  and  C_2
REMARK    2  A    between atoms: C_2  and  O_4
REMARK    3  A    between atoms: O_4  and  C_5
REMARK    4  A    between atoms: C_8  and  C_13
REMARK    5  A    between atoms: C_10  and  O_11
REMARK    6  A    between atoms: O_11  and  C_12
REMARK                            x       y       z     vdW  Elec       q    Type
REMARK                         _______ _______ _______ _____ _____    ______ ____
ROOT
ATOM      1  C   UNL     1      -0.831   1.526  -1.127  0.00  0.00    +0.105 C 
ATOM      2  C   UNL     1      -0.876   3.052  -1.012  0.00  0.00    +0.029 C 
ATOM      3  C   UNL     1      -1.577   3.603  -2.286  0.00  0.00    +0.033 C 
ATOM      4  C   UNL     1      -0.469   3.627  -3.320  0.00  0.00    -0.030 C 
ATOM      5  C   UNL     1       0.704   3.634  -2.736  0.00  0.00    -0.023 C 
ATOM      6  C   UNL     1       0.547   3.609  -1.233  0.00  0.00    +0.049 C 
ATOM      7  C   UNL     1       1.589   2.727  -0.608  0.00  0.00    -0.019 A 
ATOM      8  C   UNL     1       2.909   3.196  -0.591  0.00  0.00    +0.006 A 
ATOM      9  C   UNL     1       3.921   2.468  -0.053  0.00  0.00    +0.009 A 
ATOM     10  C   UNL     1       3.654   1.205   0.503  0.00  0.00    -0.016 A 
ATOM     11  C   UNL     1       4.677   0.423   1.065  0.00  0.00    +0.008 A 
ATOM     12  C   UNL     1       4.377  -0.796   1.593  0.00  0.00    +0.001 A 
ATOM     13  C   UNL     1       3.071  -1.279   1.584  0.00  0.00    +0.001 A 
ATOM     14  C   UNL     1       2.056  -0.547   1.047  0.00  0.00    +0.010 A 
ATOM     15  C   UNL     1       2.328   0.715   0.494  0.00  0.00    +0.003 A 
ATOM     16  C   UNL     1       1.291   1.500  -0.069  0.00  0.00    +0.039 A 
ATOM     17  N   UNL     1      -0.000   0.985  -0.051  0.00  0.00    -0.336 N 
ATOM     18  H   UNL     1       0.012  -0.024  -0.075  0.00  0.00    +0.147 HD
ENDROOT
BRANCH   1  22
ATOM     19  C   UNL     1      -4.794  -0.045  -0.792  0.00  0.00    +0.173 A 
ATOM     20  C   UNL     1      -4.094   0.324   0.345  0.00  0.00    +0.050 A 
ATOM     21  C   UNL     1      -2.813   0.831   0.234  0.00  0.00    +0.009 A 
ATOM     22  C   UNL     1      -2.228   0.972  -1.011  0.00  0.00    -0.023 A 
ATOM     23  C   UNL     1      -2.922   0.610  -2.150  0.00  0.00    +0.055 A 
ATOM     24  C   UNL     1      -4.205   0.096  -2.045  0.00  0.00    +0.163 A 
BRANCH  24  25
ATOM     25  O   UNL     1      -4.888  -0.265  -3.164  0.00  0.00    -0.491 OA
ATOM     26  C   UNL     1      -4.220  -0.092  -4.416  0.00  0.00    +0.277 C 
ENDBRANCH  24  25
BRANCH  19  27
ATOM     27  O   UNL     1      -6.055  -0.545  -0.685  0.00  0.00    -0.422 OA
BRANCH  27  29
ATOM     28  C   UNL     1      -7.561  -2.500  -0.747  0.00  0.00    +0.136 C 
ATOM     29  C   UNL     1      -6.188  -1.880  -0.737  0.00  0.00    +0.309 C 
ATOM     30  O   UNL     1      -5.206  -2.583  -0.775  0.00  0.00    -0.251 OA
ENDBRANCH  27  29
ENDBRANCH  19  27
ENDBRANCH   1  22
TORSDOF 4
