REMARK  Name = ZINC58971757
REMARK  10 active torsions:
REMARK  status: ('A' for Active; 'I' for Inactive)
REMARK    1  A    between atoms: C_1  and  C_2
REMARK    2  A    between atoms: C_5  and  O_32
REMARK    3  A    between atoms: C_6  and  N_8
REMARK    4  A    between atoms: C_9  and  C_11
REMARK    5  A    between atoms: C_11  and  C_12
REMARK    6  A    between atoms: C_12  and  C_13
REMARK    7  A    between atoms: C_13  and  S_14
REMARK    8  A    between atoms: S_14  and  C_15
REMARK    9  A    between atoms: C_17  and  C_25
REMARK   10  A    between atoms: C_19  and  C_21
REMARK                            x       y       z     vdW  Elec       q    Type
REMARK                         _______ _______ _______ _____ _____    ______ ____
ROOT
ATOM      1  S   UNL     1       0.616  -1.517   8.723  0.00  0.00    -0.086 S 
ENDROOT
BRANCH   1   2
ATOM      2  C   UNL     1       0.761  -2.551  10.143  0.00  0.00    +0.189 A 
ATOM      3  N   UNL     1       0.858  -1.993  11.340  0.00  0.00    -0.222 NA
ATOM      4  C   UNL     1       0.969  -2.746  12.432  0.00  0.00    +0.076 A 
ATOM      5  C   UNL     1       0.980  -4.138  12.296  0.00  0.00    +0.060 A 
ATOM      6  C   UNL     1       0.876  -4.677  11.027  0.00  0.00    +0.148 A 
ATOM      7  N   UNL     1       0.764  -3.867   9.986  0.00  0.00    -0.218 NA
BRANCH   4   8
ATOM      8  C   UNL     1       1.078  -2.120  13.771  0.00  0.00    +0.001 A 
ATOM      9  C   UNL     1       1.199  -2.917  14.908  0.00  0.00    +0.011 A 
ATOM     10  C   UNL     1       1.301  -2.329  16.152  0.00  0.00    +0.020 A 
ATOM     11  C   UNL     1       1.282  -0.949  16.272  0.00  0.00    +0.041 A 
ATOM     12  C   UNL     1       1.162  -0.153  15.146  0.00  0.00    +0.020 A 
ATOM     13  C   UNL     1       1.066  -0.731  13.897  0.00  0.00    +0.011 A 
ATOM     14 CL   UNL     1       1.410  -0.216  17.840  0.00  0.00    -0.084 Cl
ENDBRANCH   4   8
BRANCH   6  15
ATOM     15  C   UNL     1       0.885  -6.171  10.831  0.00  0.00    +0.434 C 
ATOM     16  F   UNL     1      -0.426  -6.657  10.888  0.00  0.00    -0.164 F 
ATOM     17  F   UNL     1       1.441  -6.475   9.584  0.00  0.00    -0.164 F 
ATOM     18  F   UNL     1       1.648  -6.769  11.840  0.00  0.00    -0.164 F 
ENDBRANCH   6  15
ENDBRANCH   1   2
BRANCH   1  19
ATOM     19  C   UNL     1       0.504  -2.684   7.340  0.00  0.00    +0.078 C 
BRANCH  19  20
ATOM     20  C   UNL     1       0.373  -1.909   6.027  0.00  0.00    +0.020 C 
BRANCH  20  21
ATOM     21  C   UNL     1       0.279  -2.894   4.860  0.00  0.00    +0.097 C 
BRANCH  21  23
ATOM     22  N   UNL     1       0.050  -2.795   2.399  0.00  0.00    -0.283 N 
ATOM     23  C   UNL     1       0.149  -2.130   3.568  0.00  0.00    +0.217 C 
ATOM     24  O   UNL     1       0.134  -0.917   3.579  0.00  0.00    -0.275 OA
ATOM     25  H   UNL     1      -0.002  -3.763   2.395  0.00  0.00    +0.155 HD
BRANCH  22  31
ATOM     26  C   UNL     1      -1.307   1.189  -0.143  0.00  0.00    +0.044 C 
ATOM     27  C   UNL     1      -0.627  -0.153  -0.071  0.00  0.00    -0.048 A 
ATOM     28  C   UNL     1      -0.029  -0.685  -1.199  0.00  0.00    +0.007 A 
ATOM     29  C   UNL     1       0.596  -1.917  -1.139  0.00  0.00    +0.047 A 
ATOM     30  C   UNL     1       0.625  -2.622   0.054  0.00  0.00    +0.138 A 
ATOM     31  C   UNL     1       0.024  -2.086   1.191  0.00  0.00    +0.076 A 
ATOM     32  C   UNL     1      -0.597  -0.847   1.124  0.00  0.00    +0.030 A 
BRANCH  30  33
ATOM     33  O   UNL     1       1.239  -3.834   0.115  0.00  0.00    -0.505 OA
ATOM     34  H   UNL     1       2.177  -3.788   0.347  0.00  0.00    +0.292 HD
ENDBRANCH  30  33
ENDBRANCH  22  31
ENDBRANCH  21  23
ENDBRANCH  20  21
ENDBRANCH  19  20
ENDBRANCH   1  19
TORSDOF 9
