REMARK  Name = ZINC01325743
REMARK  8 active torsions:
REMARK  status: ('A' for Active; 'I' for Inactive)
REMARK    1  A    between atoms: C_1  and  C_2
REMARK    2  A    between atoms: C_2  and  C_3
REMARK    3  A    between atoms: C_8  and  N_9
REMARK    4  A    between atoms: C_10  and  C_12
REMARK    5  A    between atoms: C_12  and  S_13
REMARK    6  A    between atoms: S_13  and  C_14
REMARK    7  A    between atoms: N_25  and  C_26
REMARK    8  A    between atoms: C_26  and  C_27
REMARK                            x       y       z     vdW  Elec       q    Type
REMARK                         _______ _______ _______ _____ _____    ______ ____
ROOT
ATOM      1  C   UNL     1       1.280   1.802  -0.032  0.00  0.00    +0.198 A 
ATOM      2  N   UNL     1       2.065   0.752  -0.052  0.00  0.00    -0.120 NA
ATOM      3  N   UNL     1       1.258  -0.393  -0.061  0.00  0.00    -0.109 NA
ATOM      4  C   UNL     1       0.003  -0.005  -0.046  0.00  0.00    +0.238 A 
ATOM      5  N   UNL     1      -0.016   1.361  -0.028  0.00  0.00    -0.254 N 
ATOM      6  C   UNL     1      -1.348   1.781  -0.016  0.00  0.00    +0.075 A 
ATOM      7  C   UNL     1      -1.938   3.037   0.011  0.00  0.00    +0.028 A 
ATOM      8  C   UNL     1      -3.313   3.152   0.023  0.00  0.00    +0.002 A 
ATOM      9  C   UNL     1      -4.109   2.019   0.014  0.00  0.00    +0.002 A 
ATOM     10  C   UNL     1      -3.532   0.764  -0.007  0.00  0.00    +0.028 A 
ATOM     11  C   UNL     1      -2.149   0.639  -0.019  0.00  0.00    +0.069 A 
ATOM     12  N   UNL     1      -1.303  -0.465  -0.041  0.00  0.00    -0.299 N 
ENDROOT
BRANCH   1  13
ATOM     13  S   UNL     1       1.802   3.485  -0.014  0.00  0.00    -0.076 S 
BRANCH  13  14
ATOM     14  C   UNL     1       3.613   3.383  -0.030  0.00  0.00    +0.173 C 
BRANCH  14  16
ATOM     15  N   UNL     1       5.531   4.945  -0.025  0.00  0.00    -0.285 N 
ATOM     16  C   UNL     1       4.194   4.774  -0.016  0.00  0.00    +0.227 C 
ATOM     17  O   UNL     1       3.459   5.738   0.002  0.00  0.00    -0.275 OA
ATOM     18  H   UNL     1       6.119   4.177   0.042  0.00  0.00    +0.155 HD
BRANCH  15  24
ATOM     19  C   UNL     1       7.345   6.494   0.356  0.00  0.00    -0.026 A 
ATOM     20  C   UNL     1       7.874   7.765   0.252  0.00  0.00    +0.005 A 
ATOM     21  C   UNL     1       7.137   8.777  -0.335  0.00  0.00    +0.000 A 
ATOM     22  C   UNL     1       5.867   8.520  -0.820  0.00  0.00    +0.002 A 
ATOM     23  C   UNL     1       5.334   7.249  -0.723  0.00  0.00    +0.023 A 
ATOM     24  C   UNL     1       6.070   6.232  -0.129  0.00  0.00    +0.037 A 
BRANCH  19  26
ATOM     25  C   UNL     1       8.884   4.601  -0.090  0.00  0.00    +0.009 C 
ATOM     26  C   UNL     1       8.149   5.391   0.995  0.00  0.00    +0.033 C 
ENDBRANCH  19  26
ENDBRANCH  15  24
ENDBRANCH  14  16
ENDBRANCH  13  14
ENDBRANCH   1  13
BRANCH  12  27
ATOM     27  C   UNL     1      -1.720  -1.869  -0.056  0.00  0.00    +0.221 C 
BRANCH  27  28
ATOM     28  C   UNL     1      -1.851  -2.369   1.360  0.00  0.00    +0.235 C 
ATOM     29  O   UNL     1      -1.619  -1.626   2.290  0.00  0.00    -0.274 OA
ATOM     30  N   UNL     1      -2.226  -3.643   1.593  0.00  0.00    -0.300 N 
ATOM     31  C   UNL     1      -2.543  -4.644   0.565  0.00  0.00    +0.108 C 
ATOM     32  C   UNL     1      -2.943  -5.942   1.298  0.00  0.00    +0.020 C 
ATOM     33  C   UNL     1      -3.383  -5.429   2.694  0.00  0.00    +0.020 C 
ATOM     34  C   UNL     1      -2.393  -4.260   2.922  0.00  0.00    +0.108 C 
ENDBRANCH  27  28
ENDBRANCH  12  27
TORSDOF 7
