REMARK  Name = ZINC63348781
REMARK  3 active torsions:
REMARK  status: ('A' for Active; 'I' for Inactive)
REMARK    1  A    between atoms: C_1  and  C_2
REMARK    2  A    between atoms: C_7  and  C_12
REMARK    3  A    between atoms: N_19  and  C_21
REMARK                            x       y       z     vdW  Elec       q    Type
REMARK                         _______ _______ _______ _____ _____    ______ ____
ROOT
ATOM      1  C   UNL     1      -0.018   1.503   0.010  0.00  0.00    +0.062 C 
ATOM      2  C   UNL     1       0.002  -0.004   0.002  0.00  0.00    +0.024 C 
ATOM      3  C   UNL     1      -1.092  -0.783   0.003  0.00  0.00    +0.031 C 
ATOM      4  C   UNL     1      -0.572  -2.194   0.278  0.00  0.00    +0.115 C 
ATOM      5  C   UNL     1      -1.436  -3.125  -0.572  0.00  0.00    +0.034 C 
ATOM      6  C   UNL     1      -2.880  -2.999  -0.087  0.00  0.00    +0.028 C 
ATOM      7  C   UNL     1      -3.456  -1.609  -0.264  0.00  0.00    +0.087 C 
ATOM      8  C   UNL     1      -2.445  -0.507  -0.169  0.00  0.00    +0.163 C 
ATOM      9  O   UNL     1      -2.816   0.648  -0.225  0.00  0.00    -0.292 OA
ATOM     10  N   UNL     1       0.819  -2.092  -0.197  0.00  0.00    -0.181 NA
ATOM     11  N   UNL     1       1.134  -0.764  -0.013  0.00  0.00    -0.278 N 
ATOM     12  H   UNL     1       2.034  -0.419   0.092  0.00  0.00    +0.166 HD
ENDROOT
BRANCH  10  13
ATOM     13  C   UNL     1       1.707  -2.960   0.587  0.00  0.00    +0.269 C 
ATOM     14  N   UNL     1       1.306  -4.364   0.430  0.00  0.00    -0.350 N 
ATOM     15  C   UNL     1       0.989  -4.814   1.610  0.00  0.00    +0.061 A 
ATOM     16  C   UNL     1       0.520  -6.122   2.087  0.00  0.00    +0.027 A 
ATOM     17  C   UNL     1       0.265  -6.299   3.399  0.00  0.00    +0.002 A 
ATOM     18  C   UNL     1       0.429  -5.274   4.348  0.00  0.00    +0.002 A 
ATOM     19  C   UNL     1       0.853  -4.038   4.017  0.00  0.00    +0.027 A 
ATOM     20  C   UNL     1       1.163  -3.729   2.614  0.00  0.00    +0.061 A 
ATOM     21  N   UNL     1       1.581  -2.651   2.017  0.00  0.00    -0.350 N 
ATOM     22  H   UNL     1       1.282  -4.864  -0.400  0.00  0.00    +0.163 HD
ATOM     23  H   UNL     1       1.774  -1.799   2.439  0.00  0.00    +0.163 HD
ENDBRANCH  10  13
BRANCH   6  24
ATOM     24  C   UNL     1      -3.734  -3.975  -0.855  0.00  0.00    -0.044 A 
ATOM     25  C   UNL     1      -3.818  -3.885  -2.232  0.00  0.00    +0.005 A 
ATOM     26  C   UNL     1      -4.601  -4.779  -2.937  0.00  0.00    +0.020 A 
ATOM     27  C   UNL     1      -5.301  -5.765  -2.264  0.00  0.00    +0.041 A 
ATOM     28  C   UNL     1      -5.217  -5.855  -0.886  0.00  0.00    +0.020 A 
ATOM     29  C   UNL     1      -4.429  -4.963  -0.183  0.00  0.00    +0.005 A 
ATOM     30 CL   UNL     1      -6.286  -6.888  -3.149  0.00  0.00    -0.084 Cl
ENDBRANCH   6  24
TORSDOF 2
