REMARK  Name = ZINC36313904
REMARK  17 active torsions:
REMARK  status: ('A' for Active; 'I' for Inactive)
REMARK    1  A    between atoms: C_1  and  C_2
REMARK    2  A    between atoms: C_2  and  C_3
REMARK    3  A    between atoms: C_3  and  C_4
REMARK    4  A    between atoms: C_4  and  C_5
REMARK    5  A    between atoms: C_5  and  C_7
REMARK    6  A    between atoms: C_5  and  O_38
REMARK    7  A    between atoms: C_7  and  N_8
REMARK    8  A    between atoms: N_8  and  C_9
REMARK    9  A    between atoms: N_8  and  C_16
REMARK   10  A    between atoms: C_9  and  C_10
REMARK   11  A    between atoms: C_16  and  C_17
REMARK   12  A    between atoms: C_18  and  C_37
REMARK   13  A    between atoms: N_20  and  C_31
REMARK   14  A    between atoms: C_21  and  O_22
REMARK   15  A    between atoms: O_22  and  C_23
REMARK   16  A    between atoms: C_28  and  O_29
REMARK   17  A    between atoms: O_29  and  C_30
REMARK                            x       y       z     vdW  Elec       q    Type
REMARK                         _______ _______ _______ _____ _____    ______ ____
ROOT
ATOM      1  C   UNL     1       2.087  -6.665  -5.702  0.00  0.00    +0.021 A 
ATOM      2  C   UNL     1       1.150  -6.363  -6.695  0.00  0.00    +0.065 A 
ATOM      3  N   UNL     1       1.705  -6.566  -7.863  0.00  0.00    -0.168 NA
ATOM      4  N   UNL     1       3.018  -7.007  -7.658  0.00  0.00    -0.200 N 
ATOM      5  C   UNL     1       3.235  -7.056  -6.316  0.00  0.00    +0.225 A 
ATOM      6  C   UNL     1      -0.259  -5.883  -6.461  0.00  0.00    +0.068 C 
ENDROOT
BRANCH   4   7
ATOM      7  C   UNL     1       3.945  -7.335  -8.657  0.00  0.00    +0.069 A 
ATOM      8  C   UNL     1       5.257  -6.891  -8.561  0.00  0.00    +0.028 A 
ATOM      9  C   UNL     1       6.169  -7.215  -9.547  0.00  0.00    +0.002 A 
ATOM     10  C   UNL     1       5.775  -7.980 -10.630  0.00  0.00    +0.000 A 
ATOM     11  C   UNL     1       4.469  -8.422 -10.729  0.00  0.00    +0.002 A 
ATOM     12  C   UNL     1       3.554  -8.107  -9.742  0.00  0.00    +0.028 A 
ENDBRANCH   4   7
BRANCH   1  13
ATOM     13  C   UNL     1       1.864  -6.570  -4.215  0.00  0.00    -0.035 C 
BRANCH  13  14
ATOM     14  N   UNL     1       2.228  -5.224  -3.751  0.00  0.00    +0.387 N 
ATOM     15  H   UNL     1       3.176  -5.017  -4.030  0.00  0.00    -0.081 HD
BRANCH  14  16
ATOM     16  C   UNL     1       2.126  -5.167  -2.286  0.00  0.00    -0.046 C 
BRANCH  16  17
ATOM     17  C   UNL     1       2.894  -3.949  -1.769  0.00  0.00    +0.098 C 
BRANCH  17  18
ATOM     18  O   UNL     1       4.250  -4.016  -2.215  0.00  0.00    -0.394 OA
ATOM     19  H   UNL     1       4.725  -4.802  -1.913  0.00  0.00    +0.210 HD
ENDBRANCH  17  18
BRANCH  17  20
ATOM     20  C   UNL     1       2.860  -3.937  -0.239  0.00  0.00    +0.029 C 
BRANCH  20  21
ATOM     21  C   UNL     1       3.519  -2.656   0.276  0.00  0.00    +0.002 C 
BRANCH  21  23
ATOM     22  C   UNL     1       4.145  -1.363   2.320  0.00  0.00    +0.004 C 
ATOM     23  C   UNL     1       3.485  -2.644   1.805  0.00  0.00    -0.003 C 
ENDBRANCH  21  23
ENDBRANCH  20  21
ENDBRANCH  17  20
ENDBRANCH  16  17
ENDBRANCH  14  16
BRANCH  14  24
ATOM     24  C   UNL     1       1.316  -4.238  -4.344  0.00  0.00    -0.042 C 
BRANCH  24  25
ATOM     25  C   UNL     1       1.800  -2.848  -4.022  0.00  0.00    -0.064 A 
ATOM     26  C   UNL     1       1.009  -1.996  -3.275  0.00  0.00    +0.002 A 
ATOM     27  C   UNL     1       1.453  -0.721  -2.979  0.00  0.00    +0.000 A 
ATOM     28  C   UNL     1       2.689  -0.298  -3.431  0.00  0.00    +0.000 A 
ATOM     29  C   UNL     1       3.481  -1.150  -4.177  0.00  0.00    +0.000 A 
ATOM     30  C   UNL     1       3.039  -2.426  -4.469  0.00  0.00    +0.002 A 
ENDBRANCH  24  25
ENDBRANCH  14  24
ENDBRANCH  13  14
ENDBRANCH   1  13
BRANCH   5  31
ATOM     31  O   UNL     1       4.387  -7.429  -5.702  0.00  0.00    -0.434 OA
BRANCH  31  32
ATOM     32  C   UNL     1       4.591  -8.755  -5.481  0.00  0.00    +0.172 A 
ATOM     33  C   UNL     1       3.690  -9.688  -5.970  0.00  0.00    +0.050 A 
ATOM     34  C   UNL     1       3.900 -11.036  -5.744  0.00  0.00    +0.004 A 
ATOM     35  C   UNL     1       5.008 -11.456  -5.031  0.00  0.00    +0.004 A 
ATOM     36  C   UNL     1       5.910 -10.531  -4.540  0.00  0.00    +0.049 A 
ATOM     37  C   UNL     1       5.709  -9.179  -4.768  0.00  0.00    +0.162 A 
BRANCH  37  38
ATOM     38  O   UNL     1       6.599  -8.268  -4.291  0.00  0.00    -0.491 OA
ATOM     39  C   UNL     1       7.722  -8.775  -3.568  0.00  0.00    +0.277 C 
ENDBRANCH  37  38
ENDBRANCH  31  32
ENDBRANCH   5  31
TORSDOF 14
