REMARK  Name = ZINC60272853
REMARK  10 active torsions:
REMARK  status: ('A' for Active; 'I' for Inactive)
REMARK    1  A    between atoms: C_1  and  C_2
REMARK    2  A    between atoms: C_2  and  C_3
REMARK    3  A    between atoms: C_2  and  C_4
REMARK    4  A    between atoms: C_2  and  O_5
REMARK    5  A    between atoms: O_5  and  C_6
REMARK    6  A    between atoms: N_8  and  C_9
REMARK    7  A    between atoms: C_11  and  N_17
REMARK    8  A    between atoms: C_14  and  O_15
REMARK    9  A    between atoms: O_15  and  C_16
REMARK   10  A    between atoms: C_18  and  C_20
REMARK                            x       y       z     vdW  Elec       q    Type
REMARK                         _______ _______ _______ _____ _____    ______ ____
ROOT
ATOM      1  C   UNL     1       3.954  -0.039  -2.705  0.00  0.00    +0.080 A 
ATOM      2  C   UNL     1       4.617   0.740  -1.769  0.00  0.00    +0.050 A 
ATOM      3  C   UNL     1       5.901   1.197  -2.033  0.00  0.00    +0.035 A 
ATOM      4  C   UNL     1       6.520   0.873  -3.233  0.00  0.00    +0.027 A 
ATOM      5  C   UNL     1       5.860   0.097  -4.167  0.00  0.00    +0.049 A 
ATOM      6  C   UNL     1       4.580  -0.365  -3.905  0.00  0.00    +0.141 A 
ENDROOT
BRANCH   1   9
ATOM      7  C   UNL     1       1.798   0.265  -1.741  0.00  0.00    +0.405 C 
ATOM      8  O   UNL     1       2.172   1.319  -1.266  0.00  0.00    -0.226 OA
ATOM      9  N   UNL     1       2.657  -0.501  -2.442  0.00  0.00    -0.248 N 
ATOM     10  H   UNL     1       2.379  -1.373  -2.763  0.00  0.00    +0.158 HD
BRANCH   7  11
ATOM     11  O   UNL     1       0.524  -0.138  -1.568  0.00  0.00    -0.444 OA
BRANCH  11  13
ATOM     12  C   UNL     1      -0.421   2.085  -1.506  0.00  0.00    +0.055 C 
ATOM     13  C   UNL     1      -0.332   0.724  -0.815  0.00  0.00    +0.107 C 
ATOM     14  C   UNL     1       0.238   0.904   0.594  0.00  0.00    +0.055 C 
ATOM     15  C   UNL     1      -1.728   0.104  -0.725  0.00  0.00    +0.055 C 
ENDBRANCH  11  13
ENDBRANCH   7  11
ENDBRANCH   1   9
BRANCH   3  16
ATOM     16  N   UNL     1       6.572   1.984  -1.088  0.00  0.00    -0.282 N 
ATOM     17  C   UNL     1       7.919   1.999  -1.058  0.00  0.00    +0.259 C 
ATOM     18  O   UNL     1       8.550   1.251  -1.775  0.00  0.00    -0.271 OA
ATOM     19  H   UNL     1       6.066   2.519  -0.456  0.00  0.00    +0.155 HD
BRANCH  17  20
ATOM     20  C   UNL     1       8.642   2.943  -0.132  0.00  0.00    +0.269 C 
ATOM     21  C   UNL     1       8.366   4.394  -0.560  0.00  0.00    +0.128 C 
ATOM     22  S   UNL     1       9.112   5.472   0.703  0.00  0.00    -0.117 S 
ATOM     23  C   UNL     1      10.676   4.702   0.991  0.00  0.00    +0.050 A 
ATOM     24  C   UNL     1      11.651   5.396   1.694  0.00  0.00    +0.018 A 
ATOM     25  C   UNL     1      12.879   4.812   1.939  0.00  0.00    +0.001 A 
ATOM     26  C   UNL     1      13.132   3.531   1.484  0.00  0.00    +0.004 A 
ATOM     27  C   UNL     1      12.168   2.838   0.782  0.00  0.00    +0.047 A 
ATOM     28  C   UNL     1      10.928   3.418   0.521  0.00  0.00    +0.135 A 
ATOM     29  O   UNL     1      10.038   2.696  -0.198  0.00  0.00    -0.478 OA
ENDBRANCH  17  20
ENDBRANCH   3  16
BRANCH   6  30
ATOM     30  O   UNL     1       3.934  -1.134  -4.823  0.00  0.00    -0.493 OA
ATOM     31  C   UNL     1       4.637  -1.430  -6.032  0.00  0.00    +0.277 C 
ENDBRANCH   6  30
TORSDOF 6
