REMARK  Name = ZINC35426967
REMARK  4 active torsions:
REMARK  status: ('A' for Active; 'I' for Inactive)
REMARK    1  A    between atoms: C_1  and  C_2
REMARK    2  A    between atoms: C_2  and  C_3
REMARK    3  A    between atoms: N_16  and  C_19
REMARK    4  A    between atoms: N_24  and  C_25
REMARK                            x       y       z     vdW  Elec       q    Type
REMARK                         _______ _______ _______ _____ _____    ______ ____
ROOT
ATOM      1  C   UNL     1       0.714  -0.486  -1.243  0.00  0.00    +0.125 C 
ATOM      2  C   UNL     1       0.595  -1.980  -1.307  0.00  0.00    +0.045 A 
ATOM      3  C   UNL     1       0.196  -2.760  -2.322  0.00  0.00    +0.025 A 
ATOM      4  C   UNL     1       0.207  -4.094  -1.860  0.00  0.00    +0.020 A 
ATOM      5  C   UNL     1       0.631  -4.077  -0.576  0.00  0.00    +0.092 A 
ATOM      6  N   UNL     1       0.898  -2.794  -0.240  0.00  0.00    -0.312 N 
ATOM      7  C   UNL     1       1.434  -2.239   0.915  0.00  0.00    +0.090 A 
ATOM      8  C   UNL     1       2.423  -1.304   0.923  0.00  0.00    +0.004 A 
ATOM      9  C   UNL     1       2.822  -0.817   2.181  0.00  0.00    -0.034 A 
ATOM     10  C   UNL     1       2.217  -1.336   3.284  0.00  0.00    -0.021 A 
ATOM     11  S   UNL     1       1.064  -2.509   2.622  0.00  0.00    -0.077 S 
ATOM     12  C   UNL     1       2.489  -0.977   4.708  0.00  0.00    -0.036 C 
ATOM     13  N   UNL     1       3.765  -0.239   4.764  0.00  0.00    +0.381 N 
ATOM     14  C   UNL     1       3.751   0.838   3.767  0.00  0.00    -0.074 C 
ATOM     15  C   UNL     1       3.891   0.259   2.356  0.00  0.00    +0.018 C 
ATOM     16  C   UNL     1       3.939   0.336   6.104  0.00  0.00    -0.096 C 
ATOM     17  C   UNL     1       3.050  -0.850  -0.376  0.00  0.00    +0.148 C 
ATOM     18  N   UNL     1       2.131  -0.049  -1.201  0.00  0.00    -0.272 N 
ATOM     19  C   UNL     1       2.557   1.032  -1.884  0.00  0.00    +0.307 C 
ATOM     20  O   UNL     1       1.774   1.674  -2.556  0.00  0.00    -0.252 OA
ATOM     21  N   UNL     1       3.852   1.400  -1.822  0.00  0.00    -0.269 N 
ATOM     22  H   UNL     1       4.463   0.928  -1.235  0.00  0.00    +0.156 HD
ATOM     23  H   UNL     1       4.527  -0.871   4.567  0.00  0.00    -0.082 HD
ENDROOT
BRANCH  21  24
ATOM     24  C   UNL     1       4.315   2.464  -2.604  0.00  0.00    +0.038 A 
ATOM     25  C   UNL     1       3.487   3.547  -2.853  0.00  0.00    +0.023 A 
ATOM     26  C   UNL     1       3.945   4.596  -3.627  0.00  0.00    +0.002 A 
ATOM     27  C   UNL     1       5.222   4.557  -4.149  0.00  0.00    +0.004 A 
ATOM     28  C   UNL     1       6.056   3.473  -3.903  0.00  0.00    -0.042 A 
ATOM     29  C   UNL     1       5.609   2.430  -3.125  0.00  0.00    -0.023 A 
ATOM     30  C   UNL     1       6.465   1.235  -2.800  0.00  0.00    +0.037 C 
ATOM     31  C   UNL     1       7.645   1.141  -3.764  0.00  0.00    +0.005 C 
ATOM     32  C   UNL     1       8.352   2.502  -3.798  0.00  0.00    +0.005 C 
ATOM     33  C   UNL     1       7.434   3.496  -4.512  0.00  0.00    +0.035 C 
ENDBRANCH  21  24
BRANCH   1  35
ATOM     34  C   UNL     1      -0.018   1.547   0.010  0.00  0.00    +0.006 C 
ATOM     35  C   UNL     1      -0.001   0.017   0.012  0.00  0.00    +0.025 C 
ENDBRANCH   1  35
TORSDOF 2
