REMARK  Name = ZINC35646638
REMARK  12 active torsions:
REMARK  status: ('A' for Active; 'I' for Inactive)
REMARK    1  A    between atoms: C_1  and  C_2
REMARK    2  A    between atoms: C_2  and  N_3
REMARK    3  A    between atoms: C_4  and  C_24
REMARK    4  A    between atoms: C_5  and  C_19
REMARK    5  A    between atoms: C_6  and  C_11
REMARK    6  A    between atoms: C_14  and  C_18
REMARK    7  A    between atoms: C_16  and  C_17
REMARK    8  A    between atoms: C_19  and  O_21
REMARK    9  A    between atoms: O_21  and  C_22
REMARK   10  A    between atoms: C_22  and  C_23
REMARK   11  A    between atoms: C_24  and  N_25
REMARK   12  A    between atoms: C_32  and  C_34
REMARK                            x       y       z     vdW  Elec       q    Type
REMARK                         _______ _______ _______ _____ _____    ______ ____
ROOT
ATOM      1  N   UNL     1      -1.463  -1.600   0.358  0.00  0.00    -0.261 N 
ATOM      2  C   UNL     1      -1.437  -2.506   1.379  0.00  0.00    +0.010 C 
ATOM      3  C   UNL     1      -2.033  -3.711   1.257  0.00  0.00    +0.076 C 
ATOM      4  C   UNL     1      -2.731  -4.023  -0.051  0.00  0.00    +0.144 C 
ATOM      5  N   UNL     1      -2.703  -2.978  -1.088  0.00  0.00    -0.288 N 
ATOM      6  C   UNL     1      -2.069  -1.821  -0.815  0.00  0.00    +0.307 C 
ATOM      7  O   UNL     1      -2.043  -0.951  -1.663  0.00  0.00    -0.252 OA
ATOM      8  H   UNL     1      -3.132  -3.119  -1.946  0.00  0.00    +0.151 HD
ENDROOT
BRANCH   4   9
ATOM      9  C   UNL     1      -2.105  -5.267  -0.627  0.00  0.00    -0.020 A 
ATOM     10  C   UNL     1      -0.861  -5.681  -0.189  0.00  0.00    +0.006 A 
ATOM     11  C   UNL     1      -0.286  -6.822  -0.717  0.00  0.00    +0.004 A 
ATOM     12  C   UNL     1      -0.956  -7.548  -1.685  0.00  0.00    -0.050 A 
ATOM     13  C   UNL     1      -2.200  -7.134  -2.123  0.00  0.00    +0.007 A 
ATOM     14  C   UNL     1      -2.776  -5.996  -1.591  0.00  0.00    -0.045 A 
ATOM     15  C   UNL     1      -4.135  -5.548  -2.064  0.00  0.00    +0.044 C 
ATOM     16  C   UNL     1      -0.329  -8.791  -2.262  0.00  0.00    +0.044 C 
ENDBRANCH   4   9
BRANCH   1  18
ATOM     17  C   UNL     1      -1.821   0.729   1.015  0.00  0.00    +0.025 C 
ATOM     18  C   UNL     1      -0.795  -0.311   0.560  0.00  0.00    +0.111 C 
ENDBRANCH   1  18
BRANCH   3  19
ATOM     19  C   UNL     1      -2.005  -4.651   2.314  0.00  0.00    +0.339 C 
ATOM     20  O   UNL     1      -1.394  -4.400   3.336  0.00  0.00    -0.245 OA
BRANCH  19  21
ATOM     21  O   UNL     1      -2.657  -5.826   2.189  0.00  0.00    -0.462 OA
BRANCH  21  22
ATOM     22  C   UNL     1      -2.681  -6.680   3.335  0.00  0.00    +0.229 C 
ATOM     23  C   UNL     1      -3.360  -8.002   2.971  0.00  0.00    +0.048 C 
ENDBRANCH  21  22
ENDBRANCH  19  21
ENDBRANCH   3  19
BRANCH   2  24
ATOM     24  C   UNL     1      -0.730  -2.155   2.664  0.00  0.00    -0.026 C 
BRANCH  24  25
ATOM     25  N   UNL     1       0.614  -2.747   2.661  0.00  0.00    +0.384 N 
ATOM     26  C   UNL     1       1.169  -2.638   4.008  0.00  0.00    -0.077 C 
ATOM     27  C   UNL     1       2.128  -3.782   4.248  0.00  0.00    +0.000 C 
ATOM     28  C   UNL     1       3.558  -3.334   3.895  0.00  0.00    +0.106 C 
ATOM     29  N   UNL     1       3.568  -2.495   2.680  0.00  0.00    -0.303 N 
ATOM     30  C   UNL     1       2.757  -2.802   1.520  0.00  0.00    +0.089 C 
ATOM     31  C   UNL     1       1.375  -2.120   1.650  0.00  0.00    -0.059 C 
ATOM     32  C   UNL     1       4.360  -1.405   2.649  0.00  0.00    +0.219 C 
ATOM     33  O   UNL     1       4.309  -0.645   1.706  0.00  0.00    -0.275 OA
ATOM     34  H   UNL     1       0.528  -3.727   2.433  0.00  0.00    -0.081 HD
BRANCH  32  35
ATOM     35  C   UNL     1       5.308  -1.130   3.788  0.00  0.00    +0.075 C 
ATOM     36  C   UNL     1       4.598  -0.304   4.880  0.00  0.00    +0.013 C 
ATOM     37  C   UNL     1       5.692   0.663   5.396  0.00  0.00    +0.001 C 
ATOM     38  C   UNL     1       6.460   1.033   4.103  0.00  0.00    +0.001 C 
ATOM     39  C   UNL     1       6.492  -0.280   3.294  0.00  0.00    +0.013 C 
ENDBRANCH  32  35
ENDBRANCH  24  25
ENDBRANCH   2  24
TORSDOF 8
