REMARK  Name = ZINC35782587
REMARK  20 active torsions:
REMARK  status: ('A' for Active; 'I' for Inactive)
REMARK    1  A    between atoms: C_1  and  C_2
REMARK    2  A    between atoms: C_2  and  C_3
REMARK    3  A    between atoms: C_3  and  C_4
REMARK    4  A    between atoms: C_4  and  C_5
REMARK    5  A    between atoms: C_5  and  C_7
REMARK    6  A    between atoms: C_5  and  O_36
REMARK    7  A    between atoms: C_7  and  N_8
REMARK    8  A    between atoms: N_8  and  C_9
REMARK    9  A    between atoms: N_8  and  C_32
REMARK   10  A    between atoms: C_9  and  C_10
REMARK   11  A    between atoms: C_11  and  C_30
REMARK   12  A    between atoms: N_13  and  C_24
REMARK   13  A    between atoms: C_14  and  O_15
REMARK   14  A    between atoms: O_15  and  C_16
REMARK   15  A    between atoms: C_19  and  O_22
REMARK   16  A    between atoms: O_22  and  C_23
REMARK   17  A    between atoms: C_30  and  C_31
REMARK   18  A    between atoms: C_32  and  C_33
REMARK   19  A    between atoms: C_33  and  C_34
REMARK   20  A    between atoms: C_33  and  C_35
REMARK                            x       y       z     vdW  Elec       q    Type
REMARK                         _______ _______ _______ _____ _____    ______ ____
ROOT
ATOM      1  C   UNL     1       4.652  -7.994  -4.442  0.00  0.00    +0.021 A 
ATOM      2  C   UNL     1       4.912  -8.560  -5.694  0.00  0.00    +0.068 A 
ATOM      3  N   UNL     1       6.006  -9.273  -5.608  0.00  0.00    -0.168 NA
ATOM      4  N   UNL     1       6.486  -9.188  -4.295  0.00  0.00    -0.200 N 
ATOM      5  C   UNL     1       5.638  -8.389  -3.593  0.00  0.00    +0.225 A 
ENDROOT
BRANCH   4   6
ATOM      6  C   UNL     1       7.638  -9.811  -3.795  0.00  0.00    +0.069 A 
ATOM      7  C   UNL     1       8.482  -9.124  -2.933  0.00  0.00    +0.028 A 
ATOM      8  C   UNL     1       9.616  -9.741  -2.441  0.00  0.00    +0.002 A 
ATOM      9  C   UNL     1       9.911 -11.041  -2.807  0.00  0.00    +0.000 A 
ATOM     10  C   UNL     1       9.072 -11.728  -3.665  0.00  0.00    +0.002 A 
ATOM     11  C   UNL     1       7.934 -11.119  -4.155  0.00  0.00    +0.028 A 
ENDBRANCH   4   6
BRANCH   2  12
ATOM     12  C   UNL     1       4.073  -8.380  -6.933  0.00  0.00    +0.054 C 
ATOM     13  C   UNL     1       4.649  -7.241  -7.777  0.00  0.00    +0.010 C 
ENDBRANCH   2  12
BRANCH   1  14
ATOM     14  C   UNL     1       3.490  -7.100  -4.097  0.00  0.00    -0.036 C 
BRANCH  14  15
ATOM     15  N   UNL     1       2.265  -7.905  -4.000  0.00  0.00    +0.384 N 
ATOM     16  H   UNL     1       2.120  -8.403  -4.865  0.00  0.00    -0.081 HD
BRANCH  15  17
ATOM     17  C   UNL     1       1.118  -7.023  -3.745  0.00  0.00    -0.047 C 
BRANCH  17  18
ATOM     18  C   UNL     1      -0.181  -7.812  -3.919  0.00  0.00    +0.098 C 
BRANCH  18  19
ATOM     19  O   UNL     1      -0.239  -8.855  -2.945  0.00  0.00    -0.394 OA
ATOM     20  H   UNL     1      -0.394  -8.543  -2.043  0.00  0.00    +0.210 HD
ENDBRANCH  18  19
BRANCH  18  21
ATOM     21  C   UNL     1      -1.376  -6.874  -3.734  0.00  0.00    +0.029 C 
BRANCH  21  22
ATOM     22  C   UNL     1      -2.671  -7.634  -4.030  0.00  0.00    +0.002 C 
BRANCH  22  24
ATOM     23  C   UNL     1      -5.160  -7.456  -4.142  0.00  0.00    +0.004 C 
ATOM     24  C   UNL     1      -3.866  -6.696  -3.845  0.00  0.00    -0.003 C 
ENDBRANCH  22  24
ENDBRANCH  21  22
ENDBRANCH  18  21
ENDBRANCH  17  18
ENDBRANCH  15  17
BRANCH  15  25
ATOM     25  C   UNL     1       2.397  -8.867  -2.897  0.00  0.00    -0.075 C 
BRANCH  25  26
ATOM     26  C   UNL     1       2.570  -8.110  -1.579  0.00  0.00    -0.034 C 
ATOM     27  C   UNL     1       1.199  -7.874  -0.942  0.00  0.00    +0.005 C 
ATOM     28  C   UNL     1       3.439  -8.935  -0.627  0.00  0.00    +0.005 C 
ENDBRANCH  25  26
ENDBRANCH  15  25
ENDBRANCH  14  15
ENDBRANCH   1  14
BRANCH   5  29
ATOM     29  O   UNL     1       5.753  -8.050  -2.284  0.00  0.00    -0.438 OA
BRANCH  29  30
ATOM     30  C   UNL     1       6.371  -6.877  -1.980  0.00  0.00    +0.131 A 
ATOM     31  C   UNL     1       6.768  -6.019  -2.995  0.00  0.00    +0.050 A 
ATOM     32  C   UNL     1       7.395  -4.828  -2.686  0.00  0.00    +0.049 A 
ATOM     33  C   UNL     1       7.628  -4.490  -1.361  0.00  0.00    +0.120 A 
ATOM     34  C   UNL     1       7.231  -5.348  -0.346  0.00  0.00    +0.049 A 
ATOM     35  C   UNL     1       6.598  -6.536  -0.655  0.00  0.00    +0.050 A 
BRANCH  33  36
ATOM     36  O   UNL     1       8.245  -3.317  -1.057  0.00  0.00    -0.495 OA
ATOM     37  C   UNL     1       8.453  -3.033   0.328  0.00  0.00    +0.277 C 
ENDBRANCH  33  36
ENDBRANCH  29  30
ENDBRANCH   5  29
TORSDOF 15
