REMARK  Name = ZINC06624002
REMARK  9 active torsions:
REMARK  status: ('A' for Active; 'I' for Inactive)
REMARK    1  A    between atoms: C_1  and  C_2
REMARK    2  A    between atoms: C_2  and  C_3
REMARK    3  A    between atoms: C_2  and  C_4
REMARK    4  A    between atoms: C_4  and  C_5
REMARK    5  A    between atoms: C_5  and  C_6
REMARK    6  A    between atoms: C_6  and  N_7
REMARK    7  A    between atoms: C_8  and  O_31
REMARK    8  A    between atoms: C_9  and  C_16
REMARK    9  A    between atoms: C_30  and  N_57
REMARK                            x       y       z     vdW  Elec       q    Type
REMARK                         _______ _______ _______ _____ _____    ______ ____
ROOT
ATOM      1  N   UNL     1       7.751  -2.234  -1.529  0.00  0.00    -0.265 N 
ATOM      2  C   UNL     1       7.291  -1.322  -0.613  0.00  0.00    +0.204 A 
ATOM      3  C   UNL     1       6.558  -0.254  -1.039  0.00  0.00    +0.069 A 
ATOM      4  C   UNL     1       6.299  -0.108  -2.413  0.00  0.00    +0.260 A 
ATOM      5  O   UNL     1       5.650   0.841  -2.818  0.00  0.00    -0.267 OA
ATOM      6  N   UNL     1       6.773  -1.024  -3.280  0.00  0.00    -0.275 N 
ATOM      7  H   UNL     1       6.590  -0.924  -4.258  0.00  0.00    +0.173 HD
ATOM      8  C   UNL     1       7.491  -2.074  -2.840  0.00  0.00    +0.332 A 
ATOM      9  O   UNL     1       7.910  -2.890  -3.637  0.00  0.00    -0.246 OA
ENDROOT
BRANCH   3  10
ATOM     10  C   UNL     1       6.038   0.758  -0.051  0.00  0.00    +0.020 C 
ATOM     11  C   UNL     1       4.527   0.725  -0.036  0.00  0.00    +0.011 A 
ATOM     12  C   UNL     1       3.769   1.841  -0.023  0.00  0.00    -0.022 A 
ATOM     13  C   UNL     1       2.374   1.421  -0.013  0.00  0.00    +0.003 A 
ATOM     14  C   UNL     1       1.150   2.094   0.002  0.00  0.00    +0.010 A 
ATOM     15  C   UNL     1      -0.017   1.384   0.010  0.00  0.00    +0.001 A 
ATOM     16  C   UNL     1       0.002  -0.004   0.002  0.00  0.00    +0.002 A 
ATOM     17  C   UNL     1       1.197  -0.689  -0.013  0.00  0.00    +0.026 A 
ATOM     18  C   UNL     1       2.397   0.012  -0.020  0.00  0.00    +0.047 A 
ATOM     19  N   UNL     1       3.720  -0.375  -0.034  0.00  0.00    -0.359 N 
ATOM     20  H   UNL     1       4.032  -1.294  -0.041  0.00  0.00    +0.166 HD
ATOM     21  C   UNL     1       4.335   3.238  -0.019  0.00  0.00    +0.019 C 
ATOM     22  C   UNL     1       5.819   3.144   0.363  0.00  0.00    -0.073 C 
ATOM     23  C   UNL     1       7.931   2.232  -0.393  0.00  0.00    -0.095 C 
ATOM     24  N   UNL     1       6.462   2.113  -0.482  0.00  0.00    +0.387 N 
ATOM     25  H   UNL     1       6.174   2.256  -1.457  0.00  0.00    -0.081 HD
ENDBRANCH   3  10
BRANCH   2  26
ATOM     26  O   UNL     1       7.559  -1.482   0.700  0.00  0.00    -0.493 OA
ATOM     27  H   UNL     1       8.085  -2.269   0.901  0.00  0.00    +0.294 HD
ENDBRANCH   2  26
BRANCH   1  28
ATOM     28  C   UNL     1       8.535  -3.386  -1.078  0.00  0.00    +0.130 C 
BRANCH  28  29
ATOM     29  C   UNL     1      10.020  -3.021  -1.069  0.00  0.00    +0.022 C 
BRANCH  29  30
ATOM     30  C   UNL     1      10.839  -4.224  -0.598  0.00  0.00    +0.005 C 
BRANCH  30  32
ATOM     31  C   UNL     1      12.574  -2.767   0.454  0.00  0.00    +0.007 C 
ATOM     32  C   UNL     1      12.325  -3.858  -0.588  0.00  0.00    -0.017 C 
ATOM     33  C   UNL     1      13.152  -5.097  -0.238  0.00  0.00    +0.007 C 
ENDBRANCH  30  32
ENDBRANCH  29  30
ENDBRANCH  28  29
ENDBRANCH   1  28
TORSDOF 6
