REMARK  Name = ZINC58986306
REMARK  11 active torsions:
REMARK  status: ('A' for Active; 'I' for Inactive)
REMARK    1  A    between atoms: C_4  and  O_22
REMARK    2  A    between atoms: C_5  and  C_7
REMARK    3  A    between atoms: C_7  and  N_8
REMARK    4  A    between atoms: N_9  and  C_10
REMARK    5  A    between atoms: C_10  and  C_12
REMARK    6  A    between atoms: C_12  and  C_13
REMARK    7  A    between atoms: C_13  and  C_14
REMARK    8  A    between atoms: C_14  and  S_15
REMARK    9  A    between atoms: S_15  and  C_16
REMARK   10  A    between atoms: O_22  and  C_23
REMARK   11  A    between atoms: C_23  and  C_24
REMARK                            x       y       z     vdW  Elec       q    Type
REMARK                         _______ _______ _______ _____ _____    ______ ____
ROOT
ATOM      1  C   UNL     1       1.227  -2.187  -0.022  0.00  0.00    +0.170 C 
ENDROOT
BRANCH   1   6
ATOM      2  C   UNL     1      -0.017   1.378   0.010  0.00  0.00    +0.001 A 
ATOM      3  C   UNL     1       1.170   2.088   0.002  0.00  0.00    +0.004 A 
ATOM      4  C   UNL     1       2.377   1.417  -0.013  0.00  0.00    +0.046 A 
ATOM      5  C   UNL     1       2.399   0.030  -0.021  0.00  0.00    +0.126 A 
ATOM      6  C   UNL     1       1.207  -0.680  -0.013  0.00  0.00    +0.015 A 
ATOM      7  C   UNL     1       0.002  -0.004   0.002  0.00  0.00    +0.009 A 
BRANCH   5   8
ATOM      8  O   UNL     1       3.586  -0.632  -0.037  0.00  0.00    -0.487 OA
BRANCH   8   9
ATOM      9  C   UNL     1       4.772   0.164  -0.045  0.00  0.00    +0.264 C 
BRANCH   9  10
ATOM     10  C   UNL     1       5.981  -0.737  -0.062  0.00  0.00    -0.009 A 
ATOM     11  C   UNL     1       6.544  -1.161   1.127  0.00  0.00    +0.007 A 
ATOM     12  C   UNL     1       7.652  -1.987   1.112  0.00  0.00    +0.001 A 
ATOM     13  C   UNL     1       8.198  -2.389  -0.092  0.00  0.00    +0.015 A 
ATOM     14  C   UNL     1       7.635  -1.966  -1.282  0.00  0.00    +0.018 A 
ATOM     15  C   UNL     1       6.522  -1.143  -1.267  0.00  0.00    +0.022 A 
ATOM     16 BR   UNL     1       8.381  -2.515  -2.930  0.00  0.00    -0.050 Br
ENDBRANCH   9  10
ENDBRANCH   8   9
ENDBRANCH   5   8
ENDBRANCH   1   6
BRANCH   1  17
ATOM     17  N   UNL     1       1.487  -2.679   1.333  0.00  0.00    -0.310 N 
ATOM     18  N   UNL     1       0.656  -3.406   1.898  0.00  0.00    -0.109 NA
ATOM     19  H   UNL     1       2.308  -2.437   1.788  0.00  0.00    +0.180 HD
BRANCH  18  20
ATOM     20  C   UNL     1       0.896  -3.860   3.145  0.00  0.00    +0.252 C 
ATOM     21  O   UNL     1       1.919  -3.558   3.712  0.00  0.00    -0.272 OA
BRANCH  20  22
ATOM     22  C   UNL     1      -0.114  -4.744   3.832  0.00  0.00    +0.100 C 
BRANCH  22  23
ATOM     23  C   UNL     1       0.398  -5.115   5.225  0.00  0.00    +0.020 C 
BRANCH  23  24
ATOM     24  C   UNL     1      -0.626  -6.012   5.923  0.00  0.00    +0.076 C 
BRANCH  24  25
ATOM     25  S   UNL     1      -0.020  -6.452   7.574  0.00  0.00    -0.106 S 
BRANCH  25  26
ATOM     26  C   UNL     1      -1.294  -7.472   8.239  0.00  0.00    +0.097 A 
ATOM     27  C   UNL     1      -1.160  -7.994   9.522  0.00  0.00    +0.035 A 
ATOM     28  C   UNL     1      -2.167  -8.793  10.031  0.00  0.00    +0.004 A 
ATOM     29  C   UNL     1      -3.279  -9.044   9.237  0.00  0.00    +0.020 A 
ATOM     30  C   UNL     1      -3.346  -8.494   7.973  0.00  0.00    +0.112 A 
ATOM     31  N   UNL     1      -2.372  -7.730   7.515  0.00  0.00    -0.249 NA
ENDBRANCH  25  26
ENDBRANCH  24  25
ENDBRANCH  23  24
ENDBRANCH  22  23
ENDBRANCH  20  22
ENDBRANCH  18  20
ENDBRANCH   1  17
TORSDOF 11
