REMARK  Name = ZINC26491362
REMARK  11 active torsions:
REMARK  status: ('A' for Active; 'I' for Inactive)
REMARK    1  A    between atoms: C_1  and  C_2
REMARK    2  A    between atoms: C_2  and  C_3
REMARK    3  A    between atoms: C_3  and  C_5
REMARK    4  A    between atoms: C_3  and  N_30
REMARK    5  A    between atoms: C_9  and  C_11
REMARK    6  A    between atoms: C_11  and  O_12
REMARK    7  A    between atoms: O_12  and  C_13
REMARK    8  A    between atoms: C_23  and  C_26
REMARK    9  A    between atoms: N_30  and  C_31
REMARK   10  A    between atoms: C_31  and  C_32
REMARK   11  A    between atoms: C_32  and  C_33
REMARK                            x       y       z     vdW  Elec       q    Type
REMARK                         _______ _______ _______ _____ _____    ______ ____
ROOT
ATOM      1  C   UNL     1       0.085   1.085   2.442  0.00  0.00    +0.028 A 
ATOM      2  C   UNL     1       0.574   1.994   3.362  0.00  0.00    +0.021 A 
ATOM      3  C   UNL     1       1.325   1.534   4.433  0.00  0.00    +0.004 A 
ATOM      4  C   UNL     1       1.567   0.172   4.532  0.00  0.00    +0.027 A 
ATOM      5  C   UNL     1       1.050  -0.676   3.571  0.00  0.00    +0.079 A 
ATOM      6  N   UNL     1       0.335  -0.203   2.569  0.00  0.00    -0.255 NA
ENDROOT
BRANCH   1   7
ATOM      7  C   UNL     1      -0.738   1.573   1.278  0.00  0.00    -0.022 C 
BRANCH   7   8
ATOM      8  N   UNL     1      -0.777   3.042   1.288  0.00  0.00    +0.385 N 
ATOM      9  H   UNL     1      -0.774   3.401   2.327  0.00  0.00    -0.085 HD
ATOM     10  H   UNL     1       0.104   3.436   0.760  0.00  0.00    -0.085 HD
BRANCH   8  11
ATOM     11  C   UNL     1      -1.988   3.540   0.621  0.00  0.00    -0.077 C 
BRANCH  11  12
ATOM     12  C   UNL     1      -2.058   5.062   0.763  0.00  0.00    +0.016 C 
BRANCH  12  13
ATOM     13  C   UNL     1      -3.300   5.573   0.079  0.00  0.00    -0.049 A 
ATOM     14  C   UNL     1      -3.255   5.937  -1.254  0.00  0.00    +0.003 A 
ATOM     15  C   UNL     1      -4.395   6.401  -1.883  0.00  0.00    +0.000 A 
ATOM     16  C   UNL     1      -5.577   6.511  -1.176  0.00  0.00    +0.000 A 
ATOM     17  C   UNL     1      -5.622   6.153   0.158  0.00  0.00    +0.000 A 
ATOM     18  C   UNL     1      -4.483   5.684   0.785  0.00  0.00    +0.003 A 
ENDBRANCH  12  13
ENDBRANCH  11  12
ENDBRANCH   8  11
ENDBRANCH   7   8
BRANCH   7  20
ATOM     19  C   UNL     1       1.349   1.549  -0.096  0.00  0.00    +0.002 C 
ATOM     20  C   UNL     1      -0.108   1.089  -0.030  0.00  0.00    -0.013 C 
ENDBRANCH   7  20
ENDBRANCH   1   7
BRANCH   5  21
ATOM     21  C   UNL     1       1.307  -2.158   3.670  0.00  0.00    +0.286 C 
BRANCH  21  22
ATOM     22  O   UNL     1       2.098  -2.428   4.829  0.00  0.00    -0.469 OA
BRANCH  22  23
ATOM     23  C   UNL     1       2.421  -3.724   5.065  0.00  0.00    +0.241 A 
ATOM     24  C   UNL     1       3.236  -4.071   6.234  0.00  0.00    +0.049 A 
ATOM     25  C   UNL     1       3.687  -3.100   7.129  0.00  0.00    +0.014 A 
ATOM     26  C   UNL     1       4.444  -3.474   8.216  0.00  0.00    +0.001 A 
ATOM     27  C   UNL     1       4.760  -4.809   8.434  0.00  0.00    +0.001 A 
ATOM     28  C   UNL     1       4.322  -5.786   7.568  0.00  0.00    +0.012 A 
ATOM     29  C   UNL     1       3.553  -5.429   6.461  0.00  0.00    +0.033 A 
ATOM     30  C   UNL     1       3.059  -6.424   5.504  0.00  0.00    +0.186 A 
ATOM     31  N   UNL     1       3.168  -7.733   5.411  0.00  0.00    -0.127 NA
ATOM     32  N   UNL     1       2.539  -8.142   4.365  0.00  0.00    -0.123 NA
ATOM     33  C   UNL     1       1.999  -7.127   3.739  0.00  0.00    +0.258 A 
ATOM     34  N   UNL     1       2.308  -6.003   4.437  0.00  0.00    -0.185 N 
ATOM     35  N   UNL     1       2.010  -4.654   4.249  0.00  0.00    -0.125 NA
BRANCH  33  36
ATOM     36  C   UNL     1       1.183  -7.194   2.474  0.00  0.00    +0.454 C 
ATOM     37  F   UNL     1       0.792  -8.517   2.240  0.00  0.00    -0.163 F 
ATOM     38  F   UNL     1       0.046  -6.389   2.610  0.00  0.00    -0.163 F 
ATOM     39  F   UNL     1       1.951  -6.737   1.398  0.00  0.00    -0.163 F 
ENDBRANCH  33  36
ENDBRANCH  22  23
ENDBRANCH  21  22
ENDBRANCH   5  21
TORSDOF 10
