REMARK  Name = ZINC40920091
REMARK  12 active torsions:
REMARK  status: ('A' for Active; 'I' for Inactive)
REMARK    1  A    between atoms: C_1  and  C_2
REMARK    2  A    between atoms: C_3  and  C_30
REMARK    3  A    between atoms: C_4  and  C_12
REMARK    4  A    between atoms: C_15  and  O_20
REMARK    5  A    between atoms: C_16  and  O_18
REMARK    6  A    between atoms: O_18  and  C_19
REMARK    7  A    between atoms: O_20  and  C_21
REMARK    8  A    between atoms: C_21  and  C_22
REMARK    9  A    between atoms: C_30  and  O_32
REMARK   10  A    between atoms: O_32  and  C_33
REMARK   11  A    between atoms: C_33  and  C_34
REMARK   12  A    between atoms: C_33  and  C_35
REMARK                            x       y       z     vdW  Elec       q    Type
REMARK                         _______ _______ _______ _____ _____    ______ ____
ROOT
ATOM      1  C   UNL     1      -1.737  -2.627  -1.369  0.00  0.00    -0.015 A 
ATOM      2  C   UNL     1      -1.002  -2.326  -2.501  0.00  0.00    +0.010 A 
ATOM      3  C   UNL     1      -1.440  -2.742  -3.744  0.00  0.00    +0.050 A 
ATOM      4  C   UNL     1      -2.617  -3.464  -3.858  0.00  0.00    +0.162 A 
ATOM      5  C   UNL     1      -3.357  -3.767  -2.720  0.00  0.00    +0.162 A 
ATOM      6  C   UNL     1      -2.910  -3.351  -1.476  0.00  0.00    +0.055 A 
ENDROOT
BRANCH   1  10
ATOM      7  C   UNL     1      -0.018   1.503   0.010  0.00  0.00    +0.061 C 
ATOM      8  C   UNL     1       0.002  -0.004   0.002  0.00  0.00    +0.020 C 
ATOM      9  C   UNL     1      -1.165  -0.668   0.004  0.00  0.00    +0.082 C 
ATOM     10  C   UNL     1      -1.256  -2.171  -0.016  0.00  0.00    +0.181 C 
ATOM     11  N   UNL     1       0.061  -2.739   0.249  0.00  0.00    -0.201 N 
ATOM     12  C   UNL     1       1.210  -2.014   0.244  0.00  0.00    +0.240 A 
ATOM     13  N   UNL     1       2.186  -2.835   0.510  0.00  0.00    -0.092 NA
ATOM     14  N   UNL     1       1.730  -4.028   0.688  0.00  0.00    -0.021 NA
ATOM     15  N   UNL     1       0.444  -4.046   0.545  0.00  0.00    -0.042 NA
ATOM     16  N   UNL     1       1.213  -0.650  -0.013  0.00  0.00    -0.286 N 
ATOM     17  H   UNL     1       2.038  -0.172  -0.193  0.00  0.00    +0.155 HD
BRANCH   9  18
ATOM     18  C   UNL     1      -2.364   0.079   0.027  0.00  0.00    +0.339 C 
ATOM     19  O   UNL     1      -2.323   1.295   0.044  0.00  0.00    -0.245 OA
BRANCH  18  20
ATOM     20  O   UNL     1      -3.554  -0.556   0.029  0.00  0.00    -0.459 OA
BRANCH  20  21
ATOM     21  C   UNL     1      -4.726   0.261   0.053  0.00  0.00    +0.171 C 
ATOM     22  C   UNL     1      -5.866  -0.461  -0.668  0.00  0.00    +0.052 C 
ATOM     23  C   UNL     1      -5.130   0.532   1.503  0.00  0.00    +0.052 C 
ENDBRANCH  20  21
ENDBRANCH  18  20
ENDBRANCH   9  18
ENDBRANCH   1  10
BRANCH   5  24
ATOM     24  O   UNL     1      -4.513  -4.475  -2.827  0.00  0.00    -0.491 OA
ATOM     25  C   UNL     1      -5.220  -4.750  -1.615  0.00  0.00    +0.277 C 
ENDBRANCH   5  24
BRANCH   4  26
ATOM     26  O   UNL     1      -3.049  -3.874  -5.081  0.00  0.00    -0.484 OA
BRANCH  26  27
ATOM     27  C   UNL     1      -2.239  -3.526  -6.206  0.00  0.00    +0.269 C 
BRANCH  27  28
ATOM     28  C   UNL     1      -2.871  -4.060  -7.465  0.00  0.00    +0.043 A 
ATOM     29  C   UNL     1      -2.552  -5.330  -7.915  0.00  0.00    +0.131 A 
ATOM     30  C   UNL     1      -3.134  -5.820  -9.072  0.00  0.00    +0.039 A 
ATOM     31  C   UNL     1      -4.032  -5.042  -9.777  0.00  0.00    +0.004 A 
ATOM     32  C   UNL     1      -4.351  -3.774  -9.328  0.00  0.00    +0.020 A 
ATOM     33  C   UNL     1      -3.775  -3.285  -8.168  0.00  0.00    +0.050 A 
ATOM     34 CL   UNL     1      -4.181  -1.695  -7.601  0.00  0.00    -0.083 Cl
ATOM     35  F   UNL     1      -1.674  -6.091  -7.225  0.00  0.00    -0.205 F 
ENDBRANCH  27  28
ENDBRANCH  26  27
ENDBRANCH   4  26
TORSDOF 8
