REMARK  Name = ZINC66988814
REMARK  8 active torsions:
REMARK  status: ('A' for Active; 'I' for Inactive)
REMARK    1  A    between atoms: C_1  and  N_2
REMARK    2  A    between atoms: N_2  and  S_3
REMARK    3  A    between atoms: S_3  and  C_6
REMARK    4  A    between atoms: C_10  and  C_12
REMARK    5  A    between atoms: C_12  and  N_13
REMARK    6  A    between atoms: N_13  and  C_14
REMARK    7  A    between atoms: C_14  and  C_15
REMARK    8  A    between atoms: C_20  and  C_21
REMARK                            x       y       z     vdW  Elec       q    Type
REMARK                         _______ _______ _______ _____ _____    ______ ____
ROOT
ATOM      1  N   UNL     1      -4.328  -1.650   3.933  0.00  0.00    +0.384 N 
ATOM      2  H   UNL     1      -4.371  -0.691   4.243  0.00  0.00    -0.085 HD
ATOM      3  H   UNL     1      -4.334  -1.678   2.924  0.00  0.00    -0.085 HD
ENDROOT
BRANCH   1   4
ATOM      4  C   UNL     1      -3.094  -2.272   4.432  0.00  0.00    -0.046 C 
BRANCH   4   9
ATOM      5  C   UNL     1      -0.234  -1.200   2.212  0.00  0.00    +0.105 A 
ATOM      6  C   UNL     1       0.286  -0.137   2.926  0.00  0.00    +0.028 A 
ATOM      7  C   UNL     1      -0.287   0.236   4.128  0.00  0.00    +0.002 A 
ATOM      8  C   UNL     1      -1.381  -0.455   4.615  0.00  0.00    +0.002 A 
ATOM      9  C   UNL     1      -1.902  -1.518   3.901  0.00  0.00    -0.063 A 
ATOM     10  C   UNL     1      -1.330  -1.888   2.697  0.00  0.00    +0.030 A 
BRANCH   5  11
ATOM     11  S   UNL     1       0.498  -1.675   0.681  0.00  0.00    +0.058 S 
ATOM     12  O   UNL     1       0.159  -3.039   0.475  0.00  0.00    -0.153 OA
ATOM     13  O   UNL     1       1.844  -1.222   0.716  0.00  0.00    -0.153 OA
BRANCH  11  15
ATOM     14  C   UNL     1      -0.128   0.645  -0.560  0.00  0.00    +0.127 C 
ATOM     15  N   UNL     1      -0.261  -0.813  -0.512  0.00  0.00    -0.193 NA
ATOM     16  H   UNL     1      -0.794  -1.273  -1.179  0.00  0.00    +0.148 HD
ENDBRANCH  11  15
ENDBRANCH   5  11
ENDBRANCH   4   9
ENDBRANCH   1   4
BRANCH   1  17
ATOM     17  C   UNL     1      -5.490  -2.385   4.450  0.00  0.00    -0.043 C 
BRANCH  17  18
ATOM     18  C   UNL     1      -6.756  -1.752   3.931  0.00  0.00    -0.019 A 
ATOM     19  C   UNL     1      -7.584  -0.944   4.627  0.00  0.00    +0.107 A 
ATOM     20  N   UNL     1      -8.601  -0.588   3.813  0.00  0.00    -0.284 N 
ATOM     21  H   UNL     1      -9.343  -0.010   4.048  0.00  0.00    +0.188 HD
ATOM     22  N   UNL     1      -8.396  -1.197   2.568  0.00  0.00    -0.174 NA
ATOM     23  C   UNL     1      -7.282  -1.895   2.633  0.00  0.00    +0.095 A 
BRANCH  23  24
ATOM     24  C   UNL     1      -6.688  -2.695   1.533  0.00  0.00    +0.020 A 
ATOM     25  C   UNL     1      -6.170  -3.970   1.781  0.00  0.00    +0.013 A 
ATOM     26  C   UNL     1      -5.627  -4.675   0.722  0.00  0.00    +0.020 A 
ATOM     27  C   UNL     1      -5.613  -4.102  -0.537  0.00  0.00    +0.111 A 
ATOM     28  N   UNL     1      -6.109  -2.897  -0.741  0.00  0.00    -0.263 NA
ATOM     29  C   UNL     1      -6.642  -2.191   0.235  0.00  0.00    +0.120 A 
ENDBRANCH  23  24
ENDBRANCH  17  18
ENDBRANCH   1  17
TORSDOF 7
