REMARK  Name = ZINC57143361
REMARK  6 active torsions:
REMARK  status: ('A' for Active; 'I' for Inactive)
REMARK    1  A    between atoms: C_1  and  C_2
REMARK    2  A    between atoms: C_6  and  C_25
REMARK    3  A    between atoms: C_8  and  N_11
REMARK    4  A    between atoms: C_12  and  C_14
REMARK    5  A    between atoms: C_25  and  C_26
REMARK    6  A    between atoms: C_25  and  C_27
REMARK                            x       y       z     vdW  Elec       q    Type
REMARK                         _______ _______ _______ _____ _____    ______ ____
ROOT
ATOM      1  N   UNL     1       1.537  -2.391   2.465  0.00  0.00    -0.308 N 
ATOM      2  C   UNL     1       2.884  -2.336   2.462  0.00  0.00    +0.244 C 
ATOM      3  O   UNL     1       3.475  -1.970   1.465  0.00  0.00    -0.270 OA
ATOM      4  H   UNL     1       1.065  -2.684   3.261  0.00  0.00    +0.149 HD
ENDROOT
BRANCH   2   5
ATOM      5  C   UNL     1       3.641  -2.721   3.669  0.00  0.00    +0.040 A 
ATOM      6  C   UNL     1       2.962  -3.149   4.814  0.00  0.00    +0.015 A 
ATOM      7  C   UNL     1       3.669  -3.508   5.941  0.00  0.00    +0.028 A 
ATOM      8  C   UNL     1       5.055  -3.446   5.941  0.00  0.00    +0.076 A 
ATOM      9  C   UNL     1       5.739  -3.020   4.800  0.00  0.00    +0.143 A 
ATOM     10  C   UNL     1       5.037  -2.665   3.667  0.00  0.00    +0.060 A 
ATOM     11  O   UNL     1       7.098  -2.962   4.818  0.00  0.00    -0.481 OA
ATOM     12  C   UNL     1       7.710  -2.632   6.068  0.00  0.00    +0.325 C 
ATOM     13  C   UNL     1       7.081  -3.447   7.169  0.00  0.00    +0.255 C 
ATOM     14  O   UNL     1       7.738  -3.777   8.133  0.00  0.00    -0.272 OA
ATOM     15  N   UNL     1       5.783  -3.809   7.077  0.00  0.00    -0.280 N 
ATOM     16  H   UNL     1       5.362  -4.313   7.791  0.00  0.00    +0.155 HD
ENDBRANCH   2   5
BRANCH   1  22
ATOM     17  C   UNL     1      -0.301   1.434  -0.071  0.00  0.00    +0.007 C 
ATOM     18  C   UNL     1      -0.150  -0.088  -0.028  0.00  0.00    -0.012 C 
ATOM     19  C   UNL     1      -1.535  -0.737   0.011  0.00  0.00    +0.004 C 
ATOM     20  C   UNL     1      -1.385  -2.259   0.054  0.00  0.00    +0.006 C 
ATOM     21  C   UNL     1      -0.600  -2.658   1.305  0.00  0.00    +0.012 C 
ATOM     22  C   UNL     1       0.785  -2.009   1.267  0.00  0.00    +0.077 C 
ATOM     23  C   UNL     1       0.634  -0.487   1.224  0.00  0.00    +0.026 C 
BRANCH  21  24
ATOM     24  C   UNL     1      -0.449  -4.180   1.349  0.00  0.00    -0.012 C 
ATOM     25  C   UNL     1      -1.824  -4.824   1.536  0.00  0.00    +0.007 C 
ATOM     26  C   UNL     1       0.169  -4.669   0.037  0.00  0.00    +0.007 C 
ENDBRANCH  21  24
ENDBRANCH   1  22
TORSDOF 3
