REMARK  Name = ZINC02191813
REMARK  14 active torsions:
REMARK  status: ('A' for Active; 'I' for Inactive)
REMARK    1  A    between atoms: C_1  and  C_2
REMARK    2  A    between atoms: C_2  and  O_3
REMARK    3  A    between atoms: O_3  and  C_4
REMARK    4  A    between atoms: C_4  and  C_6
REMARK    5  A    between atoms: C_6  and  C_7
REMARK    6  A    between atoms: C_6  and  N_11
REMARK    7  A    between atoms: C_6  and  N_28
REMARK    8  A    between atoms: N_11  and  C_12
REMARK    9  A    between atoms: C_13  and  C_26
REMARK   10  A    between atoms: C_18  and  C_22
REMARK   11  A    between atoms: C_22  and  C_23
REMARK   12  A    between atoms: C_22  and  C_24
REMARK   13  A    between atoms: C_22  and  C_25
REMARK   14  A    between atoms: C_29  and  C_31
REMARK                            x       y       z     vdW  Elec       q    Type
REMARK                         _______ _______ _______ _____ _____    ______ ____
ROOT
ATOM      1  C   UNL     1       0.091   1.361  -0.174  0.00  0.00    +0.296 C 
ENDROOT
BRANCH   1   2
ATOM      2  C   UNL     1       1.359   2.184  -0.411  0.00  0.00    +0.438 C 
ATOM      3  F   UNL     1       2.074   1.640  -1.484  0.00  0.00    -0.166 F 
ATOM      4  F   UNL     1       1.009   3.506  -0.707  0.00  0.00    -0.166 F 
ATOM      5  F   UNL     1       2.153   2.158   0.740  0.00  0.00    -0.166 F 
ENDBRANCH   1   2
BRANCH   1   6
ATOM      6  N   UNL     1      -0.579   1.835   1.039  0.00  0.00    -0.272 N 
ATOM      7  C   UNL     1      -0.003   1.649   2.243  0.00  0.00    +0.282 C 
ATOM      8  O   UNL     1       1.115   1.171   2.316  0.00  0.00    -0.267 OA
ATOM      9  H   UNL     1      -1.437   2.283   0.977  0.00  0.00    +0.152 HD
BRANCH   7  10
ATOM     10  C   UNL     1      -0.721   2.022   3.466  0.00  0.00    +0.189 A 
ATOM     11  C   UNL     1      -0.258   1.883   4.743  0.00  0.00    +0.054 A 
ATOM     12  C   UNL     1      -1.266   2.367   5.592  0.00  0.00    +0.042 A 
ATOM     13  C   UNL     1      -2.290   2.767   4.807  0.00  0.00    +0.196 A 
ATOM     14  O   UNL     1      -1.958   2.558   3.526  0.00  0.00    -0.458 OA
ENDBRANCH   7  10
ENDBRANCH   1   6
BRANCH   1  15
ATOM     15  C   UNL     1       0.457  -0.091  -0.012  0.00  0.00    +0.359 C 
ATOM     16  O   UNL     1       0.441  -0.599   1.084  0.00  0.00    -0.246 OA
BRANCH  15  17
ATOM     17  O   UNL     1       0.802  -0.821  -1.084  0.00  0.00    -0.462 OA
BRANCH  17  19
ATOM     18  C   UNL     1       1.506  -2.877  -2.183  0.00  0.00    +0.048 C 
ATOM     19  C   UNL     1       1.143  -2.213  -0.853  0.00  0.00    +0.229 C 
ENDBRANCH  17  19
ENDBRANCH  15  17
ENDBRANCH   1  15
BRANCH   1  20
ATOM     20  N   UNL     1      -0.810   1.512  -1.320  0.00  0.00    -0.301 N 
ATOM     21  H   UNL     1      -1.671   1.946  -1.206  0.00  0.00    +0.149 HD
BRANCH  20  22
ATOM     22  C   UNL     1      -0.434   1.037  -2.564  0.00  0.00    +0.086 A 
ATOM     23  C   UNL     1      -1.189   0.969  -3.726  0.00  0.00    +0.083 A 
ATOM     24  C   UNL     1      -0.551   0.421  -4.911  0.00  0.00    -0.018 A 
ATOM     25  C   UNL     1       0.732   0.032  -4.745  0.00  0.00    -0.004 A 
ATOM     26  S   UNL     1       1.098   0.389  -3.050  0.00  0.00    -0.077 S 
ATOM     27  C   UNL     1       1.636  -0.565  -5.779  0.00  0.00    +0.047 C 
ATOM     28  C   UNL     1       0.777  -1.019  -6.968  0.00  0.00    -0.000 C 
ATOM     29  C   UNL     1      -0.181   0.115  -7.347  0.00  0.00    +0.009 C 
ATOM     30  C   UNL     1      -1.245   0.281  -6.261  0.00  0.00    +0.037 C 
BRANCH  28  31
ATOM     31  C   UNL     1       1.680  -1.346  -8.159  0.00  0.00    -0.035 C 
ATOM     32  C   UNL     1       2.647  -2.467  -7.773  0.00  0.00    +0.011 C 
ATOM     33  C   UNL     1       0.822  -1.798  -9.342  0.00  0.00    +0.011 C 
ATOM     34  C   UNL     1       2.475  -0.100  -8.553  0.00  0.00    +0.011 C 
ENDBRANCH  28  31
BRANCH  23  35
ATOM     35  C   UNL     1      -2.547   1.422  -3.757  0.00  0.00    +0.102 C 
ATOM     36  N   UNL     1      -3.625   1.782  -3.781  0.00  0.00    -0.191 NA
ENDBRANCH  23  35
ENDBRANCH  20  22
ENDBRANCH   1  20
TORSDOF 10
