REMARK  Name = ZINC37789628
REMARK  5 active torsions:
REMARK  status: ('A' for Active; 'I' for Inactive)
REMARK    1  A    between atoms: C_4  and  N_12
REMARK    2  A    between atoms: C_6  and  N_7
REMARK    3  A    between atoms: N_12  and  S_13
REMARK    4  A    between atoms: S_13  and  C_16
REMARK    5  A    between atoms: C_16  and  C_17
REMARK                            x       y       z     vdW  Elec       q    Type
REMARK                         _______ _______ _______ _____ _____    ______ ____
ROOT
ATOM      1  C   UNL     1      -0.017   1.384   0.010  0.00  0.00    +0.031 A 
ATOM      2  C   UNL     1       1.170   2.093   0.002  0.00  0.00    +0.042 A 
ATOM      3  C   UNL     1       2.379   1.423  -0.013  0.00  0.00    +0.148 A 
ATOM      4  C   UNL     1       2.403   0.031  -0.021  0.00  0.00    +0.111 A 
ATOM      5  C   UNL     1       1.213  -0.681  -0.014  0.00  0.00    +0.057 A 
ATOM      6  C   UNL     1       0.002  -0.004   0.002  0.00  0.00    +0.071 A 
ATOM      7  F   UNL     1       3.537   2.118  -0.020  0.00  0.00    -0.203 F 
ENDROOT
BRANCH   6   8
ATOM      8  N   UNL     1      -1.203  -0.722   0.010  0.00  0.00    -0.200 N 
ATOM      9  C   UNL     1      -2.455  -0.224  -0.075  0.00  0.00    +0.250 A 
ATOM     10  N   UNL     1      -3.281  -1.237  -0.031  0.00  0.00    -0.116 NA
ATOM     11  N   UNL     1      -2.635  -2.342   0.076  0.00  0.00    -0.023 NA
ATOM     12  N   UNL     1      -1.366  -2.116   0.101  0.00  0.00    -0.039 NA
ENDBRANCH   6   8
BRANCH   4  13
ATOM     13  N   UNL     1       3.626  -0.647  -0.037  0.00  0.00    -0.099 NA
BRANCH  13  14
ATOM     14  S   UNL     1       5.046   0.204  -0.047  0.00  0.00    +0.073 S 
ATOM     15  O   UNL     1       5.034   0.915  -1.278  0.00  0.00    -0.153 OA
ATOM     16  O   UNL     1       5.059   0.901   1.192  0.00  0.00    -0.153 OA
BRANCH  14  17
ATOM     17  C   UNL     1       6.347  -1.059  -0.067  0.00  0.00    +0.315 C 
BRANCH  17  18
ATOM     18  C   UNL     1       7.697  -0.390  -0.077  0.00  0.00    +0.379 C 
ATOM     19  O   UNL     1       7.774   0.827  -0.071  0.00  0.00    -0.244 OA
ATOM     20  O   UNL     1       8.712  -1.065  -0.091  0.00  0.00    -0.244 OA
ENDBRANCH  17  18
ENDBRANCH  14  17
ENDBRANCH  13  14
ENDBRANCH   4  13
TORSDOF 5
