REMARK  Name = ZINC11125153
REMARK  7 active torsions:
REMARK  status: ('A' for Active; 'I' for Inactive)
REMARK    1  A    between atoms: C_4  and  C_7
REMARK    2  A    between atoms: C_7  and  C_9
REMARK    3  A    between atoms: C_7  and  O_22
REMARK    4  A    between atoms: N_11  and  C_12
REMARK    5  A    between atoms: C_15  and  N_19
REMARK    6  A    between atoms: O_22  and  C_23
REMARK    7  A    between atoms: C_23  and  C_25
REMARK                            x       y       z     vdW  Elec       q    Type
REMARK                         _______ _______ _______ _____ _____    ______ ____
ROOT
ATOM      1  C   UNL     1       2.445   0.674   0.068  0.00  0.00    +0.292 C 
ENDROOT
BRANCH   1   5
ATOM      2  C   UNL     1       2.404  -1.501   3.744  0.00  0.00    +0.000 A 
ATOM      3  C   UNL     1       2.014  -2.119   2.571  0.00  0.00    +0.000 A 
ATOM      4  C   UNL     1       2.027  -1.415   1.381  0.00  0.00    +0.008 A 
ATOM      5  C   UNL     1       2.430  -0.093   1.365  0.00  0.00    +0.002 A 
ATOM      6  C   UNL     1       2.825   0.524   2.537  0.00  0.00    +0.008 A 
ATOM      7  C   UNL     1       2.807  -0.179   3.728  0.00  0.00    +0.000 A 
ENDBRANCH   1   5
BRANCH   1   8
ATOM      8  C   UNL     1       1.210   1.534  -0.021  0.00  0.00    +0.263 C 
ATOM      9  O   UNL     1       1.317   2.739  -0.117  0.00  0.00    -0.271 OA
ATOM     10  N   UNL     1      -0.011   0.966   0.007  0.00  0.00    -0.281 N 
ATOM     11  H   UNL     1      -0.096  -0.000   0.019  0.00  0.00    +0.155 HD
BRANCH  10  12
ATOM     12  C   UNL     1      -1.157   1.769   0.014  0.00  0.00    +0.052 A 
ATOM     13  C   UNL     1      -1.171   2.968  -0.687  0.00  0.00    +0.027 A 
ATOM     14  C   UNL     1      -2.303   3.759  -0.679  0.00  0.00    +0.034 A 
ATOM     15  C   UNL     1      -3.423   3.358   0.026  0.00  0.00    +0.128 A 
ATOM     16  C   UNL     1      -3.414   2.166   0.726  0.00  0.00    +0.054 A 
ATOM     17  C   UNL     1      -2.286   1.367   0.717  0.00  0.00    +0.064 A 
ATOM     18 CL   UNL     1      -2.277  -0.134   1.590  0.00  0.00    -0.082 Cl
BRANCH  15  19
ATOM     19  N   UNL     1      -4.635   4.209   0.032  0.00  0.00    +0.056 N 
ATOM     20  O   UNL     1      -4.645   5.259  -0.584  0.00  0.00    -0.126 OA
ATOM     21  O   UNL     1      -5.622   3.857   0.653  0.00  0.00    -0.126 OA
ENDBRANCH  15  19
ENDBRANCH  10  12
ENDBRANCH   1   8
BRANCH   1  22
ATOM     22  O   UNL     1       3.626   1.516   0.017  0.00  0.00    -0.443 OA
BRANCH  22  23
ATOM     23  C   UNL     1       4.737   0.979  -0.525  0.00  0.00    +0.346 C 
ATOM     24  O   UNL     1       4.718  -0.162  -0.944  0.00  0.00    -0.245 OA
BRANCH  23  25
ATOM     25  C   UNL     1       5.975   1.775  -0.611  0.00  0.00    +0.129 A 
ATOM     26  C   UNL     1       6.899   1.755   0.440  0.00  0.00    +0.140 A 
ATOM     27  C   UNL     1       8.059   2.500   0.350  0.00  0.00    +0.039 A 
ATOM     28  C   UNL     1       8.303   3.273  -0.771  0.00  0.00    +0.006 A 
ATOM     29  C   UNL     1       7.393   3.304  -1.812  0.00  0.00    +0.039 A 
ATOM     30  C   UNL     1       6.230   2.561  -1.741  0.00  0.00    +0.140 A 
ATOM     31  F   UNL     1       5.342   2.592  -2.758  0.00  0.00    -0.205 F 
ATOM     32  F   UNL     1       6.660   1.004   1.538  0.00  0.00    -0.205 F 
ENDBRANCH  23  25
ENDBRANCH  22  23
ENDBRANCH   1  22
TORSDOF 7
