REMARK  Name = ZINC23119075
REMARK  8 active torsions:
REMARK  status: ('A' for Active; 'I' for Inactive)
REMARK    1  A    between atoms: C_1  and  C_2
REMARK    2  A    between atoms: C_5  and  S_8
REMARK    3  A    between atoms: S_8  and  C_11
REMARK    4  A    between atoms: N_15  and  C_28
REMARK    5  A    between atoms: C_16  and  C_18
REMARK    6  A    between atoms: C_21  and  C_24
REMARK    7  A    between atoms: C_24  and  O_26
REMARK    8  A    between atoms: O_26  and  C_27
REMARK                            x       y       z     vdW  Elec       q    Type
REMARK                         _______ _______ _______ _____ _____    ______ ____
ROOT
ATOM      1  C   UNL     1       3.152   0.677  -1.707  0.00  0.00    +0.148 C 
ATOM      2  C   UNL     1       4.199   1.207  -2.339  0.00  0.00    +0.264 C 
ATOM      3  C   UNL     1       4.213   0.753  -3.738  0.00  0.00    +0.293 C 
ATOM      4  O   UNL     1       5.049   1.066  -4.564  0.00  0.00    -0.266 OA
ATOM      5  N   UNL     1       3.162  -0.054  -3.970  0.00  0.00    -0.252 N 
ATOM      6  C   UNL     1       2.409  -0.169  -2.715  0.00  0.00    +0.164 C 
ATOM      7  O   UNL     1       5.115   2.038  -1.776  0.00  0.00    -0.281 OA
ENDROOT
BRANCH   5   8
ATOM      8  C   UNL     1       2.844  -0.671  -5.186  0.00  0.00    +0.038 A 
ATOM      9  C   UNL     1       1.725  -1.487  -5.279  0.00  0.00    +0.026 A 
ATOM     10  C   UNL     1       1.410  -2.091  -6.481  0.00  0.00    +0.040 A 
ATOM     11  C   UNL     1       2.217  -1.892  -7.589  0.00  0.00    +0.124 A 
ATOM     12  C   UNL     1       3.337  -1.083  -7.496  0.00  0.00    +0.040 A 
ATOM     13  C   UNL     1       3.652  -0.472  -6.298  0.00  0.00    +0.026 A 
ATOM     14  F   UNL     1       1.911  -2.488  -8.762  0.00  0.00    -0.205 F 
ENDBRANCH   5   8
BRANCH   6  15
ATOM     15  C   UNL     1       1.008   0.355  -2.900  0.00  0.00    -0.021 A 
ATOM     16  C   UNL     1       0.785   1.453  -3.712  0.00  0.00    +0.006 A 
ATOM     17  C   UNL     1      -0.496   1.934  -3.890  0.00  0.00    +0.015 A 
ATOM     18  C   UNL     1      -1.567   1.317  -3.240  0.00  0.00    +0.059 A 
ATOM     19  C   UNL     1      -1.334   0.213  -2.418  0.00  0.00    +0.015 A 
ATOM     20  C   UNL     1      -0.049  -0.262  -2.253  0.00  0.00    +0.006 A 
BRANCH  18  21
ATOM     21  C   UNL     1      -2.940   1.831  -3.421  0.00  0.00    +0.339 C 
ATOM     22  O   UNL     1      -3.869   1.292  -2.854  0.00  0.00    -0.245 OA
BRANCH  21  23
ATOM     23  O   UNL     1      -3.161   2.896  -4.215  0.00  0.00    -0.464 OA
ATOM     24  C   UNL     1      -4.536   3.346  -4.347  0.00  0.00    +0.280 C 
ENDBRANCH  21  23
ENDBRANCH  18  21
ENDBRANCH   6  15
BRANCH   1  25
ATOM     25  S   UNL     1       2.713   0.923  -0.018  0.00  0.00    +0.027 S 
ATOM     26  O   UNL     1       3.680   1.809   0.528  0.00  0.00    -0.164 OA
ATOM     27  O   UNL     1       2.464  -0.365   0.528  0.00  0.00    -0.164 OA
BRANCH  25  32
ATOM     28  C   UNL     1      -2.553   3.869   0.045  0.00  0.00    +0.044 C 
ATOM     29  C   UNL     1      -1.238   3.133   0.029  0.00  0.00    -0.050 A 
ATOM     30  C   UNL     1      -1.219   1.751   0.017  0.00  0.00    +0.005 A 
ATOM     31  C   UNL     1      -0.013   1.076   0.008  0.00  0.00    +0.027 A 
ATOM     32  C   UNL     1       1.175   1.783   0.000  0.00  0.00    +0.093 A 
ATOM     33  C   UNL     1       1.156   3.165   0.008  0.00  0.00    +0.027 A 
ATOM     34  C   UNL     1      -0.050   3.840   0.022  0.00  0.00    +0.005 A 
ENDBRANCH  25  32
ENDBRANCH   1  25
TORSDOF 6
