REMARK  Name = ZINC35329632
REMARK  18 active torsions:
REMARK  status: ('A' for Active; 'I' for Inactive)
REMARK    1  A    between atoms: C_1  and  C_2
REMARK    2  A    between atoms: C_2  and  C_3
REMARK    3  A    between atoms: C_3  and  C_4
REMARK    4  A    between atoms: C_4  and  N_5
REMARK    5  A    between atoms: N_5  and  C_6
REMARK    6  A    between atoms: C_6  and  C_7
REMARK    7  A    between atoms: N_9  and  C_10
REMARK    8  A    between atoms: N_9  and  C_22
REMARK    9  A    between atoms: C_10  and  C_11
REMARK   10  A    between atoms: C_11  and  C_12
REMARK   11  A    between atoms: C_15  and  O_20
REMARK   12  A    between atoms: C_16  and  O_18
REMARK   13  A    between atoms: O_18  and  C_19
REMARK   14  A    between atoms: O_20  and  C_21
REMARK   15  A    between atoms: C_22  and  C_23
REMARK   16  A    between atoms: N_30  and  C_31
REMARK   17  A    between atoms: C_34  and  C_38
REMARK   18  A    between atoms: C_35  and  C_37
REMARK                            x       y       z     vdW  Elec       q    Type
REMARK                         _______ _______ _______ _____ _____    ______ ____
ROOT
ATOM      1  C   UNL     1      -3.243  -4.242  -1.690  0.00  0.00    +0.233 C 
ATOM      2  O   UNL     1      -2.554  -4.977  -1.015  0.00  0.00    -0.274 OA
ATOM      3  N   UNL     1      -3.792  -4.695  -2.834  0.00  0.00    -0.295 N 
ENDROOT
BRANCH   1   4
ATOM      4  C   UNL     1      -3.484  -2.821  -1.249  0.00  0.00    +0.205 C 
BRANCH   4   5
ATOM      5  N   UNL     1      -2.784  -2.576   0.015  0.00  0.00    -0.277 N 
ATOM      6  C   UNL     1      -3.409  -2.808   1.187  0.00  0.00    +0.307 C 
ATOM      7  O   UNL     1      -4.552  -3.221   1.195  0.00  0.00    -0.252 OA
ATOM      8  N   UNL     1      -2.765  -2.583   2.349  0.00  0.00    -0.269 N 
ATOM      9  H   UNL     1      -1.831  -2.318   2.343  0.00  0.00    +0.156 HD
BRANCH   8  10
ATOM     10  C   UNL     1      -3.442  -2.731   3.564  0.00  0.00    +0.035 A 
ATOM     11  C   UNL     1      -3.155  -1.887   4.629  0.00  0.00    +0.023 A 
ATOM     12  C   UNL     1      -3.825  -2.036   5.827  0.00  0.00    +0.005 A 
ATOM     13  C   UNL     1      -4.783  -3.024   5.967  0.00  0.00    -0.047 A 
ATOM     14  C   UNL     1      -5.071  -3.866   4.910  0.00  0.00    -0.046 A 
ATOM     15  C   UNL     1      -4.408  -3.719   3.707  0.00  0.00    +0.027 A 
ATOM     16  C   UNL     1      -6.114  -4.942   5.067  0.00  0.00    +0.044 C 
ATOM     17  C   UNL     1      -5.512  -3.184   7.276  0.00  0.00    +0.044 C 
ENDBRANCH   8  10
BRANCH   5  18
ATOM     18  C   UNL     1      -1.406  -2.080   0.004  0.00  0.00    +0.110 C 
BRANCH  18  19
ATOM     19  C   UNL     1      -1.416  -0.550   0.009  0.00  0.00    +0.019 C 
BRANCH  19  21
ATOM     20  C   UNL     1       0.014   1.499   0.003  0.00  0.00    +0.004 C 
ATOM     21  C   UNL     1       0.024  -0.031  -0.002  0.00  0.00    -0.002 C 
ENDBRANCH  19  21
ENDBRANCH  18  19
ENDBRANCH   5  18
ENDBRANCH   4   5
ENDBRANCH   1   4
BRANCH   3  22
ATOM     22  C   UNL     1      -3.557  -6.076  -3.263  0.00  0.00    +0.113 C 
BRANCH  22  23
ATOM     23  C   UNL     1      -4.644  -6.982  -2.682  0.00  0.00    +0.054 C 
BRANCH  23  24
ATOM     24  C   UNL     1      -4.402  -8.403  -3.123  0.00  0.00    -0.042 A 
ATOM     25  C   UNL     1      -4.962  -8.864  -4.300  0.00  0.00    +0.007 A 
ATOM     26  C   UNL     1      -4.743 -10.167  -4.709  0.00  0.00    +0.049 A 
ATOM     27  C   UNL     1      -3.961 -11.013  -3.939  0.00  0.00    +0.161 A 
ATOM     28  C   UNL     1      -3.397 -10.548  -2.755  0.00  0.00    +0.162 A 
ATOM     29  C   UNL     1      -3.617  -9.240  -2.353  0.00  0.00    +0.053 A 
BRANCH  28  30
ATOM     30  O   UNL     1      -2.629 -11.374  -1.996  0.00  0.00    -0.491 OA
ATOM     31  C   UNL     1      -2.083 -10.829  -0.793  0.00  0.00    +0.277 C 
ENDBRANCH  28  30
BRANCH  27  32
ATOM     32  O   UNL     1      -3.745 -12.294  -4.340  0.00  0.00    -0.491 OA
ATOM     33  C   UNL     1      -4.356 -12.702  -5.566  0.00  0.00    +0.277 C 
ENDBRANCH  27  32
ENDBRANCH  23  24
ENDBRANCH  22  23
ENDBRANCH   3  22
BRANCH   3  34
ATOM     34  C   UNL     1      -4.624  -3.807  -3.649  0.00  0.00    +0.150 C 
BRANCH  34  35
ATOM     35  C   UNL     1      -3.758  -3.083  -4.647  0.00  0.00    +0.007 A 
ATOM     36  C   UNL     1      -3.423  -3.447  -5.909  0.00  0.00    +0.013 A 
ATOM     37  C   UNL     1      -2.606  -2.616  -6.652  0.00  0.00    +0.008 A 
ATOM     38  C   UNL     1      -2.164  -1.461  -6.097  0.00  0.00    +0.045 A 
ATOM     39  S   UNL     1      -2.915  -1.518  -4.478  0.00  0.00    -0.100 S 
ENDBRANCH  34  35
ENDBRANCH   3  34
TORSDOF 13
