REMARK  Name = ZINC63695483
REMARK  6 active torsions:
REMARK  status: ('A' for Active; 'I' for Inactive)
REMARK    1  A    between atoms: C_1  and  C_2
REMARK    2  A    between atoms: C_2  and  C_3
REMARK    3  A    between atoms: C_3  and  C_4
REMARK    4  A    between atoms: C_4  and  N_5
REMARK    5  A    between atoms: C_6  and  C_8
REMARK    6  A    between atoms: N_11  and  C_14
REMARK                            x       y       z     vdW  Elec       q    Type
REMARK                         _______ _______ _______ _____ _____    ______ ____
ROOT
ATOM      1  C   UNL     1      -4.429  -4.420   0.021  0.00  0.00    +0.077 C 
ATOM      2  C   UNL     1      -5.144  -3.934   1.284  0.00  0.00    +0.028 C 
ATOM      3  C   UNL     1      -6.559  -4.516   1.319  0.00  0.00    +0.089 C 
ATOM      4  N   UNL     1      -6.487  -5.983   1.311  0.00  0.00    -0.266 NA
ATOM      5  C   UNL     1      -5.846  -6.475   0.085  0.00  0.00    +0.089 C 
ATOM      6  C   UNL     1      -4.410  -5.952   0.012  0.00  0.00    +0.028 C 
ENDROOT
BRANCH   4   7
ATOM      7  C   UNL     1      -7.819  -6.577   1.484  0.00  0.00    +0.252 C 
ATOM      8  N   UNL     1      -7.715  -8.041   1.539  0.00  0.00    -0.351 N 
ATOM      9  C   UNL     1      -8.406  -8.519   0.545  0.00  0.00    +0.061 A 
ATOM     10  C   UNL     1      -8.675  -9.889   0.084  0.00  0.00    +0.029 A 
ATOM     11  C   UNL     1      -9.446 -10.085  -1.004  0.00  0.00    +0.022 A 
ATOM     12  C   UNL     1     -10.014  -9.022  -1.732  0.00  0.00    +0.043 A 
ATOM     13  C   UNL     1      -9.829  -7.729  -1.394  0.00  0.00    +0.047 A 
ATOM     14  C   UNL     1      -9.007  -7.396  -0.224  0.00  0.00    +0.063 A 
ATOM     15  N   UNL     1      -8.664  -6.264   0.325  0.00  0.00    -0.351 N 
ATOM     16 CL   UNL     1     -10.991  -9.390  -3.119  0.00  0.00    -0.083 Cl
ATOM     17  H   UNL     1      -7.221  -8.556   2.195  0.00  0.00    +0.163 HD
ATOM     18  H   UNL     1      -8.921  -5.378   0.024  0.00  0.00    +0.163 HD
ENDBRANCH   4   7
BRANCH   1  20
ATOM     19  N   UNL     1      -2.787  -2.571   0.015  0.00  0.00    -0.315 N 
ATOM     20  C   UNL     1      -3.015  -3.899   0.010  0.00  0.00    +0.216 C 
ATOM     21  O   UNL     1      -2.083  -4.674  -0.003  0.00  0.00    -0.276 OA
ATOM     22  H   UNL     1      -3.533  -1.950   0.025  0.00  0.00    +0.149 HD
BRANCH  19  23
ATOM     23  C   UNL     1      -1.413  -2.063   0.004  0.00  0.00    +0.104 C 
BRANCH  23  24
ATOM     24  C   UNL     1      -1.433  -0.534   0.013  0.00  0.00    +0.018 C 
BRANCH  24  26
ATOM     25  C   UNL     1      -0.019   1.526   0.010  0.00  0.00    +0.004 C 
ATOM     26  C   UNL     1       0.002  -0.004   0.002  0.00  0.00    -0.002 C 
ENDBRANCH  24  26
ENDBRANCH  23  24
ENDBRANCH  19  23
ENDBRANCH   1  20
TORSDOF 5
