REMARK  Name = ZINC36749522
REMARK  6 active torsions:
REMARK  status: ('A' for Active; 'I' for Inactive)
REMARK    1  A    between atoms: C_1  and  C_2
REMARK    2  A    between atoms: C_3  and  N_16
REMARK    3  A    between atoms: C_4  and  O_8
REMARK    4  A    between atoms: N_5  and  C_7
REMARK    5  A    between atoms: O_8  and  C_9
REMARK    6  A    between atoms: C_12  and  C_15
REMARK                            x       y       z     vdW  Elec       q    Type
REMARK                         _______ _______ _______ _____ _____    ______ ____
ROOT
ATOM      1  C   UNL     1       0.932   0.841   1.190  0.00  0.00    +0.069 C 
ATOM      2  C   UNL     1       0.229  -0.302   0.505  0.00  0.00    +0.084 A 
ATOM      3  C   UNL     1       0.839  -1.281  -0.289  0.00  0.00    +0.110 A 
ATOM      4  C   UNL     1      -0.133  -2.133  -0.720  0.00  0.00    +0.235 A 
ATOM      5  N   UNL     1      -1.315  -1.696  -0.208  0.00  0.00    -0.234 N 
ATOM      6  N   UNL     1      -1.055  -0.553   0.558  0.00  0.00    -0.172 NA
ATOM      7  C   UNL     1      -2.626  -2.315  -0.416  0.00  0.00    +0.176 C 
ENDROOT
BRANCH   3   8
ATOM      8  N   UNL     1       2.216  -1.369  -0.591  0.00  0.00    -0.352 N 
ATOM      9  H   UNL     1       2.834  -0.711  -0.235  0.00  0.00    +0.143 HD
ATOM     10  H   UNL     1       2.545  -2.087  -1.154  0.00  0.00    +0.143 HD
ENDBRANCH   3   8
BRANCH   4  11
ATOM     11  O   UNL     1       0.046  -3.220  -1.517  0.00  0.00    -0.472 OA
BRANCH  11  12
ATOM     12  C   UNL     1       0.181  -4.485  -0.867  0.00  0.00    +0.175 C 
ATOM     13  C   UNL     1       1.663  -4.782  -0.631  0.00  0.00    +0.045 C 
ATOM     14  C   UNL     1       2.396  -4.817  -1.974  0.00  0.00    +0.007 C 
ATOM     15  C   UNL     1       1.790  -5.911  -2.856  0.00  0.00    -0.014 C 
ATOM     16  C   UNL     1       0.308  -5.614  -3.091  0.00  0.00    +0.007 C 
ATOM     17  C   UNL     1      -0.424  -5.579  -1.749  0.00  0.00    +0.045 C 
ATOM     18  C   UNL     1       2.523  -5.947  -4.199  0.00  0.00    +0.007 C 
ENDBRANCH  11  12
ENDBRANCH   4  11
TORSDOF 3
