REMARK  Name = ZINC13215637
REMARK  9 active torsions:
REMARK  status: ('A' for Active; 'I' for Inactive)
REMARK    1  A    between atoms: C_1  and  C_2
REMARK    2  A    between atoms: C_5  and  C_8
REMARK    3  A    between atoms: C_8  and  C_10
REMARK    4  A    between atoms: N_14  and  C_27
REMARK    5  A    between atoms: C_15  and  C_17
REMARK    6  A    between atoms: C_22  and  O_23
REMARK    7  A    between atoms: O_23  and  C_24
REMARK    8  A    between atoms: C_29  and  C_34
REMARK    9  A    between atoms: C_32  and  C_33
REMARK                            x       y       z     vdW  Elec       q    Type
REMARK                         _______ _______ _______ _____ _____    ______ ____
ROOT
ATOM      1  C   UNL     1       0.316  -5.046   1.424  0.00  0.00    +0.077 C 
ATOM      2  C   UNL     1       0.607  -6.304   1.835  0.00  0.00    +0.250 C 
ATOM      3  C   UNL     1       0.709  -6.321   3.309  0.00  0.00    +0.292 C 
ATOM      4  O   UNL     1       0.959  -7.303   3.979  0.00  0.00    -0.266 OA
ATOM      5  N   UNL     1       0.483  -5.089   3.800  0.00  0.00    -0.253 N 
ATOM      6  C   UNL     1       0.225  -4.192   2.667  0.00  0.00    +0.153 C 
ATOM      7  O   UNL     1       0.777  -7.373   1.025  0.00  0.00    -0.282 OA
ENDROOT
BRANCH   5   8
ATOM      8  C   UNL     1       0.496  -4.726   5.149  0.00  0.00    +0.041 A 
ATOM      9  C   UNL     1       1.656  -4.228   5.722  0.00  0.00    +0.039 A 
ATOM     10  C   UNL     1       1.663  -3.867   7.071  0.00  0.00    +0.065 A 
ATOM     11  C   UNL     1       0.501  -4.010   7.833  0.00  0.00    +0.015 A 
ATOM     12  C   UNL     1      -0.648  -4.507   7.253  0.00  0.00    +0.006 A 
ATOM     13  C   UNL     1      -0.656  -4.859   5.916  0.00  0.00    -0.029 A 
ATOM     14  C   UNL     1      -1.918  -5.394   5.289  0.00  0.00    +0.045 C 
BRANCH  10  15
ATOM     15  C   UNL     1       2.894  -3.337   7.689  0.00  0.00    +0.387 C 
ATOM     16  O   UNL     1       3.910  -3.213   7.019  0.00  0.00    -0.241 OA
ATOM     17  O   UNL     1       2.898  -3.021   8.870  0.00  0.00    -0.241 OA
ENDBRANCH  10  15
ENDBRANCH   5   8
BRANCH   6  18
ATOM     18  C   UNL     1       1.262  -3.099   2.621  0.00  0.00    +0.020 A 
ATOM     19  C   UNL     1       2.338  -3.203   1.760  0.00  0.00    +0.009 A 
ATOM     20  C   UNL     1       3.290  -2.201   1.718  0.00  0.00    +0.001 A 
ATOM     21  C   UNL     1       3.168  -1.093   2.537  0.00  0.00    +0.004 A 
ATOM     22  C   UNL     1       2.094  -0.985   3.398  0.00  0.00    +0.046 A 
ATOM     23  C   UNL     1       1.134  -1.986   3.439  0.00  0.00    +0.132 A 
BRANCH  23  24
ATOM     24  O   UNL     1       0.073  -1.879   4.282  0.00  0.00    -0.434 OA
BRANCH  24  25
ATOM     25  C   UNL     1      -0.006  -0.695   5.077  0.00  0.00    +0.541 C 
ATOM     26  F   UNL     1       1.117  -0.615   5.907  0.00  0.00    -0.166 F 
ATOM     27  F   UNL     1      -0.049   0.426   4.242  0.00  0.00    -0.166 F 
ENDBRANCH  24  25
ENDBRANCH  23  24
ENDBRANCH   6  18
BRANCH   1  28
ATOM     28  C   UNL     1       0.131  -4.600   0.040  0.00  0.00    +0.195 C 
ATOM     29  O   UNL     1       1.035  -4.723  -0.764  0.00  0.00    -0.287 OA
BRANCH  28  34
ATOM     30  C   UNL     1      -4.872  -2.266  -1.586  0.00  0.00    +0.044 C 
ATOM     31  C   UNL     1      -3.562  -2.877  -1.160  0.00  0.00    -0.050 A 
ATOM     32  C   UNL     1      -2.501  -2.919  -2.047  0.00  0.00    +0.004 A 
ATOM     33  C   UNL     1      -1.299  -3.477  -1.664  0.00  0.00    +0.012 A 
ATOM     34  C   UNL     1      -1.154  -4.000  -0.377  0.00  0.00    +0.022 A 
ATOM     35  C   UNL     1      -2.229  -3.953   0.513  0.00  0.00    +0.012 A 
ATOM     36  C   UNL     1      -3.424  -3.388   0.118  0.00  0.00    +0.004 A 
ENDBRANCH  28  34
ENDBRANCH   1  28
TORSDOF 7
