REMARK  Name = ZINC19885351
REMARK  12 active torsions:
REMARK  status: ('A' for Active; 'I' for Inactive)
REMARK    1  A    between atoms: C_1  and  C_2
REMARK    2  A    between atoms: C_2  and  C_3
REMARK    3  A    between atoms: C_2  and  C_4
REMARK    4  A    between atoms: C_2  and  O_34
REMARK    5  A    between atoms: C_5  and  C_6
REMARK    6  A    between atoms: C_9  and  C_12
REMARK    7  A    between atoms: C_12  and  N_13
REMARK    8  A    between atoms: C_17  and  C_20
REMARK    9  A    between atoms: C_24  and  S_26
REMARK   10  A    between atoms: S_26  and  C_27
REMARK   11  A    between atoms: C_27  and  C_28
REMARK   12  A    between atoms: C_28  and  N_29
REMARK                            x       y       z     vdW  Elec       q    Type
REMARK                         _______ _______ _______ _____ _____    ______ ____
ROOT
ATOM      1  N   UNL     1      -0.095   6.200  -1.351  0.00  0.00    -0.298 NA
ATOM      2  C   UNL     1      -1.075   5.465  -2.160  0.00  0.00    +0.085 C 
ATOM      3  C   UNL     1      -0.966   5.907  -3.621  0.00  0.00    +0.016 C 
ATOM      4  C   UNL     1      -1.226   7.413  -3.715  0.00  0.00    +0.012 C 
ATOM      5  C   UNL     1      -0.222   8.152  -2.825  0.00  0.00    +0.052 C 
ATOM      6  C   UNL     1      -0.353   7.645  -1.387  0.00  0.00    +0.094 C 
ENDROOT
BRANCH   5   7
ATOM      7  C   UNL     1      -0.508   9.631  -2.865  0.00  0.00    +0.050 A 
ATOM      8  C   UNL     1      -1.812  10.091  -2.972  0.00  0.00    +0.043 A 
ATOM      9  C   UNL     1      -2.032  11.459  -3.001  0.00  0.00    +0.115 A 
ATOM     10  N   UNL     1      -0.998  12.280  -2.936  0.00  0.00    -0.230 NA
ATOM     11  C   UNL     1       0.237  11.809  -2.840  0.00  0.00    +0.188 A 
ATOM     12  N   UNL     1       0.481  10.506  -2.804  0.00  0.00    -0.227 NA
BRANCH  11  13
ATOM     13  S   UNL     1       1.586  12.939  -2.756  0.00  0.00    -0.088 S 
BRANCH  13  14
ATOM     14  C   UNL     1       0.687  14.508  -2.843  0.00  0.00    +0.059 C 
BRANCH  14  15
ATOM     15  C   UNL     1       1.682  15.669  -2.786  0.00  0.00    -0.068 C 
BRANCH  15  16
ATOM     16  N   UNL     1       0.952  16.942  -2.856  0.00  0.00    +0.380 N 
ATOM     17  C   UNL     1      -0.121  16.998  -1.831  0.00  0.00    -0.079 C 
ATOM     18  C   UNL     1      -0.401  18.516  -1.693  0.00  0.00    -0.020 C 
ATOM     19  C   UNL     1       1.006  19.141  -1.827  0.00  0.00    -0.020 C 
ATOM     20  C   UNL     1       1.848  18.083  -2.565  0.00  0.00    -0.079 C 
ATOM     21  H   UNL     1       0.546  16.998  -3.877  0.00  0.00    -0.082 HD
ENDBRANCH  15  16
ENDBRANCH  14  15
ENDBRANCH  13  14
ENDBRANCH  11  13
ENDBRANCH   5   7
BRANCH   1  22
ATOM     22  C   UNL     1      -0.075   5.703   0.032  0.00  0.00    +0.119 C 
BRANCH  22  26
ATOM     23  C   UNL     1      -0.017   1.428   0.010  0.00  0.00    +0.025 A 
ATOM     24  C   UNL     1      -1.233   2.112   0.019  0.00  0.00    +0.017 A 
ATOM     25  C   UNL     1      -1.245   3.492   0.031  0.00  0.00    +0.006 A 
ATOM     26  C   UNL     1      -0.055   4.197   0.024  0.00  0.00    -0.033 A 
ATOM     27  C   UNL     1       1.154   3.524   0.009  0.00  0.00    +0.006 A 
ATOM     28  C   UNL     1       1.180   2.145   0.002  0.00  0.00    +0.017 A 
BRANCH  23  30
ATOM     29  C   UNL     1       0.018  -1.178  -0.004  0.00  0.00    -0.063 C 
ATOM     30  C   UNL     1       0.002  -0.004   0.002  0.00  0.00    -0.063 C 
BRANCH  29  32
ATOM     31  C   UNL     1      -1.397  -3.179  -0.002  0.00  0.00    +0.055 C 
ATOM     32  C   UNL     1       0.038  -2.650  -0.013  0.00  0.00    +0.121 C 
ATOM     33  C   UNL     1       0.754  -3.143  -1.271  0.00  0.00    +0.055 C 
BRANCH  32  34
ATOM     34  O   UNL     1       0.729  -3.123   1.145  0.00  0.00    -0.377 OA
ATOM     35  H   UNL     1       1.780  -2.844   1.311  0.00  0.00    +0.211 HD
ENDBRANCH  32  34
ENDBRANCH  29  32
ENDBRANCH  23  30
ENDBRANCH  22  26
ENDBRANCH   1  22
TORSDOF 10
