REMARK  Name = ZINC23888684
REMARK  6 active torsions:
REMARK  status: ('A' for Active; 'I' for Inactive)
REMARK    1  A    between atoms: C_1  and  C_2
REMARK    2  A    between atoms: C_2  and  C_3
REMARK    3  A    between atoms: C_8  and  O_31
REMARK    4  A    between atoms: C_9  and  C_11
REMARK    5  A    between atoms: C_11  and  C_13
REMARK    6  A    between atoms: C_11  and  N_21
REMARK                            x       y       z     vdW  Elec       q    Type
REMARK                         _______ _______ _______ _____ _____    ______ ____
ROOT
ATOM      1  C   UNL     1      -3.804   1.708   0.048  0.00  0.00    +0.131 C 
ENDROOT
BRANCH   1   2
ATOM      2  N   UNL     1      -4.581   0.933  -0.928  0.00  0.00    -0.286 NA
ATOM      3  C   UNL     1      -4.120   1.199  -2.300  0.00  0.00    +0.090 C 
ATOM      4  C   UNL     1      -4.691   0.120  -3.222  0.00  0.00    +0.051 C 
ATOM      5  C   UNL     1      -6.176  -0.010  -3.003  0.00  0.00    -0.042 A 
ATOM      6  C   UNL     1      -6.932  -0.662  -3.965  0.00  0.00    +0.004 A 
ATOM      7  C   UNL     1      -8.295  -0.806  -3.802  0.00  0.00    +0.000 A 
ATOM      8  C   UNL     1      -8.910  -0.299  -2.672  0.00  0.00    +0.000 A 
ATOM      9  C   UNL     1      -8.159   0.351  -1.714  0.00  0.00    +0.005 A 
ATOM     10  C   UNL     1      -6.789   0.499  -1.878  0.00  0.00    -0.030 A 
ATOM     11  C   UNL     1      -6.013   1.223  -0.809  0.00  0.00    +0.120 C 
ENDBRANCH   1   2
BRANCH   1  18
ATOM     12  C   UNL     1       2.059   0.622  -0.014  0.00  0.00    +0.152 A 
ATOM     13  N   UNL     1       1.237  -0.425  -0.012  0.00  0.00    -0.205 NA
ATOM     14  C   UNL     1       0.002  -0.004   0.002  0.00  0.00    +0.199 A 
ATOM     15  N   UNL     1      -0.016   1.357   0.009  0.00  0.00    -0.173 N 
ATOM     16  N   UNL     1       1.355   1.722  -0.002  0.00  0.00    -0.147 NA
ATOM     17  C   UNL     1      -1.246   1.970   0.029  0.00  0.00    +0.228 A 
ATOM     18  C   UNL     1      -2.370   1.243   0.031  0.00  0.00    +0.076 A 
ATOM     19  S   UNL     1      -1.724  -0.422   0.016  0.00  0.00    -0.047 S 
BRANCH  12  21
ATOM     20  C   UNL     1       4.059   0.533  -1.477  0.00  0.00    +0.012 C 
ATOM     21  C   UNL     1       3.564   0.550  -0.030  0.00  0.00    +0.075 C 
ENDBRANCH  12  21
BRANCH  17  22
ATOM     22  O   UNL     1      -1.322   3.328   0.038  0.00  0.00    -0.492 OA
ATOM     23  H   UNL     1      -2.304   3.824   0.054  0.00  0.00    +0.294 HD
ENDBRANCH  17  22
ENDBRANCH   1  18
BRANCH   1  24
ATOM     24  C   UNL     1      -4.381   1.505   1.425  0.00  0.00    -0.007 A 
ATOM     25  C   UNL     1      -5.096   0.357   1.712  0.00  0.00    +0.008 A 
ATOM     26  C   UNL     1      -5.626   0.170   2.975  0.00  0.00    +0.020 A 
ATOM     27  C   UNL     1      -5.441   1.133   3.952  0.00  0.00    +0.042 A 
ATOM     28  C   UNL     1      -4.727   2.281   3.665  0.00  0.00    +0.040 A 
ATOM     29  C   UNL     1      -4.192   2.465   2.403  0.00  0.00    +0.047 A 
ATOM     30 CL   UNL     1      -3.289   3.904   2.043  0.00  0.00    -0.083 Cl
ATOM     31 CL   UNL     1      -6.107   0.898   5.538  0.00  0.00    -0.083 Cl
ENDBRANCH   1  24
TORSDOF 5
