REMARK  Name = ZINC10249548
REMARK  9 active torsions:
REMARK  status: ('A' for Active; 'I' for Inactive)
REMARK    1  A    between atoms: C_1  and  C_2
REMARK    2  A    between atoms: C_5  and  C_36
REMARK    3  A    between atoms: N_14  and  C_15
REMARK    4  A    between atoms: C_15  and  C_16
REMARK    5  A    between atoms: C_16  and  C_18
REMARK    6  A    between atoms: C_16  and  C_19
REMARK    7  A    between atoms: C_19  and  S_20
REMARK    8  A    between atoms: S_20  and  C_21
REMARK    9  A    between atoms: N_34  and  C_35
REMARK                            x       y       z     vdW  Elec       q    Type
REMARK                         _______ _______ _______ _____ _____    ______ ____
ROOT
ATOM      1  C   UNL     1      -2.631   3.281  -0.003  0.00  0.00    +0.009 C 
ATOM      2  C   UNL     1      -1.282   2.837  -0.571  0.00  0.00    +0.004 C 
ATOM      3  C   UNL     1      -1.495   1.683  -1.554  0.00  0.00    +0.009 C 
ATOM      4  C   UNL     1      -2.100   0.491  -0.805  0.00  0.00    +0.004 C 
ATOM      5  C   UNL     1      -1.170   0.091   0.342  0.00  0.00    +0.111 C 
ATOM      6  N   UNL     1      -0.998   1.229   1.254  0.00  0.00    -0.300 N 
ATOM      7  C   UNL     1      -0.375   2.369   0.570  0.00  0.00    +0.111 C 
ATOM      8  C   UNL     1      -0.273   0.865   2.366  0.00  0.00    +0.201 A 
ATOM      9  N   UNL     1       0.733   0.014   2.373  0.00  0.00    -0.196 NA
ATOM     10  C   UNL     1       1.212  -0.113   3.612  0.00  0.00    +0.170 A 
ATOM     11  C   UNL     1       0.460   0.713   4.440  0.00  0.00    +0.153 A 
ATOM     12  N   UNL     1      -0.478   1.333   3.625  0.00  0.00    -0.306 N 
ATOM     13  C   UNL     1       0.761   0.767   5.812  0.00  0.00    +0.280 A 
ATOM     14  O   UNL     1       0.116   1.485   6.556  0.00  0.00    -0.265 OA
ATOM     15  N   UNL     1       1.773   0.018   6.296  0.00  0.00    -0.273 N 
ATOM     16  H   UNL     1       1.989   0.054   7.272  0.00  0.00    +0.173 HD
ATOM     17  C   UNL     1       2.494  -0.777   5.487  0.00  0.00    +0.331 A 
ATOM     18  O   UNL     1       3.399  -1.439   5.958  0.00  0.00    -0.246 OA
ATOM     19  N   UNL     1       2.239  -0.859   4.168  0.00  0.00    -0.280 N 
ATOM     20  C   UNL     1       3.048  -1.738   3.319  0.00  0.00    +0.155 C 
ATOM     21  C   UNL     1      -2.261  -0.688  -1.767  0.00  0.00    +0.009 C 
ENDROOT
BRANCH  12  22
ATOM     22  C   UNL     1      -1.496   2.301   4.043  0.00  0.00    +0.129 C 
BRANCH  22  23
ATOM     23  C   UNL     1      -2.816   1.573   4.303  0.00  0.00    +0.016 C 
ATOM     24  C   UNL     1      -2.650   0.622   5.490  0.00  0.00    +0.010 C 
BRANCH  23  25
ATOM     25  C   UNL     1      -3.909   2.596   4.618  0.00  0.00    +0.079 C 
BRANCH  25  26
ATOM     26  S   UNL     1      -5.504   1.747   4.780  0.00  0.00    -0.125 S 
BRANCH  26  27
ATOM     27  C   UNL     1      -6.642   3.043   5.138  0.00  0.00    +0.008 A 
ATOM     28  C   UNL     1      -6.196   4.355   5.235  0.00  0.00    +0.016 A 
ATOM     29  C   UNL     1      -7.091   5.369   5.511  0.00  0.00    +0.021 A 
ATOM     30  C   UNL     1      -8.431   5.079   5.701  0.00  0.00    +0.041 A 
ATOM     31  C   UNL     1      -8.878   3.772   5.610  0.00  0.00    +0.021 A 
ATOM     32  C   UNL     1      -7.988   2.754   5.329  0.00  0.00    +0.016 A 
ATOM     33 CL   UNL     1      -9.553   6.356   6.053  0.00  0.00    -0.084 Cl
ENDBRANCH  26  27
ENDBRANCH  25  26
ENDBRANCH  23  25
ENDBRANCH  22  23
ENDBRANCH  12  22
TORSDOF 5
