REMARK  Name = ZINC13253619
REMARK  9 active torsions:
REMARK  status: ('A' for Active; 'I' for Inactive)
REMARK    1  A    between atoms: C_4  and  C_7
REMARK    2  A    between atoms: C_7  and  C_8
REMARK    3  A    between atoms: C_8  and  N_9
REMARK    4  A    between atoms: C_10  and  C_27
REMARK    5  A    between atoms: C_13  and  S_14
REMARK    6  A    between atoms: S_14  and  C_15
REMARK    7  A    between atoms: C_15  and  C_16
REMARK    8  A    between atoms: C_24  and  C_25
REMARK    9  A    between atoms: C_27  and  C_28
REMARK                            x       y       z     vdW  Elec       q    Type
REMARK                         _______ _______ _______ _____ _____    ______ ____
ROOT
ATOM      1  N   UNL     1       0.522  -3.083  -2.204  0.00  0.00    -0.305 N 
ATOM      2  C   UNL     1       1.559  -2.611  -1.448  0.00  0.00    +0.139 A 
ATOM      3  N   UNL     1       2.632  -2.663  -2.187  0.00  0.00    -0.133 NA
ATOM      4  N   UNL     1       2.345  -3.129  -3.350  0.00  0.00    -0.122 NA
ATOM      5  C   UNL     1       1.062  -3.401  -3.417  0.00  0.00    +0.192 A 
ENDROOT
BRANCH   1   6
ATOM      6  C   UNL     1      -0.879  -3.218  -1.796  0.00  0.00    +0.130 C 
BRANCH   6   7
ATOM      7  C   UNL     1      -1.633  -1.928  -2.126  0.00  0.00    +0.057 C 
BRANCH   7  11
ATOM      8  C   UNL     1      -5.717  -2.322  -0.939  0.00  0.00    +0.000 A 
ATOM      9  C   UNL     1      -4.784  -1.823  -0.050  0.00  0.00    +0.000 A 
ATOM     10  C   UNL     1      -3.462  -1.696  -0.434  0.00  0.00    +0.004 A 
ATOM     11  C   UNL     1      -3.074  -2.067  -1.707  0.00  0.00    -0.046 A 
ATOM     12  C   UNL     1      -4.008  -2.561  -2.598  0.00  0.00    +0.004 A 
ATOM     13  C   UNL     1      -5.329  -2.693  -2.212  0.00  0.00    +0.000 A 
ENDBRANCH   7  11
ENDBRANCH   6   7
ENDBRANCH   1   6
BRANCH   5  14
ATOM     14  S   UNL     1       0.202  -4.057  -4.807  0.00  0.00    -0.081 S 
BRANCH  14  15
ATOM     15  C   UNL     1       1.570  -4.205  -5.982  0.00  0.00    +0.117 C 
BRANCH  15  16
ATOM     16  C   UNL     1       1.056  -4.763  -7.284  0.00  0.00    +0.023 A 
ATOM     17  C   UNL     1       0.546  -4.005  -8.426  0.00  0.00    +0.025 A 
ATOM     18  C   UNL     1       0.370  -2.644  -8.691  0.00  0.00    +0.012 A 
ATOM     19  C   UNL     1      -0.147  -2.250  -9.892  0.00  0.00    +0.001 A 
ATOM     20  C   UNL     1      -0.499  -3.191 -10.850  0.00  0.00    +0.004 A 
ATOM     21  C   UNL     1      -0.334  -4.538 -10.608  0.00  0.00    +0.047 A 
ATOM     22  C   UNL     1       0.191  -4.964  -9.393  0.00  0.00    +0.136 A 
ATOM     23  O   UNL     1       0.462  -6.180  -8.880  0.00  0.00    -0.448 OA
ATOM     24  C   UNL     1       0.978  -6.073  -7.638  0.00  0.00    +0.221 A 
BRANCH  24  25
ATOM     25  C   UNL     1       1.391  -7.202  -6.795  0.00  0.00    +0.421 C 
ATOM     26  O   UNL     1       1.843  -6.998  -5.685  0.00  0.00    -0.237 OA
ATOM     27  O   UNL     1       1.267  -8.465  -7.251  0.00  0.00    -0.237 OA
ENDBRANCH  24  25
ENDBRANCH  15  16
ENDBRANCH  14  15
ENDBRANCH   5  14
BRANCH   2  28
ATOM     28  C   UNL     1       1.479  -2.126  -0.024  0.00  0.00    +0.118 C 
BRANCH  28  29
ATOM     29  C   UNL     1       1.196  -0.645  -0.013  0.00  0.00    -0.003 A 
ATOM     30  C   UNL     1       0.002  -0.004   0.002  0.00  0.00    +0.011 A 
ATOM     31  C   UNL     1      -0.017   1.378   0.010  0.00  0.00    +0.008 A 
ATOM     32  C   UNL     1       1.160   2.051   0.002  0.00  0.00    +0.045 A 
ATOM     33  S   UNL     1       2.348   0.719  -0.017  0.00  0.00    -0.101 S 
ENDBRANCH  28  29
ENDBRANCH   2  28
TORSDOF 9
