REMARK  Name = ZINC09312448
REMARK  9 active torsions:
REMARK  status: ('A' for Active; 'I' for Inactive)
REMARK    1  A    between atoms: C_1  and  C_2
REMARK    2  A    between atoms: C_2  and  C_3
REMARK    3  A    between atoms: C_2  and  C_4
REMARK    4  A    between atoms: C_2  and  C_5
REMARK    5  A    between atoms: C_8  and  C_11
REMARK    6  A    between atoms: C_13  and  C_26
REMARK    7  A    between atoms: N_17  and  C_18
REMARK    8  A    between atoms: C_18  and  C_19
REMARK    9  A    between atoms: C_26  and  C_28
REMARK                            x       y       z     vdW  Elec       q    Type
REMARK                         _______ _______ _______ _____ _____    ______ ____
ROOT
ATOM      1  C   UNL     1       4.911   0.190  -2.257  0.00  0.00    +0.145 C 
ATOM      2  C   UNL     1       5.012  -0.539  -3.577  0.00  0.00    +0.076 C 
ATOM      3  C   UNL     1       4.419  -1.743  -3.405  0.00  0.00    +0.249 C 
ATOM      4  C   UNL     1       3.930  -1.849  -2.014  0.00  0.00    +0.288 C 
ATOM      5  O   UNL     1       3.356  -2.814  -1.548  0.00  0.00    -0.266 OA
ATOM      6  N   UNL     1       4.210  -0.718  -1.341  0.00  0.00    -0.279 N 
ATOM      7  O   UNL     1       4.298  -2.700  -4.353  0.00  0.00    -0.282 OA
ENDROOT
BRANCH   1  11
ATOM      8  C   UNL     1       2.679   3.800  -2.740  0.00  0.00    -0.042 A 
ATOM      9  C   UNL     1       4.027   3.855  -2.438  0.00  0.00    +0.004 A 
ATOM     10  C   UNL     1       4.749   2.687  -2.282  0.00  0.00    +0.006 A 
ATOM     11  C   UNL     1       4.123   1.463  -2.427  0.00  0.00    -0.022 A 
ATOM     12  C   UNL     1       2.777   1.407  -2.735  0.00  0.00    +0.006 A 
ATOM     13  C   UNL     1       2.053   2.575  -2.886  0.00  0.00    +0.004 A 
BRANCH   8  15
ATOM     14  C   UNL     1       2.493   5.895  -4.053  0.00  0.00    +0.015 C 
ATOM     15  C   UNL     1       1.891   5.073  -2.911  0.00  0.00    -0.013 C 
ATOM     16  C   UNL     1       0.436   4.733  -3.239  0.00  0.00    +0.015 C 
ATOM     17  C   UNL     1       1.946   5.884  -1.615  0.00  0.00    +0.015 C 
ENDBRANCH   8  15
ENDBRANCH   1  11
BRANCH   2  18
ATOM     18  C   UNL     1       5.632  -0.038  -4.807  0.00  0.00    +0.195 C 
ATOM     19  O   UNL     1       4.947   0.180  -5.789  0.00  0.00    -0.287 OA
BRANCH  18  20
ATOM     20  C   UNL     1       7.088   0.204  -4.855  0.00  0.00    +0.026 A 
ATOM     21  C   UNL     1       7.894  -0.154  -3.770  0.00  0.00    +0.015 A 
ATOM     22  C   UNL     1       9.251   0.073  -3.817  0.00  0.00    +0.050 A 
ATOM     23  C   UNL     1       9.825   0.658  -4.940  0.00  0.00    +0.162 A 
ATOM     24  C   UNL     1       9.028   1.015  -6.025  0.00  0.00    +0.163 A 
ATOM     25  C   UNL     1       7.665   0.785  -5.987  0.00  0.00    +0.061 A 
ATOM     26  O   UNL     1       9.576   1.584  -7.134  0.00  0.00    -0.485 OA
ATOM     27  C   UNL     1      10.888   2.138  -6.990  0.00  0.00    +0.270 C 
ATOM     28  C   UNL     1      11.759   1.121  -6.241  0.00  0.00    +0.270 C 
ATOM     29  O   UNL     1      11.166   0.879  -4.961  0.00  0.00    -0.485 OA
ENDBRANCH  18  20
ENDBRANCH   2  18
BRANCH   6  30
ATOM     30  C   UNL     1       3.880  -0.444   0.059  0.00  0.00    +0.145 C 
BRANCH  30  31
ATOM     31  C   UNL     1       2.522   0.205   0.138  0.00  0.00    -0.012 A 
ATOM     32  C   UNL     1       1.380  -0.571   0.265  0.00  0.00    +0.008 A 
ATOM     33  C   UNL     1       0.152   0.069   0.333  0.00  0.00    +0.020 A 
ATOM     34  C   UNL     1       0.108   1.450   0.272  0.00  0.00    +0.111 A 
ATOM     35  N   UNL     1       1.215   2.155   0.151  0.00  0.00    -0.263 NA
ATOM     36  C   UNL     1       2.400   1.580   0.084  0.00  0.00    +0.115 A 
ENDBRANCH  30  31
ENDBRANCH   6  30
TORSDOF 6
