REMARK  Name = ZINC59577592
REMARK  6 active torsions:
REMARK  status: ('A' for Active; 'I' for Inactive)
REMARK    1  A    between atoms: C_1  and  C_2
REMARK    2  A    between atoms: C_2  and  C_3
REMARK    3  A    between atoms: C_5  and  N_18
REMARK    4  A    between atoms: C_7  and  C_9
REMARK    5  A    between atoms: C_12  and  N_15
REMARK    6  A    between atoms: C_21  and  N_24
REMARK                            x       y       z     vdW  Elec       q    Type
REMARK                         _______ _______ _______ _____ _____    ______ ____
ROOT
ATOM      1  C   UNL     1      -1.369  -0.686   0.140  0.00  0.00    +0.047 A 
ATOM      2  C   UNL     1      -1.793  -1.575  -0.829  0.00  0.00    +0.067 A 
ATOM      3  C   UNL     1      -3.156  -1.868  -0.914  0.00  0.00    +0.125 A 
ATOM      4  N   UNL     1      -3.995  -1.284  -0.065  0.00  0.00    -0.213 NA
ATOM      5  C   UNL     1      -3.548  -0.437   0.850  0.00  0.00    +0.162 A 
ATOM      6  N   UNL     1      -2.259  -0.145   0.957  0.00  0.00    -0.232 NA
ENDROOT
BRANCH   5   7
ATOM      7  C   UNL     1      -4.512   0.197   1.782  0.00  0.00    +0.019 A 
ATOM      8  C   UNL     1      -5.870  -0.104   1.694  0.00  0.00    +0.014 A 
ATOM      9  C   UNL     1      -6.763   0.489   2.564  0.00  0.00    +0.033 A 
ATOM     10  C   UNL     1      -6.312   1.380   3.521  0.00  0.00    +0.126 A 
ATOM     11  C   UNL     1      -4.966   1.683   3.612  0.00  0.00    +0.033 A 
ATOM     12  C   UNL     1      -4.063   1.091   2.752  0.00  0.00    +0.014 A 
BRANCH  10  13
ATOM     13  N   UNL     1      -7.275   2.013   4.450  0.00  0.00    +0.056 N 
ATOM     14  O   UNL     1      -8.453   1.751   4.372  0.00  0.00    -0.126 OA
ATOM     15  O   UNL     1      -6.884   2.793   5.287  0.00  0.00    -0.126 OA
ENDBRANCH  10  13
ENDBRANCH   5   7
BRANCH   3  16
ATOM     16  N   UNL     1      -3.627  -2.753  -1.871  0.00  0.00    -0.315 N 
ATOM     17  C   UNL     1      -5.015  -3.234  -1.827  0.00  0.00    +0.108 C 
ATOM     18  C   UNL     1      -5.671  -2.969  -3.186  0.00  0.00    +0.044 C 
ATOM     19  C   UNL     1      -4.820  -3.602  -4.290  0.00  0.00    +0.095 C 
ATOM     20  C   UNL     1      -3.429  -2.965  -4.293  0.00  0.00    +0.044 C 
ATOM     21  C   UNL     1      -2.749  -3.225  -2.951  0.00  0.00    +0.108 C 
BRANCH  19  22
ATOM     22  N   UNL     1      -5.462  -3.380  -5.588  0.00  0.00    -0.289 N 
ATOM     23  C   UNL     1      -5.898  -4.372  -6.463  0.00  0.00    +0.070 A 
ATOM     24  C   UNL     1      -5.878  -5.758  -6.416  0.00  0.00    +0.028 A 
ATOM     25  C   UNL     1      -6.399  -6.489  -7.465  0.00  0.00    +0.002 A 
ATOM     26  C   UNL     1      -6.941  -5.845  -8.564  0.00  0.00    +0.002 A 
ATOM     27  C   UNL     1      -6.964  -4.465  -8.621  0.00  0.00    +0.028 A 
ATOM     28  C   UNL     1      -6.444  -3.722  -7.572  0.00  0.00    +0.067 A 
ATOM     29  N   UNL     1      -6.323  -2.355  -7.336  0.00  0.00    -0.306 N 
ATOM     30  H   UNL     1      -6.616  -1.648  -7.932  0.00  0.00    +0.170 HD
ATOM     31  C   UNL     1      -5.736  -2.181  -6.137  0.00  0.00    +0.328 A 
ATOM     32  O   UNL     1      -5.488  -1.104  -5.627  0.00  0.00    -0.247 OA
ENDBRANCH  19  22
ENDBRANCH   3  16
BRANCH   1  34
ATOM     33  C   UNL     1       0.267   1.177   0.192  0.00  0.00    +0.010 C 
ATOM     34  C   UNL     1       0.093  -0.341   0.269  0.00  0.00    +0.052 C 
ENDBRANCH   1  34
TORSDOF 5
