REMARK  Name = ZINC13163526
REMARK  7 active torsions:
REMARK  status: ('A' for Active; 'I' for Inactive)
REMARK    1  A    between atoms: C_1  and  C_2
REMARK    2  A    between atoms: C_9  and  C_14
REMARK    3  A    between atoms: C_14  and  S_15
REMARK    4  A    between atoms: S_15  and  C_16
REMARK    5  A    between atoms: C_19  and  C_27
REMARK    6  A    between atoms: N_20  and  C_21
REMARK    7  A    between atoms: C_27  and  C_28
REMARK                            x       y       z     vdW  Elec       q    Type
REMARK                         _______ _______ _______ _____ _____    ______ ____
ROOT
ATOM      1  C   UNL     1      -5.176  -2.665   0.036  0.00  0.00    +0.192 A 
ATOM      2  N   UNL     1      -5.127  -3.977   0.029  0.00  0.00    -0.122 NA
ATOM      3  N   UNL     1      -6.319  -4.458   0.038  0.00  0.00    -0.133 NA
ATOM      4  C   UNL     1      -7.192  -3.491   0.051  0.00  0.00    +0.139 A 
ATOM      5  N   UNL     1      -6.495  -2.314   0.056  0.00  0.00    -0.303 N 
ENDROOT
BRANCH   5   6
ATOM      6  C   UNL     1      -7.049  -0.958   0.076  0.00  0.00    +0.091 C 
ATOM      7  C   UNL     1      -6.590  -0.202  -1.173  0.00  0.00    +0.025 C 
ATOM      8  C   UNL     1      -7.169   1.215  -1.152  0.00  0.00    +0.002 C 
ATOM      9  C   UNL     1      -6.678   1.948   0.098  0.00  0.00    +0.000 C 
ATOM     10  C   UNL     1      -7.136   1.192   1.346  0.00  0.00    +0.002 C 
ATOM     11  C   UNL     1      -6.558  -0.224   1.326  0.00  0.00    +0.025 C 
ENDBRANCH   5   6
BRANCH   1  12
ATOM     12  S   UNL     1      -3.799  -1.566   0.029  0.00  0.00    -0.078 S 
BRANCH  12  13
ATOM     13  C   UNL     1      -2.441  -2.763   0.010  0.00  0.00    +0.151 C 
BRANCH  13  22
ATOM     14  C   UNL     1      -1.330   2.131   0.020  0.00  0.00    +0.046 C 
ATOM     15  C   UNL     1      -0.017   1.392   0.010  0.00  0.00    -0.024 A 
ATOM     16  C   UNL     1       1.170   2.090   0.002  0.00  0.00    +0.005 A 
ATOM     17  C   UNL     1       2.388   1.423  -0.013  0.00  0.00    +0.001 A 
ATOM     18  C   UNL     1       2.432   0.046  -0.021  0.00  0.00    +0.015 A 
ATOM     19  C   UNL     1       1.243  -0.679  -0.013  0.00  0.00    +0.065 A 
ATOM     20  C   UNL     1       0.002  -0.004   0.002  0.00  0.00    +0.081 A 
ATOM     21  N   UNL     1      -1.143  -0.732   0.009  0.00  0.00    -0.233 NA
ATOM     22  C   UNL     1      -1.125  -2.030   0.001  0.00  0.00    +0.121 A 
ATOM     23  N   UNL     1       0.020  -2.761  -0.014  0.00  0.00    -0.310 N 
ATOM     24  H   UNL     1      -0.029  -3.860  -0.020  0.00  0.00    +0.170 HD
ATOM     25  C   UNL     1       1.228  -2.150  -0.022  0.00  0.00    +0.259 A 
ATOM     26  O   UNL     1       2.262  -2.793  -0.035  0.00  0.00    -0.267 OA
ENDBRANCH  13  22
ENDBRANCH  12  13
ENDBRANCH   1  12
BRANCH   4  27
ATOM     27  C   UNL     1      -8.691  -3.640   0.064  0.00  0.00    +0.118 C 
BRANCH  27  28
ATOM     28  C   UNL     1      -9.178  -3.697   1.489  0.00  0.00    -0.003 A 
ATOM     29  C   UNL     1      -9.553  -2.681   2.304  0.00  0.00    +0.011 A 
ATOM     30  C   UNL     1      -9.973  -2.972   3.588  0.00  0.00    +0.008 A 
ATOM     31  C   UNL     1      -9.988  -4.263   3.998  0.00  0.00    +0.045 A 
ATOM     32  S   UNL     1      -9.403  -5.119   2.545  0.00  0.00    -0.101 S 
ENDBRANCH  27  28
ENDBRANCH   4  27
TORSDOF 6
