REMARK  Name = ZINC36302685
REMARK  17 active torsions:
REMARK  status: ('A' for Active; 'I' for Inactive)
REMARK    1  A    between atoms: C_1  and  C_2
REMARK    2  A    between atoms: C_2  and  C_3
REMARK    3  A    between atoms: C_4  and  C_23
REMARK    4  A    between atoms: C_5  and  O_14
REMARK    5  A    between atoms: N_6  and  C_8
REMARK    6  A    between atoms: O_14  and  C_15
REMARK    7  A    between atoms: C_23  and  N_24
REMARK    8  A    between atoms: N_24  and  C_25
REMARK    9  A    between atoms: N_24  and  C_29
REMARK   10  A    between atoms: C_25  and  C_26
REMARK   11  A    between atoms: C_26  and  O_27
REMARK   12  A    between atoms: O_27  and  C_28
REMARK   13  A    between atoms: C_29  and  C_30
REMARK   14  A    between atoms: C_30  and  C_32
REMARK   15  A    between atoms: C_30  and  O_36
REMARK   16  A    between atoms: C_32  and  C_33
REMARK   17  A    between atoms: C_33  and  C_34
REMARK                            x       y       z     vdW  Elec       q    Type
REMARK                         _______ _______ _______ _____ _____    ______ ____
ROOT
ATOM      1  C   UNL     1       0.944   0.358  -0.595  0.00  0.00    +0.068 A 
ATOM      2  C   UNL     1       0.402  -0.004  -1.832  0.00  0.00    +0.021 A 
ATOM      3  C   UNL     1       1.428  -0.127  -2.717  0.00  0.00    +0.225 A 
ATOM      4  N   UNL     1       2.579   0.149  -2.048  0.00  0.00    -0.200 N 
ATOM      5  N   UNL     1       2.242   0.455  -0.723  0.00  0.00    -0.168 NA
ENDROOT
BRANCH   4   6
ATOM      6  C   UNL     1       3.872   0.137  -2.589  0.00  0.00    +0.069 A 
ATOM      7  C   UNL     1       4.253  -0.877  -3.458  0.00  0.00    +0.028 A 
ATOM      8  C   UNL     1       5.527  -0.886  -3.990  0.00  0.00    +0.002 A 
ATOM      9  C   UNL     1       6.424   0.113  -3.658  0.00  0.00    +0.000 A 
ATOM     10  C   UNL     1       6.048   1.124  -2.793  0.00  0.00    +0.002 A 
ATOM     11  C   UNL     1       4.773   1.142  -2.262  0.00  0.00    +0.028 A 
ENDBRANCH   4   6
BRANCH   1  13
ATOM     12  C   UNL     1      -0.240   2.075   0.747  0.00  0.00    +0.010 C 
ATOM     13  C   UNL     1       0.163   0.601   0.671  0.00  0.00    +0.054 C 
ENDBRANCH   1  13
BRANCH   3  14
ATOM     14  O   UNL     1       1.322  -0.465  -4.027  0.00  0.00    -0.435 OA
BRANCH  14  15
ATOM     15  C   UNL     1       1.295  -1.787  -4.345  0.00  0.00    +0.166 A 
ATOM     16  C   UNL     1       1.268  -2.743  -3.340  0.00  0.00    +0.052 A 
ATOM     17  C   UNL     1       1.241  -4.085  -3.664  0.00  0.00    +0.042 A 
ATOM     18  C   UNL     1       1.240  -4.479  -4.992  0.00  0.00    +0.126 A 
ATOM     19  C   UNL     1       1.267  -3.527  -5.998  0.00  0.00    +0.080 A 
ATOM     20  C   UNL     1       1.289  -2.182  -5.677  0.00  0.00    +0.168 A 
ATOM     21  F   UNL     1       1.309  -1.253  -6.658  0.00  0.00    -0.202 F 
ATOM     22  F   UNL     1       1.214  -5.792  -5.307  0.00  0.00    -0.205 F 
ENDBRANCH  14  15
ENDBRANCH   3  14
BRANCH   2  23
ATOM     23  C   UNL     1      -1.059  -0.218  -2.133  0.00  0.00    -0.036 C 
BRANCH  23  24
ATOM     24  N   UNL     1      -1.661   1.050  -2.565  0.00  0.00    +0.386 N 
ATOM     25  H   UNL     1      -1.494   1.758  -1.866  0.00  0.00    -0.081 HD
BRANCH  24  26
ATOM     26  C   UNL     1      -1.060   1.469  -3.838  0.00  0.00    -0.050 C 
BRANCH  26  27
ATOM     27  C   UNL     1      -1.578   2.858  -4.215  0.00  0.00    +0.141 C 
BRANCH  27  28
ATOM     28  O   UNL     1      -1.151   3.807  -3.235  0.00  0.00    -0.385 OA
ATOM     29  C   UNL     1      -1.584   5.144  -3.494  0.00  0.00    +0.193 C 
ENDBRANCH  27  28
ENDBRANCH  26  27
ENDBRANCH  24  26
BRANCH  24  30
ATOM     30  C   UNL     1      -3.108   0.869  -2.743  0.00  0.00    -0.047 C 
BRANCH  30  31
ATOM     31  C   UNL     1      -3.756   0.579  -1.388  0.00  0.00    +0.098 C 
BRANCH  31  32
ATOM     32  O   UNL     1      -3.549   1.690  -0.513  0.00  0.00    -0.394 OA
ATOM     33  H   UNL     1      -3.988   2.503  -0.799  0.00  0.00    +0.210 HD
ENDBRANCH  31  32
BRANCH  31  34
ATOM     34  C   UNL     1      -5.257   0.353  -1.578  0.00  0.00    +0.033 C 
BRANCH  34  35
ATOM     35  C   UNL     1      -5.884  -0.060  -0.245  0.00  0.00    +0.029 C 
BRANCH  35  36
ATOM     36  C   UNL     1      -7.363  -0.283  -0.433  0.00  0.00    -0.034 C 
ATOM     37  C   UNL     1      -7.902  -1.425  -0.085  0.00  0.00    +0.004 C 
ENDBRANCH  35  36
ENDBRANCH  34  35
ENDBRANCH  31  34
ENDBRANCH  30  31
ENDBRANCH  24  30
ENDBRANCH  23  24
ENDBRANCH   2  23
TORSDOF 15
