REMARK  Name = ZINC15954866
REMARK  5 active torsions:
REMARK  status: ('A' for Active; 'I' for Inactive)
REMARK    1  A    between atoms: C_1  and  C_2
REMARK    2  A    between atoms: C_7  and  C_8
REMARK    3  A    between atoms: N_27  and  C_30
REMARK    4  A    between atoms: C_35  and  C_36
REMARK    5  A    between atoms: C_35  and  N_73
REMARK                            x       y       z     vdW  Elec       q    Type
REMARK                         _______ _______ _______ _____ _____    ______ ____
ROOT
ATOM      1  C   UNL     1       5.762   4.373  -8.947  0.00  0.00    +0.154 C 
ATOM      2  C   UNL     1       6.595   5.634  -8.947  0.00  0.00    +0.046 A 
ATOM      3  C   UNL     1       6.593   6.530  -7.936  0.00  0.00    -0.015 A 
ATOM      4  C   UNL     1       7.506   7.591  -8.307  0.00  0.00    +0.003 A 
ATOM      5  C   UNL     1       7.902   8.769  -7.666  0.00  0.00    +0.010 A 
ATOM      6  C   UNL     1       8.809   9.560  -8.326  0.00  0.00    +0.001 A 
ATOM      7  C   UNL     1       9.316   9.219  -9.569  0.00  0.00    +0.002 A 
ATOM      8  C   UNL     1       8.941   8.060 -10.227  0.00  0.00    +0.026 A 
ATOM      9  C   UNL     1       8.021   7.237  -9.581  0.00  0.00    +0.047 A 
ATOM     10  N   UNL     1       7.449   6.049  -9.934  0.00  0.00    -0.356 N 
ATOM     11  H   UNL     1       7.621   5.571 -10.761  0.00  0.00    +0.166 HD
ATOM     12  C   UNL     1       5.777   6.398  -6.675  0.00  0.00    +0.069 C 
ATOM     13  C   UNL     1       4.663   5.368  -6.910  0.00  0.00    +0.167 C 
ATOM     14  N   UNL     1       5.227   4.196  -7.580  0.00  0.00    -0.276 N 
ATOM     15  C   UNL     1       5.280   2.988  -7.015  0.00  0.00    +0.234 C 
ATOM     16  O   UNL     1       5.831   2.100  -7.630  0.00  0.00    -0.274 OA
ATOM     17  C   UNL     1       4.706   2.656  -5.676  0.00  0.00    +0.204 C 
ATOM     18  N   UNL     1       4.050   3.800  -5.064  0.00  0.00    -0.288 N 
ATOM     19  C   UNL     1       4.017   5.014  -5.610  0.00  0.00    +0.237 C 
ATOM     20  O   UNL     1       3.430   5.890  -5.011  0.00  0.00    -0.274 OA
ENDROOT
BRANCH   1  27
ATOM     21  C   UNL     1       4.342   2.023  -9.847  0.00  0.00    +0.044 C 
ATOM     22  C   UNL     1       3.947   3.385 -10.359  0.00  0.00    -0.045 A 
ATOM     23  C   UNL     1       2.905   3.510 -11.259  0.00  0.00    +0.004 A 
ATOM     24  C   UNL     1       2.543   4.758 -11.727  0.00  0.00    +0.000 A 
ATOM     25  C   UNL     1       3.222   5.882 -11.297  0.00  0.00    +0.000 A 
ATOM     26  C   UNL     1       4.261   5.758 -10.393  0.00  0.00    +0.006 A 
ATOM     27  C   UNL     1       4.627   4.509  -9.928  0.00  0.00    -0.018 A 
ENDBRANCH   1  27
BRANCH  18  28
ATOM     28  C   UNL     1       3.380   3.604  -3.776  0.00  0.00    +0.073 C 
ATOM     29  C   UNL     1       4.399   3.130  -2.736  0.00  0.00    +0.004 C 
ATOM     30  C   UNL     1       3.683   2.869  -1.409  0.00  0.00    -0.077 C 
ATOM     31  C   UNL     1       1.629   2.300  -2.563  0.00  0.00    -0.077 C 
ATOM     32  C   UNL     1       2.284   2.544  -3.925  0.00  0.00    +0.004 C 
ATOM     33  N   UNL     1       2.658   1.823  -1.615  0.00  0.00    +0.382 N 
ATOM     34  H   UNL     1       3.109   0.987  -2.005  0.00  0.00    -0.081 HD
BRANCH  33  35
ATOM     35  C   UNL     1       2.030   1.471  -0.325  0.00  0.00    -0.043 C 
BRANCH  35  36
ATOM     36  C   UNL     1       0.817   0.616  -0.583  0.00  0.00    -0.064 A 
ATOM     37  C   UNL     1      -0.424   1.205  -0.739  0.00  0.00    +0.002 A 
ATOM     38  C   UNL     1      -1.537   0.421  -0.977  0.00  0.00    +0.000 A 
ATOM     39  C   UNL     1      -1.409  -0.954  -1.057  0.00  0.00    +0.000 A 
ATOM     40  C   UNL     1      -0.169  -1.543  -0.899  0.00  0.00    +0.000 A 
ATOM     41  C   UNL     1       0.944  -0.758  -0.662  0.00  0.00    +0.002 A 
ENDBRANCH  35  36
ENDBRANCH  33  35
ENDBRANCH  18  28
TORSDOF 4
