REMARK  Name = ZINC02220986
REMARK  9 active torsions:
REMARK  status: ('A' for Active; 'I' for Inactive)
REMARK    1  A    between atoms: C_1  and  C_2
REMARK    2  A    between atoms: C_2  and  C_3
REMARK    3  A    between atoms: C_2  and  C_4
REMARK    4  A    between atoms: C_9  and  N_10
REMARK    5  A    between atoms: C_11  and  C_13
REMARK    6  A    between atoms: C_13  and  S_14
REMARK    7  A    between atoms: S_14  and  C_15
REMARK    8  A    between atoms: N_28  and  C_29
REMARK    9  A    between atoms: C_29  and  C_30
REMARK                            x       y       z     vdW  Elec       q    Type
REMARK                         _______ _______ _______ _____ _____    ______ ____
ROOT
ATOM      1  C   UNL     1      -0.000  -0.003  -0.026  0.00  0.00    +0.173 A 
ATOM      2  N   UNL     1       1.140  -0.664  -0.044  0.00  0.00    -0.216 NA
ATOM      3  C   UNL     1       2.300  -0.018  -0.060  0.00  0.00    +0.117 A 
ATOM      4  C   UNL     1       2.374   1.385  -0.059  0.00  0.00    +0.076 A 
ATOM      5  C   UNL     1       3.723   1.954  -0.078  0.00  0.00    -0.023 A 
ATOM      6  C   UNL     1       4.754   1.084  -0.094  0.00  0.00    -0.004 A 
ATOM      7  S   UNL     1       4.002  -0.521  -0.086  0.00  0.00    -0.073 S 
ATOM      8  C   UNL     1       6.216   1.410  -0.114  0.00  0.00    +0.043 C 
ATOM      9  C   UNL     1       6.378   2.891  -0.488  0.00  0.00    +0.005 C 
ATOM     10  C   UNL     1       5.413   3.721   0.364  0.00  0.00    +0.005 C 
ATOM     11  C   UNL     1       3.973   3.459  -0.079  0.00  0.00    +0.037 C 
ATOM     12  C   UNL     1       1.121   2.076  -0.040  0.00  0.00    +0.264 A 
ATOM     13  O   UNL     1       1.087   3.294  -0.038  0.00  0.00    -0.267 OA
ATOM     14  N   UNL     1      -0.019   1.362  -0.024  0.00  0.00    -0.280 N 
ENDROOT
BRANCH   1  15
ATOM     15  S   UNL     1      -1.520  -0.893  -0.004  0.00  0.00    -0.078 S 
BRANCH  15  16
ATOM     16  C   UNL     1      -0.891  -2.591  -0.016  0.00  0.00    +0.173 C 
BRANCH  16  18
ATOM     17  N   UNL     1      -1.818  -4.884  -0.006  0.00  0.00    -0.285 N 
ATOM     18  C   UNL     1      -2.048  -3.556   0.000  0.00  0.00    +0.227 C 
ATOM     19  O   UNL     1      -3.187  -3.137   0.018  0.00  0.00    -0.275 OA
ATOM     20  H   UNL     1      -0.912  -5.218  -0.087  0.00  0.00    +0.155 HD
BRANCH  17  26
ATOM     21  C   UNL     1      -2.727  -6.972   0.798  0.00  0.00    -0.024 A 
ATOM     22  C   UNL     1      -3.785  -7.854   0.906  0.00  0.00    +0.006 A 
ATOM     23  C   UNL     1      -5.002  -7.550   0.326  0.00  0.00    +0.000 A 
ATOM     24  C   UNL     1      -5.165  -6.363  -0.364  0.00  0.00    +0.002 A 
ATOM     25  C   UNL     1      -4.114  -5.475  -0.472  0.00  0.00    +0.023 A 
ATOM     26  C   UNL     1      -2.888  -5.779   0.106  0.00  0.00    +0.037 A 
BRANCH  21  28
ATOM     27  C   UNL     1      -1.606  -7.598   2.920  0.00  0.00    +0.012 C 
ATOM     28  C   UNL     1      -1.401  -7.303   1.433  0.00  0.00    +0.015 C 
ATOM     29  C   UNL     1      -0.801  -8.533   0.747  0.00  0.00    +0.012 C 
ENDBRANCH  21  28
ENDBRANCH  17  26
ENDBRANCH  16  18
ENDBRANCH  15  16
ENDBRANCH   1  15
BRANCH  14  30
ATOM     30  C   UNL     1      -1.306   2.062  -0.009  0.00  0.00    +0.201 C 
BRANCH  30  31
ATOM     31  C   UNL     1      -1.732   2.300   1.416  0.00  0.00    +0.125 A 
ATOM     32  C   UNL     1      -1.429   3.380   2.158  0.00  0.00    +0.046 A 
ATOM     33  C   UNL     1      -2.031   3.190   3.423  0.00  0.00    +0.041 A 
ATOM     34  C   UNL     1      -2.660   2.002   3.381  0.00  0.00    +0.195 A 
ATOM     35  O   UNL     1      -2.475   1.467   2.163  0.00  0.00    -0.466 OA
ENDBRANCH  30  31
ENDBRANCH  14  30
TORSDOF 7
