REMARK  Name = ZINC38828964
REMARK  7 active torsions:
REMARK  status: ('A' for Active; 'I' for Inactive)
REMARK    1  A    between atoms: C_1  and  C_2
REMARK    2  A    between atoms: C_2  and  O_3
REMARK    3  A    between atoms: O_3  and  C_4
REMARK    4  A    between atoms: C_4  and  C_5
REMARK    5  A    between atoms: C_5  and  N_6
REMARK    6  A    between atoms: N_15  and  C_16
REMARK    7  A    between atoms: C_16  and  C_18
REMARK                            x       y       z     vdW  Elec       q    Type
REMARK                         _______ _______ _______ _____ _____    ______ ____
ROOT
ATOM      1  N   UNL     1       2.868  -1.809  -2.493  0.00  0.00    -0.319 N 
ATOM      2  C   UNL     1       3.208  -0.545  -2.939  0.00  0.00    +0.058 A 
ATOM      3  C   UNL     1       2.388   0.449  -3.492  0.00  0.00    +0.030 A 
ATOM      4  C   UNL     1       2.917   1.658  -3.881  0.00  0.00    +0.040 A 
ATOM      5  C   UNL     1       4.269   1.929  -3.737  0.00  0.00    +0.125 A 
ATOM      6  C   UNL     1       5.100   0.963  -3.192  0.00  0.00    +0.055 A 
ATOM      7  C   UNL     1       4.571  -0.245  -2.804  0.00  0.00    +0.042 A 
ATOM      8  S   UNL     1       5.239  -1.722  -2.084  0.00  0.00    -0.052 S 
ATOM      9  C   UNL     1       3.824  -2.623  -1.980  0.00  0.00    +0.167 A 
ATOM     10  N   UNL     1       3.676  -3.858  -1.503  0.00  0.00    -0.156 NA
ATOM     11  F   UNL     1       4.771   3.122  -4.124  0.00  0.00    -0.205 F 
ENDROOT
BRANCH  10  12
ATOM     12  C   UNL     1       4.728  -4.520  -1.034  0.00  0.00    +0.245 C 
ATOM     13  O   UNL     1       5.827  -3.998  -1.041  0.00  0.00    -0.273 OA
BRANCH  12  14
ATOM     14  C   UNL     1       4.560  -5.917  -0.495  0.00  0.00    +0.050 C 
ATOM     15  C   UNL     1       4.012  -6.826  -1.597  0.00  0.00    +0.019 C 
ATOM     16  C   UNL     1       3.841  -8.245  -1.049  0.00  0.00    -0.009 C 
ATOM     17  C   UNL     1       5.197  -8.775  -0.577  0.00  0.00    +0.007 C 
ATOM     18  C   UNL     1       5.745  -7.866   0.525  0.00  0.00    -0.009 C 
ATOM     19  C   UNL     1       5.915  -6.447  -0.023  0.00  0.00    +0.019 C 
ATOM     20  C   UNL     1       4.767  -7.844   1.702  0.00  0.00    +0.007 C 
ATOM     21  C   UNL     1       3.412  -7.313   1.229  0.00  0.00    -0.009 C 
ATOM     22  C   UNL     1       2.864  -8.223   0.128  0.00  0.00    +0.007 C 
ATOM     23  C   UNL     1       3.583  -5.895   0.682  0.00  0.00    +0.019 C 
ENDBRANCH  12  14
ENDBRANCH  10  12
BRANCH   1  24
ATOM     24  C   UNL     1       1.478  -2.265  -2.569  0.00  0.00    +0.152 C 
BRANCH  24  25
ATOM     25  C   UNL     1       0.746  -1.888  -1.280  0.00  0.00    +0.181 C 
BRANCH  25  26
ATOM     26  O   UNL     1       0.671  -0.465  -1.174  0.00  0.00    -0.378 OA
BRANCH  26  28
ATOM     27  C   UNL     1      -0.019   1.526   0.010  0.00  0.00    +0.034 C 
ATOM     28  C   UNL     1       0.002  -0.004   0.002  0.00  0.00    +0.156 C 
ENDBRANCH  26  28
ENDBRANCH  25  26
ENDBRANCH  24  25
ENDBRANCH   1  24
TORSDOF 6
