REMARK  Name = ZINC24850447
REMARK  15 active torsions:
REMARK  status: ('A' for Active; 'I' for Inactive)
REMARK    1  A    between atoms: C_1  and  C_2
REMARK    2  A    between atoms: C_2  and  O_3
REMARK    3  A    between atoms: O_3  and  C_4
REMARK    4  A    between atoms: C_11  and  C_18
REMARK    5  A    between atoms: C_13  and  O_14
REMARK    6  A    between atoms: C_18  and  O_19
REMARK    7  A    between atoms: O_19  and  C_20
REMARK    8  A    between atoms: C_20  and  C_22
REMARK    9  A    between atoms: C_23  and  C_24
REMARK   10  A    between atoms: C_26  and  O_34
REMARK   11  A    between atoms: C_27  and  O_32
REMARK   12  A    between atoms: C_29  and  O_30
REMARK   13  A    between atoms: O_30  and  C_31
REMARK   14  A    between atoms: O_32  and  C_33
REMARK   15  A    between atoms: O_34  and  C_35
REMARK                            x       y       z     vdW  Elec       q    Type
REMARK                         _______ _______ _______ _____ _____    ______ ____
ROOT
ATOM      1  C   UNL     1      -7.945  12.389  -0.385  0.00  0.00    +0.405 C 
ATOM      2  O   UNL     1      -6.908  12.735  -0.915  0.00  0.00    -0.226 OA
ATOM      3  N   UNL     1      -8.069  11.139   0.102  0.00  0.00    -0.251 N 
ATOM      4  C   UNL     1      -6.972  10.277   0.098  0.00  0.00    +0.040 A 
ATOM      5  C   UNL     1      -7.168   8.909  -0.092  0.00  0.00    +0.024 A 
ATOM      6  C   UNL     1      -6.105   8.053  -0.099  0.00  0.00    +0.014 A 
ATOM      7  C   UNL     1      -4.809   8.552   0.081  0.00  0.00    +0.024 A 
ATOM      8  C   UNL     1      -3.651   7.656   0.085  0.00  0.00    +0.007 A 
ATOM      9  C   UNL     1      -2.419   8.200   0.269  0.00  0.00    +0.095 A 
ATOM     10  C   UNL     1      -2.288   9.591   0.455  0.00  0.00    +0.285 A 
ATOM     11  O   UNL     1      -3.354  10.406   0.456  0.00  0.00    -0.425 OA
ATOM     12  C   UNL     1      -4.605   9.930   0.278  0.00  0.00    +0.141 A 
ATOM     13  C   UNL     1      -5.696  10.786   0.282  0.00  0.00    +0.070 A 
ATOM     14  H   UNL     1      -9.035  10.798   0.503  0.00  0.00    +0.158 HD
ENDROOT
BRANCH  10  15
ATOM     15  O   UNL     1      -1.178  10.065   0.619  0.00  0.00    -0.480 OA
ATOM     16  H   UNL     1      -1.059  11.149   0.765  0.00  0.00    +0.295 HD
ENDBRANCH  10  15
BRANCH   1  17
ATOM     17  O   UNL     1      -8.971  13.256  -0.284  0.00  0.00    -0.450 OA
BRANCH  17  19
ATOM     18  C   UNL     1     -10.031  15.421  -0.624  0.00  0.00    +0.048 C 
ATOM     19  C   UNL     1      -8.767  14.586  -0.830  0.00  0.00    +0.230 C 
ENDBRANCH  17  19
ENDBRANCH   1  17
BRANCH   8  20
ATOM     20  C   UNL     1      -3.820   6.172  -0.117  0.00  0.00    +0.268 C 
BRANCH  20  21
ATOM     21  O   UNL     1      -2.540   5.537  -0.075  0.00  0.00    -0.457 OA
BRANCH  21  22
ATOM     22  C   UNL     1      -2.515   4.198  -0.239  0.00  0.00    +0.332 C 
ATOM     23  O   UNL     1      -3.553   3.587  -0.414  0.00  0.00    -0.246 OA
BRANCH  22  24
ATOM     24  C   UNL     1      -1.282   3.504  -0.209  0.00  0.00    +0.092 C 
ATOM     25  C   UNL     1      -1.256   2.161  -0.374  0.00  0.00    +0.018 C 
BRANCH  25  26
ATOM     26  C   UNL     1       0.022   1.442  -0.343  0.00  0.00    +0.021 A 
ATOM     27  C   UNL     1       1.219   2.144  -0.148  0.00  0.00    +0.061 A 
ATOM     28  C   UNL     1       2.418   1.464  -0.125  0.00  0.00    +0.162 A 
ATOM     29  C   UNL     1       2.442   0.078  -0.295  0.00  0.00    +0.165 A 
ATOM     30  C   UNL     1       1.262  -0.623  -0.489  0.00  0.00    +0.095 A 
ATOM     31  C   UNL     1       0.051   0.048  -0.514  0.00  0.00    +0.131 A 
BRANCH  31  32
ATOM     32  O   UNL     1      -1.104  -0.639  -0.704  0.00  0.00    -0.494 OA
ATOM     33  C   UNL     1      -0.997  -2.054  -0.871  0.00  0.00    +0.277 C 
ENDBRANCH  31  32
BRANCH  29  34
ATOM     34  O   UNL     1       3.626  -0.586  -0.271  0.00  0.00    -0.491 OA
ATOM     35  C   UNL     1       3.579  -2.002  -0.451  0.00  0.00    +0.277 C 
ENDBRANCH  29  34
BRANCH  28  36
ATOM     36  O   UNL     1       3.581   2.144   0.066  0.00  0.00    -0.491 OA
ATOM     37  C   UNL     1       3.484   3.560   0.233  0.00  0.00    +0.277 C 
ENDBRANCH  28  36
ENDBRANCH  25  26
ENDBRANCH  22  24
ENDBRANCH  21  22
ENDBRANCH  20  21
ENDBRANCH   8  20
TORSDOF 11
