REMARK  Name = ZINC39790140
REMARK  7 active torsions:
REMARK  status: ('A' for Active; 'I' for Inactive)
REMARK    1  A    between atoms: C_1  and  C_2
REMARK    2  A    between atoms: C_4  and  C_36
REMARK    3  A    between atoms: C_8  and  C_12
REMARK    4  A    between atoms: C_12  and  C_14
REMARK    5  A    between atoms: C_12  and  S_15
REMARK    6  A    between atoms: S_15  and  C_16
REMARK    7  A    between atoms: N_27  and  C_28
REMARK                            x       y       z     vdW  Elec       q    Type
REMARK                         _______ _______ _______ _____ _____    ______ ____
ROOT
ATOM      1  C   UNL     1      -4.041  -5.423   6.097  0.00  0.00    +0.227 C 
ATOM      2  N   UNL     1      -4.040  -4.522   7.256  0.00  0.00    -0.316 N 
ATOM      3  C   UNL     1      -2.834  -3.973   7.676  0.00  0.00    +0.041 A 
ATOM      4  C   UNL     1      -2.774  -2.744   8.310  0.00  0.00    +0.024 A 
ATOM      5  C   UNL     1      -1.553  -2.244   8.719  0.00  0.00    +0.002 A 
ATOM      6  C   UNL     1      -0.388  -2.962   8.499  0.00  0.00    +0.001 A 
ATOM      7  C   UNL     1      -0.429  -4.186   7.865  0.00  0.00    +0.015 A 
ATOM      8  C   UNL     1      -1.653  -4.701   7.443  0.00  0.00    +0.058 A 
ATOM      9  C   UNL     1      -1.747  -5.992   6.740  0.00  0.00    +0.255 C 
ATOM     10  O   UNL     1      -0.778  -6.722   6.666  0.00  0.00    -0.269 OA
ATOM     11  N   UNL     1      -2.915  -6.353   6.180  0.00  0.00    -0.236 N 
ATOM     12  H   UNL     1      -4.866  -4.314   7.720  0.00  0.00    +0.149 HD
ENDROOT
BRANCH  11  13
ATOM     13  C   UNL     1      -3.053  -7.647   5.665  0.00  0.00    +0.074 A 
ATOM     14  C   UNL     1      -2.722  -7.909   4.342  0.00  0.00    +0.026 A 
ATOM     15  C   UNL     1      -2.860  -9.187   3.837  0.00  0.00    +0.002 A 
ATOM     16  C   UNL     1      -3.327 -10.206   4.645  0.00  0.00    +0.003 A 
ATOM     17  C   UNL     1      -3.659  -9.951   5.963  0.00  0.00    +0.040 A 
ATOM     18  C   UNL     1      -3.518  -8.675   6.478  0.00  0.00    +0.145 A 
ATOM     19  F   UNL     1      -3.836  -8.427   7.767  0.00  0.00    -0.204 F 
ENDBRANCH  11  13
BRANCH   1  20
ATOM     20  S   UNL     1      -3.901  -4.444   4.576  0.00  0.00    -0.108 S 
BRANCH  20  21
ATOM     21  C   UNL     1      -5.555  -3.730   4.359  0.00  0.00    +0.112 C 
ATOM     22  C   UNL     1      -5.817  -2.705   5.464  0.00  0.00    +0.027 C 
BRANCH  21  29
ATOM     23  C   UNL     1      -8.094  -1.038  -1.962  0.00  0.00    +0.024 C 
ATOM     24  C   UNL     1      -7.313  -0.450  -0.785  0.00  0.00    +0.076 C 
ATOM     25  C   UNL     1      -5.995  -1.167  -0.599  0.00  0.00    -0.045 C 
ATOM     26  C   UNL     1      -5.793  -1.812   0.560  0.00  0.00    +0.071 C 
ATOM     27  C   UNL     1      -6.877  -1.772   1.565  0.00  0.00    +0.111 C 
ATOM     28  N   UNL     1      -6.741  -2.385   2.717  0.00  0.00    -0.226 NA
ATOM     29  C   UNL     1      -5.638  -3.053   3.016  0.00  0.00    +0.136 C 
ATOM     30  N   UNL     1      -4.613  -3.157   2.204  0.00  0.00    -0.160 NA
ATOM     31  C   UNL     1      -4.590  -2.592   0.992  0.00  0.00    +0.271 C 
ATOM     32  O   UNL     1      -3.620  -2.708   0.262  0.00  0.00    -0.268 OA
ATOM     33  S   UNL     1      -8.159  -0.802   0.809  0.00  0.00    -0.098 S 
ATOM     34  C   UNL     1      -4.943  -1.157  -1.678  0.00  0.00    +0.041 C 
ENDBRANCH  21  29
ENDBRANCH  20  21
ENDBRANCH   1  20
TORSDOF 4
