REMARK  Name = ZINC49269417
REMARK  4 active torsions:
REMARK  status: ('A' for Active; 'I' for Inactive)
REMARK    1  A    between atoms: C_3  and  C_6
REMARK    2  A    between atoms: C_6  and  N_7
REMARK    3  A    between atoms: N_10  and  N_11
REMARK    4  A    between atoms: N_11  and  C_12
REMARK                            x       y       z     vdW  Elec       q    Type
REMARK                         _______ _______ _______ _____ _____    ______ ____
ROOT
ATOM      1  N   UNL     1       4.101   0.607   1.347  0.00  0.00    -0.291 N 
ATOM      2  C   UNL     1       5.428   0.575   1.580  0.00  0.00    +0.316 C 
ATOM      3  O   UNL     1       6.208   0.561   0.648  0.00  0.00    -0.251 OA
ATOM      4  N   UNL     1       5.889   0.557   2.846  0.00  0.00    -0.220 N 
ATOM      5  H   UNL     1       3.478   0.617   2.090  0.00  0.00    +0.151 HD
ATOM      6  H   UNL     1       6.845   0.534   3.014  0.00  0.00    +0.174 HD
ENDROOT
BRANCH   4   7
ATOM      7  N   UNL     1       4.990   0.573   3.920  0.00  0.00    -0.262 N 
ATOM      8  H   UNL     1       4.035   0.596   3.752  0.00  0.00    +0.170 HD
BRANCH   7   9
ATOM      9  C   UNL     1       5.469   0.555   5.234  0.00  0.00    +0.059 A 
ATOM     10  C   UNL     1       6.836   0.528   5.475  0.00  0.00    +0.028 A 
ATOM     11  C   UNL     1       7.307   0.511   6.774  0.00  0.00    +0.040 A 
ATOM     12  C   UNL     1       6.417   0.522   7.835  0.00  0.00    +0.125 A 
ATOM     13  C   UNL     1       5.054   0.549   7.597  0.00  0.00    +0.055 A 
ATOM     14  C   UNL     1       4.578   0.571   6.300  0.00  0.00    +0.043 A 
ATOM     15 BR   UNL     1       2.715   0.616   5.975  0.00  0.00    -0.048 Br
ATOM     16  F   UNL     1       6.880   0.505   9.104  0.00  0.00    -0.205 F 
ENDBRANCH   7   9
ENDBRANCH   4   7
BRANCH   1  17
ATOM     17  C   UNL     1       3.599   0.625  -0.029  0.00  0.00    +0.180 C 
BRANCH  17  20
ATOM     18  C   UNL     1      -0.016   1.341   0.009  0.00  0.00    +0.041 A 
ATOM     19  C   UNL     1       1.331   1.769  -0.001  0.00  0.00    +0.046 A 
ATOM     20  C   UNL     1       2.092   0.660  -0.014  0.00  0.00    +0.122 A 
ATOM     21  O   UNL     1       1.282  -0.411  -0.012  0.00  0.00    -0.466 OA
ATOM     22  C   UNL     1       0.002  -0.004   0.002  0.00  0.00    +0.195 A 
ENDBRANCH  17  20
ENDBRANCH   1  17
TORSDOF 4
