REMARK  Name = ZINC20484930
REMARK  9 active torsions:
REMARK  status: ('A' for Active; 'I' for Inactive)
REMARK    1  A    between atoms: C_1  and  N_2
REMARK    2  A    between atoms: C_5  and  C_7
REMARK    3  A    between atoms: N_9  and  C_10
REMARK    4  A    between atoms: C_10  and  C_11
REMARK    5  A    between atoms: C_11  and  C_12
REMARK    6  A    between atoms: C_12  and  N_13
REMARK    7  A    between atoms: N_13  and  C_14
REMARK    8  A    between atoms: N_13  and  C_20
REMARK    9  A    between atoms: C_14  and  C_15
REMARK                            x       y       z     vdW  Elec       q    Type
REMARK                         _______ _______ _______ _____ _____    ______ ____
ROOT
ATOM      1  C   UNL     1       3.688   6.938   2.104  0.00  0.00    +0.265 C 
ATOM      2  O   UNL     1       2.782   7.518   2.671  0.00  0.00    -0.268 OA
ATOM      3  N   UNL     1       4.772   7.624   1.690  0.00  0.00    -0.310 N 
ATOM      4  H   UNL     1       5.592   7.099   1.177  0.00  0.00    +0.149 HD
ENDROOT
BRANCH   1   9
ATOM      5  C   UNL     1       4.875   2.388   0.639  0.00  0.00    +0.173 C 
ATOM      6  N   UNL     1       4.117   3.494   1.228  0.00  0.00    -0.266 N 
ATOM      7  C   UNL     1       2.912   3.383   1.810  0.00  0.00    +0.079 A 
ATOM      8  C   UNL     1       2.550   4.646   2.237  0.00  0.00    +0.047 A 
ATOM      9  C   UNL     1       3.601   5.482   1.869  0.00  0.00    +0.154 A 
ATOM     10  N   UNL     1       4.508   4.725   1.269  0.00  0.00    -0.166 NA
ATOM     11  C   UNL     1       1.249   4.891   2.946  0.00  0.00    +0.269 C 
ATOM     12  O   UNL     1       0.306   3.889   2.556  0.00  0.00    -0.487 OA
ATOM     13  C   UNL     1       0.684   2.591   2.451  0.00  0.00    +0.130 A 
ATOM     14  C   UNL     1       1.991   2.256   2.049  0.00  0.00    +0.042 A 
ATOM     15  C   UNL     1       2.370   0.931   1.910  0.00  0.00    +0.013 A 
ATOM     16  C   UNL     1       1.455  -0.071   2.176  0.00  0.00    +0.001 A 
ATOM     17  C   UNL     1       0.171   0.252   2.579  0.00  0.00    +0.004 A 
ATOM     18  C   UNL     1      -0.213   1.572   2.723  0.00  0.00    +0.046 A 
ENDBRANCH   1   9
BRANCH   3  19
ATOM     19  C   UNL     1       4.858   9.068   1.923  0.00  0.00    +0.103 C 
BRANCH  19  20
ATOM     20  C   UNL     1       6.179   9.597   1.360  0.00  0.00    +0.000 C 
BRANCH  20  21
ATOM     21  C   UNL     1       6.269  11.105   1.603  0.00  0.00    -0.076 C 
BRANCH  21  22
ATOM     22  N   UNL     1       7.602  11.585   1.213  0.00  0.00    +0.386 N 
ATOM     23  H   UNL     1       8.348  11.006   1.778  0.00  0.00    -0.081 HD
BRANCH  22  24
ATOM     24  C   UNL     1       7.845  11.359  -0.218  0.00  0.00    -0.068 C 
ATOM     25  C   UNL     1       6.505  11.309  -0.980  0.00  0.00    -0.015 C 
ATOM     26  C   UNL     1       6.722  10.221  -2.060  0.00  0.00    -0.002 C 
ATOM     27  C   UNL     1       7.568   9.161  -1.312  0.00  0.00    -0.002 C 
ATOM     28  C   UNL     1       8.521   9.993  -0.429  0.00  0.00    -0.015 C 
ENDBRANCH  22  24
BRANCH  22  29
ATOM     29  C   UNL     1       7.773  13.002   1.559  0.00  0.00    -0.003 C 
BRANCH  29  30
ATOM     30  C   UNL     1       9.229  13.374   1.448  0.00  0.00    +0.089 A 
ATOM     31  C   UNL     1       9.813  13.956   0.386  0.00  0.00    +0.042 A 
ATOM     32  C   UNL     1      11.179  14.125   0.711  0.00  0.00    +0.041 A 
ATOM     33  C   UNL     1      11.349  13.629   1.949  0.00  0.00    +0.195 A 
ATOM     34  O   UNL     1      10.165  13.175   2.391  0.00  0.00    -0.470 OA
ENDBRANCH  29  30
ENDBRANCH  22  29
ENDBRANCH  21  22
ENDBRANCH  20  21
ENDBRANCH  19  20
ENDBRANCH   3  19
TORSDOF 8
