REMARK  Name = ZINC37224355
REMARK  6 active torsions:
REMARK  status: ('A' for Active; 'I' for Inactive)
REMARK    1  A    between atoms: C_1  and  C_2
REMARK    2  A    between atoms: C_15  and  C_17
REMARK    3  A    between atoms: C_17  and  N_18
REMARK    4  A    between atoms: C_22  and  C_24
REMARK    5  A    between atoms: C_27  and  O_30
REMARK    6  A    between atoms: O_30  and  C_31
REMARK                            x       y       z     vdW  Elec       q    Type
REMARK                         _______ _______ _______ _____ _____    ______ ____
ROOT
ATOM      1  C   UNL     1      -0.019   1.526   0.010  0.00  0.00    +0.029 C 
ATOM      2  C   UNL     1       0.002  -0.004   0.002  0.00  0.00    +0.087 C 
ATOM      3  C   UNL     1      -1.433  -0.532   0.009  0.00  0.00    +0.118 C 
ATOM      4  C   UNL     1      -1.448  -1.987   0.396  0.00  0.00    +0.219 C 
ATOM      5  O   UNL     1      -1.623  -2.835  -0.454  0.00  0.00    -0.275 OA
ATOM      6  N   UNL     1      -1.268  -2.354   1.683  0.00  0.00    -0.284 N 
ATOM      7  C   UNL     1      -0.970  -1.397   2.659  0.00  0.00    +0.055 A 
ATOM      8  C   UNL     1      -1.673  -1.354   3.851  0.00  0.00    +0.025 A 
ATOM      9  C   UNL     1      -1.345  -0.414   4.811  0.00  0.00    +0.002 A 
ATOM     10  C   UNL     1      -0.316   0.482   4.584  0.00  0.00    +0.002 A 
ATOM     11  C   UNL     1       0.385   0.452   3.393  0.00  0.00    +0.025 A 
ATOM     12  C   UNL     1       0.054  -0.479   2.422  0.00  0.00    +0.058 A 
ATOM     13  N   UNL     1       0.714  -0.487   1.187  0.00  0.00    -0.268 N 
ATOM     14  C   UNL     1       1.982  -0.932   1.091  0.00  0.00    +0.204 C 
ATOM     15  O   UNL     1       2.545  -0.934   0.017  0.00  0.00    -0.277 OA
ATOM     16  H   UNL     1      -1.347  -3.288   1.933  0.00  0.00    +0.155 HD
ENDROOT
BRANCH  14  17
ATOM     17  C   UNL     1       2.702  -1.427   2.320  0.00  0.00    +0.020 C 
BRANCH  17  18
ATOM     18  N   UNL     1       4.059  -1.853   1.954  0.00  0.00    +0.390 N 
ATOM     19  C   UNL     1       4.845  -0.682   1.510  0.00  0.00    -0.077 C 
ATOM     20  C   UNL     1       5.623  -0.227   2.770  0.00  0.00    -0.020 C 
ATOM     21  C   UNL     1       5.969  -1.587   3.433  0.00  0.00    -0.013 C 
ATOM     22  C   UNL     1       4.725  -2.448   3.127  0.00  0.00    -0.037 C 
ATOM     23  H   UNL     1       4.014  -2.531   1.208  0.00  0.00    -0.080 HD
BRANCH  22  24
ATOM     24  C   UNL     1       5.145  -3.862   2.815  0.00  0.00    -0.061 A 
ATOM     25  C   UNL     1       5.673  -4.167   1.575  0.00  0.00    +0.005 A 
ATOM     26  C   UNL     1       6.059  -5.462   1.286  0.00  0.00    +0.046 A 
ATOM     27  C   UNL     1       5.915  -6.457   2.243  0.00  0.00    +0.120 A 
ATOM     28  C   UNL     1       5.385  -6.147   3.488  0.00  0.00    +0.046 A 
ATOM     29  C   UNL     1       5.006  -4.850   3.773  0.00  0.00    +0.005 A 
BRANCH  27  30
ATOM     30  O   UNL     1       6.293  -7.731   1.962  0.00  0.00    -0.495 OA
ATOM     31  C   UNL     1       6.116  -8.703   2.995  0.00  0.00    +0.277 C 
ENDBRANCH  27  30
ENDBRANCH  22  24
ENDBRANCH  17  18
ENDBRANCH  14  17
TORSDOF 4
