REMARK  Name = ZINC53437606
REMARK  8 active torsions:
REMARK  status: ('A' for Active; 'I' for Inactive)
REMARK    1  A    between atoms: C_1  and  C_2
REMARK    2  A    between atoms: C_3  and  C_7
REMARK    3  A    between atoms: C_10  and  S_13
REMARK    4  A    between atoms: N_11  and  N_12
REMARK    5  A    between atoms: S_13  and  C_14
REMARK    6  A    between atoms: C_14  and  C_15
REMARK    7  A    between atoms: N_17  and  C_18
REMARK    8  A    between atoms: C_18  and  C_19
REMARK                            x       y       z     vdW  Elec       q    Type
REMARK                         _______ _______ _______ _____ _____    ______ ____
ROOT
ATOM      1  S   UNL     1      -6.385  -0.906   0.039  0.00  0.00    -0.075 S 
ENDROOT
BRANCH   1   5
ATOM      2  C   UNL     1      -2.510  -0.400   0.013  0.00  0.00    +0.185 A 
ATOM      3  N   UNL     1      -2.963   0.832   0.017  0.00  0.00    -0.127 NA
ATOM      4  N   UNL     1      -4.248   0.828   0.025  0.00  0.00    -0.121 NA
ATOM      5  C   UNL     1      -4.695  -0.406   0.027  0.00  0.00    +0.209 A 
ATOM      6  N   UNL     1      -3.605  -1.232   0.013  0.00  0.00    -0.224 N 
BRANCH   2   9
ATOM      7  C   UNL     1      -0.018   1.503   0.010  0.00  0.00    +0.087 C 
ATOM      8  C   UNL     1       0.002  -0.004   0.002  0.00  0.00    +0.112 A 
ATOM      9  C   UNL     1      -1.091  -0.815   0.003  0.00  0.00    +0.061 A 
ATOM     10  C   UNL     1      -0.568  -2.187  -0.008  0.00  0.00    +0.053 A 
ATOM     11  C   UNL     1       0.770  -2.074  -0.014  0.00  0.00    +0.196 A 
ATOM     12  O   UNL     1       1.100  -0.773  -0.013  0.00  0.00    -0.467 OA
ENDBRANCH   2   9
BRANCH   6  13
ATOM     13  N   UNL     1      -3.604  -2.598   0.004  0.00  0.00    -0.295 N 
ATOM     14  H   UNL     1      -3.598  -2.966   0.944  0.00  0.00    +0.163 HD
ATOM     15  H   UNL     1      -4.388  -2.957  -0.520  0.00  0.00    +0.163 HD
ENDBRANCH   6  13
ENDBRANCH   1   5
BRANCH   1  16
ATOM     16  C   UNL     1      -7.305   0.657   0.047  0.00  0.00    +0.173 C 
BRANCH  16  17
ATOM     17  C   UNL     1      -8.784   0.369   0.057  0.00  0.00    +0.223 C 
ATOM     18  O   UNL     1      -9.179  -0.777   0.059  0.00  0.00    -0.275 OA
ATOM     19  N   UNL     1      -9.668   1.386   0.064  0.00  0.00    -0.311 N 
ATOM     20  H   UNL     1      -9.352   2.304   0.063  0.00  0.00    +0.149 HD
BRANCH  19  21
ATOM     21  C   UNL     1     -11.106   1.107   0.074  0.00  0.00    +0.149 C 
BRANCH  21  22
ATOM     22  C   UNL     1     -11.882   2.425   0.081  0.00  0.00    +0.195 C 
ATOM     23  C   UNL     1     -13.405   2.164   0.155  0.00  0.00    +0.085 C 
ATOM     24  C   UNL     1     -13.877   3.308   1.034  0.00  0.00    -0.002 A 
ATOM     25  C   UNL     1     -15.127   3.832   1.277  0.00  0.00    +0.007 A 
ATOM     26  C   UNL     1     -15.270   4.906   2.137  0.00  0.00    +0.000 A 
ATOM     27  C   UNL     1     -14.156   5.448   2.751  0.00  0.00    +0.004 A 
ATOM     28  C   UNL     1     -12.903   4.922   2.511  0.00  0.00    +0.046 A 
ATOM     29  C   UNL     1     -12.751   3.839   1.649  0.00  0.00    +0.124 A 
ATOM     30  O   UNL     1     -11.622   3.163   1.288  0.00  0.00    -0.487 OA
ENDBRANCH  21  22
ENDBRANCH  19  21
ENDBRANCH  16  17
ENDBRANCH   1  16
TORSDOF 7
