REMARK  Name = ZINC06198107
REMARK  8 active torsions:
REMARK  status: ('A' for Active; 'I' for Inactive)
REMARK    1  A    between atoms: C_1  and  C_2
REMARK    2  A    between atoms: C_2  and  C_3
REMARK    3  A    between atoms: C_10  and  C_15
REMARK    4  A    between atoms: C_15  and  C_17
REMARK    5  A    between atoms: C_15  and  N_68
REMARK    6  A    between atoms: N_21  and  C_22
REMARK    7  A    between atoms: C_22  and  C_23
REMARK    8  A    between atoms: C_34  and  C_36
REMARK                            x       y       z     vdW  Elec       q    Type
REMARK                         _______ _______ _______ _____ _____    ______ ____
ROOT
ATOM      1  C   UNL     1       6.307  -0.768  -0.127  0.00  0.00    +0.039 C 
ENDROOT
BRANCH   1   9
ATOM      2  C   UNL     1       2.078   3.148  -2.379  0.00  0.00    -0.047 A 
ATOM      3  C   UNL     1       1.415   3.368  -1.179  0.00  0.00    +0.005 A 
ATOM      4  C   UNL     1       1.831   2.747  -0.021  0.00  0.00    +0.026 A 
ATOM      5  C   UNL     1       2.926   1.889  -0.053  0.00  0.00    +0.049 A 
ATOM      6  C   UNL     1       3.595   1.668  -1.272  0.00  0.00    -0.001 A 
ATOM      7  C   UNL     1       3.155   2.310  -2.434  0.00  0.00    +0.013 A 
ATOM      8  C   UNL     1       4.746   0.763  -1.295  0.00  0.00    +0.017 A 
ATOM      9  C   UNL     1       5.126   0.169  -0.138  0.00  0.00    +0.011 A 
ATOM     10  C   UNL     1       4.420   0.424   1.058  0.00  0.00    +0.251 A 
ATOM     11  O   UNL     1       4.779  -0.121   2.087  0.00  0.00    -0.268 OA
ATOM     12  N   UNL     1       3.362   1.253   1.089  0.00  0.00    -0.322 N 
ATOM     13  H   UNL     1       2.885   1.411   1.954  0.00  0.00    +0.169 HD
BRANCH   2  15
ATOM     14  C   UNL     1       2.321   5.184  -3.774  0.00  0.00    +0.009 C 
ATOM     15  C   UNL     1       1.604   3.839  -3.631  0.00  0.00    +0.032 C 
ENDBRANCH   2  15
ENDBRANCH   1   9
BRANCH   1  23
ATOM     16  C   UNL     1       7.728   1.119   0.406  0.00  0.00    -0.058 C 
ATOM     17  C   UNL     1       8.664   1.691   1.475  0.00  0.00    +0.089 C 
ATOM     18  N   UNL     1       9.782   0.755   1.666  0.00  0.00    -0.299 N 
ATOM     19  C   UNL     1       9.470  -0.661   1.911  0.00  0.00    +0.089 C 
ATOM     20  C   UNL     1       8.502  -1.141   0.824  0.00  0.00    -0.058 C 
ATOM     21  C   UNL     1      11.059   1.184   1.619  0.00  0.00    +0.282 C 
ATOM     22  O   UNL     1      11.970   0.407   1.835  0.00  0.00    -0.267 OA
ATOM     23  N   UNL     1       7.324  -0.246   0.808  0.00  0.00    +0.391 N 
ATOM     24  H   UNL     1       6.922  -0.209   1.752  0.00  0.00    -0.080 HD
BRANCH  21  25
ATOM     25  C   UNL     1      11.350   2.587   1.308  0.00  0.00    +0.189 A 
ATOM     26  C   UNL     1      12.589   3.125   1.109  0.00  0.00    +0.054 A 
ATOM     27  C   UNL     1      12.399   4.489   0.840  0.00  0.00    +0.042 A 
ATOM     28  C   UNL     1      11.069   4.722   0.885  0.00  0.00    +0.196 A 
ATOM     29  O   UNL     1      10.440   3.572   1.163  0.00  0.00    -0.458 OA
ENDBRANCH  21  25
ENDBRANCH   1  23
BRANCH   1  30
ATOM     30  C   UNL     1       6.873  -0.878  -1.519  0.00  0.00    +0.143 A 
ATOM     31  N   UNL     1       7.595   0.020  -2.144  0.00  0.00    -0.115 NA
ATOM     32  N   UNL     1       7.886  -0.444  -3.310  0.00  0.00    -0.023 NA
ATOM     33  N   UNL     1       7.368  -1.615  -3.446  0.00  0.00    -0.044 NA
ATOM     34  N   UNL     1       6.740  -1.920  -2.361  0.00  0.00    -0.226 N 
BRANCH  34  35
ATOM     35  C   UNL     1       6.014  -3.165  -2.096  0.00  0.00    +0.182 C 
BRANCH  35  36
ATOM     36  C   UNL     1       4.626  -3.070  -2.673  0.00  0.00    -0.026 A 
ATOM     37  C   UNL     1       3.602  -2.523  -1.923  0.00  0.00    +0.005 A 
ATOM     38  C   UNL     1       2.329  -2.431  -2.455  0.00  0.00    +0.000 A 
ATOM     39  C   UNL     1       2.078  -2.897  -3.732  0.00  0.00    +0.000 A 
ATOM     40  C   UNL     1       3.101  -3.449  -4.480  0.00  0.00    +0.000 A 
ATOM     41  C   UNL     1       4.375  -3.536  -3.950  0.00  0.00    +0.005 A 
ENDBRANCH  35  36
ENDBRANCH  34  35
ENDBRANCH   1  30
TORSDOF 7
