REMARK  Name = ZINC32957582
REMARK  10 active torsions:
REMARK  status: ('A' for Active; 'I' for Inactive)
REMARK    1  A    between atoms: C_1  and  C_2
REMARK    2  A    between atoms: C_2  and  O_3
REMARK    3  A    between atoms: O_3  and  C_4
REMARK    4  A    between atoms: C_11  and  C_18
REMARK    5  A    between atoms: C_13  and  O_14
REMARK    6  A    between atoms: C_18  and  O_19
REMARK    7  A    between atoms: O_19  and  C_20
REMARK    8  A    between atoms: C_20  and  C_22
REMARK    9  A    between atoms: C_31  and  N_34
REMARK   10  A    between atoms: C_35  and  C_37
REMARK                            x       y       z     vdW  Elec       q    Type
REMARK                         _______ _______ _______ _____ _____    ______ ____
ROOT
ATOM      1  C   UNL     1       0.179  -2.756  -0.508  0.00  0.00    +0.405 C 
ATOM      2  O   UNL     1      -0.747  -2.161  -1.023  0.00  0.00    -0.226 OA
ATOM      3  N   UNL     1       1.233  -2.071  -0.021  0.00  0.00    -0.251 N 
ATOM      4  C   UNL     1       1.212  -0.676  -0.007  0.00  0.00    +0.040 A 
ATOM      5  C   UNL     1       2.397   0.036  -0.197  0.00  0.00    +0.024 A 
ATOM      6  C   UNL     1       2.392   1.400  -0.186  0.00  0.00    +0.014 A 
ATOM      7  C   UNL     1       1.191   2.090   0.017  0.00  0.00    +0.024 A 
ATOM      8  C   UNL     1       1.157   3.554   0.034  0.00  0.00    +0.007 A 
ATOM      9  C   UNL     1      -0.039   4.166   0.236  0.00  0.00    +0.095 A 
ATOM     10  C   UNL     1      -1.202   3.389   0.422  0.00  0.00    +0.285 A 
ATOM     11  O   UNL     1      -1.165   2.048   0.400  0.00  0.00    -0.425 OA
ATOM     12  C   UNL     1      -0.008   1.378   0.210  0.00  0.00    +0.141 A 
ATOM     13  C   UNL     1       0.014  -0.008   0.196  0.00  0.00    +0.070 A 
ATOM     14  H   UNL     1       2.109  -2.612   0.366  0.00  0.00    +0.158 HD
ENDROOT
BRANCH  10  15
ATOM     15  O   UNL     1      -2.268   3.951   0.602  0.00  0.00    -0.480 OA
ATOM     16  H   UNL     1      -3.183   3.359   0.749  0.00  0.00    +0.295 HD
ENDBRANCH  10  15
BRANCH   1  17
ATOM     17  O   UNL     1       0.153  -4.100  -0.424  0.00  0.00    -0.450 OA
BRANCH  17  19
ATOM     18  C   UNL     1      -0.865  -6.283  -0.783  0.00  0.00    +0.048 C 
ATOM     19  C   UNL     1      -1.014  -4.771  -0.969  0.00  0.00    +0.230 C 
ENDBRANCH  17  19
ENDBRANCH   1  17
BRANCH   8  20
ATOM     20  C   UNL     1       2.414   4.360  -0.168  0.00  0.00    +0.268 C 
BRANCH  20  21
ATOM     21  O   UNL     1       2.097   5.775  -0.105  0.00  0.00    -0.459 OA
BRANCH  21  22
ATOM     22  C   UNL     1       3.115   6.636  -0.266  0.00  0.00    +0.314 C 
ATOM     23  O   UNL     1       4.233   6.220  -0.454  0.00  0.00    -0.250 OA
BRANCH  22  24
ATOM     24  C   UNL     1       2.862   8.120  -0.214  0.00  0.00    +0.070 C 
ATOM     25  C   UNL     1       1.872   8.508  -1.314  0.00  0.00    +0.021 C 
ATOM     26  C   UNL     1       1.615  10.016  -1.260  0.00  0.00    -0.008 C 
ATOM     27  C   UNL     1       1.031  10.386   0.105  0.00  0.00    +0.007 C 
ATOM     28  C   UNL     1       2.021   9.998   1.205  0.00  0.00    -0.008 C 
ATOM     29  C   UNL     1       2.278   8.490   1.151  0.00  0.00    +0.021 C 
ATOM     30  C   UNL     1       3.338  10.747   0.993  0.00  0.00    +0.029 C 
ATOM     31  C   UNL     1       3.922  10.377  -0.372  0.00  0.00    +0.036 C 
ATOM     32  C   UNL     1       2.932  10.765  -1.472  0.00  0.00    +0.029 C 
ATOM     33  C   UNL     1       4.179   8.870  -0.425  0.00  0.00    +0.043 C 
BRANCH  31  34
ATOM     34  N   UNL     1       5.183  11.095  -0.574  0.00  0.00    -0.310 N 
ATOM     35  C   UNL     1       5.200  12.442  -0.567  0.00  0.00    +0.210 C 
ATOM     36  O   UNL     1       4.172  13.061  -0.393  0.00  0.00    -0.276 OA
ATOM     37  C   UNL     1       6.497  13.180  -0.775  0.00  0.00    +0.109 C 
ATOM     38  H   UNL     1       6.116  10.534  -0.732  0.00  0.00    +0.149 HD
ENDBRANCH  31  34
ENDBRANCH  22  24
ENDBRANCH  21  22
ENDBRANCH  20  21
ENDBRANCH   8  20
TORSDOF 8
