REMARK  Name = ZINC39490957
REMARK  10 active torsions:
REMARK  status: ('A' for Active; 'I' for Inactive)
REMARK    1  A    between atoms: C_1  and  C_2
REMARK    2  A    between atoms: C_2  and  C_3
REMARK    3  A    between atoms: C_2  and  S_4
REMARK    4  A    between atoms: S_4  and  C_7
REMARK    5  A    between atoms: C_7  and  C_34
REMARK    6  A    between atoms: N_9  and  C_27
REMARK    7  A    between atoms: N_12  and  C_13
REMARK    8  A    between atoms: C_13  and  C_14
REMARK    9  A    between atoms: C_14  and  C_21
REMARK   10  A    between atoms: C_32  and  O_33
REMARK                            x       y       z     vdW  Elec       q    Type
REMARK                         _______ _______ _______ _____ _____    ______ ____
ROOT
ATOM      1  C   UNL     1      -2.075  -3.385   0.853  0.00  0.00    +0.169 C 
ATOM      2  C   UNL     1      -2.030  -4.693   0.040  0.00  0.00    +0.164 C 
ATOM      3  N   UNL     1      -3.418  -5.178   0.077  0.00  0.00    -0.248 N 
ATOM      4  C   UNL     1      -4.166  -4.320   0.783  0.00  0.00    +0.311 C 
ATOM      5  O   UNL     1      -5.356  -4.478   0.972  0.00  0.00    -0.252 OA
ATOM      6  N   UNL     1      -3.483  -3.271   1.261  0.00  0.00    -0.259 N 
ATOM      7  C   UNL     1      -1.166  -3.480   2.080  0.00  0.00    +0.059 C 
ENDROOT
BRANCH   3   8
ATOM      8  C   UNL     1      -3.885  -6.352  -0.531  0.00  0.00    +0.079 A 
ATOM      9  C   UNL     1      -4.006  -7.518   0.211  0.00  0.00    +0.027 A 
ATOM     10  C   UNL     1      -4.466  -8.675  -0.390  0.00  0.00    +0.002 A 
ATOM     11  C   UNL     1      -4.806  -8.673  -1.730  0.00  0.00    +0.004 A 
ATOM     12  C   UNL     1      -4.688  -7.515  -2.476  0.00  0.00    +0.047 A 
ATOM     13  C   UNL     1      -4.233  -6.350  -1.879  0.00  0.00    +0.138 A 
BRANCH  13  14
ATOM     14  O   UNL     1      -4.122  -5.208  -2.610  0.00  0.00    -0.505 OA
ATOM     15  H   UNL     1      -3.290  -5.133  -3.097  0.00  0.00    +0.292 HD
ENDBRANCH  13  14
ENDBRANCH   3   8
BRANCH   1  16
ATOM     16  S   UNL     1      -1.597  -1.975  -0.184  0.00  0.00    -0.006 S 
ATOM     17  O   UNL     1      -1.317  -0.869   0.663  0.00  0.00    -0.172 OA
ATOM     18  O   UNL     1      -2.562  -1.828  -1.216  0.00  0.00    -0.172 OA
BRANCH  16  20
ATOM     19  C   UNL     1       0.691  -1.339  -1.542  0.00  0.00    +0.031 C 
ATOM     20  C   UNL     1      -0.041  -2.535  -0.929  0.00  0.00    +0.127 C 
ATOM     21  C   UNL     1       0.839  -3.174   0.147  0.00  0.00    +0.031 C 
ENDBRANCH  16  20
ENDBRANCH   1  16
BRANCH   6  22
ATOM     22  C   UNL     1      -4.049  -2.184   2.064  0.00  0.00    +0.118 C 
BRANCH  22  23
ATOM     23  C   UNL     1      -4.652  -1.127   1.137  0.00  0.00    -0.008 C 
ATOM     24  C   UNL     1      -3.530  -0.413   0.377  0.00  0.00    +0.025 C 
ATOM     25  C   UNL     1      -2.621   0.307   1.376  0.00  0.00    +0.103 C 
ATOM     26  N   UNL     1      -3.410   1.278   2.145  0.00  0.00    -0.219 NA
ATOM     27  C   UNL     1      -4.464   0.611   2.920  0.00  0.00    +0.103 C 
ATOM     28  C   UNL     1      -5.427  -0.101   1.968  0.00  0.00    +0.025 C 
ATOM     29 CL   UNL     1      -2.404   2.217   3.160  0.00  0.00    -0.021 Cl
BRANCH  23  30
ATOM     30  C   UNL     1      -5.599  -1.799   0.141  0.00  0.00    -0.003 C 
ATOM     31  C   UNL     1      -4.782  -2.488  -0.954  0.00  0.00    +0.004 C 
ATOM     32  C   UNL     1      -5.729  -3.161  -1.950  0.00  0.00    +0.000 C 
ATOM     33  C   UNL     1      -6.639  -2.105  -2.581  0.00  0.00    +0.000 C 
ATOM     34  C   UNL     1      -7.456  -1.416  -1.486  0.00  0.00    +0.000 C 
ATOM     35  C   UNL     1      -6.509  -0.744  -0.490  0.00  0.00    +0.004 C 
ENDBRANCH  23  30
ENDBRANCH  22  23
ENDBRANCH   6  22
TORSDOF 7
