REMARK  Name = ZINC11173395
REMARK  16 active torsions:
REMARK  status: ('A' for Active; 'I' for Inactive)
REMARK    1  A    between atoms: C_1  and  C_2
REMARK    2  A    between atoms: C_4  and  C_13
REMARK    3  A    between atoms: C_5  and  C_12
REMARK    4  A    between atoms: C_13  and  C_15
REMARK    5  A    between atoms: C_15  and  O_16
REMARK    6  A    between atoms: O_16  and  C_17
REMARK    7  A    between atoms: C_17  and  C_19
REMARK    8  A    between atoms: C_21  and  O_34
REMARK    9  A    between atoms: C_22  and  O_32
REMARK   10  A    between atoms: C_24  and  N_25
REMARK   11  A    between atoms: C_26  and  C_28
REMARK   12  A    between atoms: C_28  and  C_29
REMARK   13  A    between atoms: C_28  and  C_30
REMARK   14  A    between atoms: C_28  and  C_31
REMARK   15  A    between atoms: O_32  and  C_33
REMARK   16  A    between atoms: O_34  and  C_35
REMARK                            x       y       z     vdW  Elec       q    Type
REMARK                         _______ _______ _______ _____ _____    ______ ____
ROOT
ATOM      1  C   UNL     1      -3.682  -1.987  -0.155  0.00  0.00    +0.342 C 
ATOM      2  O   UNL     1      -3.654  -0.772  -0.161  0.00  0.00    -0.245 OA
ENDROOT
BRANCH   1   3
ATOM      3  C   UNL     1      -2.425  -2.752  -0.171  0.00  0.00    +0.084 A 
ATOM      4  C   UNL     1      -2.452  -4.147  -0.281  0.00  0.00    +0.066 A 
ATOM      5  C   UNL     1      -1.272  -4.860  -0.289  0.00  0.00    +0.162 A 
ATOM      6  C   UNL     1      -0.049  -4.193  -0.194  0.00  0.00    +0.163 A 
ATOM      7  C   UNL     1      -0.013  -2.812  -0.091  0.00  0.00    +0.073 A 
ATOM      8  C   UNL     1      -1.193  -2.084  -0.082  0.00  0.00    +0.051 A 
BRANCH   8   9
ATOM      9  N   UNL     1      -1.156  -0.695   0.021  0.00  0.00    -0.284 N 
ATOM     10  C   UNL     1      -0.161  -0.001  -0.567  0.00  0.00    +0.223 C 
ATOM     11  O   UNL     1       0.746  -0.590  -1.116  0.00  0.00    -0.275 OA
ATOM     12  H   UNL     1      -1.847  -0.227   0.516  0.00  0.00    +0.155 HD
BRANCH  10  13
ATOM     13  C   UNL     1      -0.176   1.506  -0.542  0.00  0.00    +0.039 C 
ATOM     14  C   UNL     1       1.056   2.040  -1.274  0.00  0.00    +0.020 C 
ATOM     15  C   UNL     1      -1.442   2.014  -1.236  0.00  0.00    +0.020 C 
ATOM     16  C   UNL     1      -0.159   1.992   0.908  0.00  0.00    +0.020 C 
ENDBRANCH  10  13
ENDBRANCH   8   9
BRANCH   6  17
ATOM     17  O   UNL     1       1.110  -4.901  -0.203  0.00  0.00    -0.491 OA
ATOM     18  C   UNL     1       2.326  -4.157  -0.104  0.00  0.00    +0.277 C 
ENDBRANCH   6  17
BRANCH   5  19
ATOM     19  O   UNL     1      -1.299  -6.216  -0.390  0.00  0.00    -0.491 OA
ATOM     20  C   UNL     1      -2.584  -6.834  -0.483  0.00  0.00    +0.277 C 
ENDBRANCH   5  19
ENDBRANCH   1   3
BRANCH   1  21
ATOM     21  O   UNL     1      -4.864  -2.634  -0.132  0.00  0.00    -0.453 OA
BRANCH  21  22
ATOM     22  C   UNL     1      -6.063  -1.815  -0.118  0.00  0.00    +0.311 C 
BRANCH  22  23
ATOM     23  C   UNL     1      -7.279  -2.706  -0.094  0.00  0.00    +0.202 C 
ATOM     24  O   UNL     1      -7.147  -3.912  -0.089  0.00  0.00    -0.288 OA
BRANCH  23  28
ATOM     25  C   UNL     1     -11.100   0.665  -0.049  0.00  0.00    +0.064 C 
ATOM     26  C   UNL     1     -10.296  -0.610  -0.056  0.00  0.00    +0.023 A 
ATOM     27  C   UNL     1      -8.955  -0.685  -0.071  0.00  0.00    +0.034 A 
ATOM     28  C   UNL     1      -8.618  -2.115  -0.076  0.00  0.00    +0.042 A 
ATOM     29  C   UNL     1      -9.825  -2.789  -0.053  0.00  0.00    +0.033 A 
ATOM     30  N   UNL     1     -10.816  -1.875  -0.041  0.00  0.00    -0.296 N 
ATOM     31  C   UNL     1     -12.176  -2.177  -0.017  0.00  0.00    +0.178 A 
ATOM     32  N   UNL     1     -12.763  -3.357  -0.008  0.00  0.00    -0.231 NA
ATOM     33  C   UNL     1     -14.075  -3.468   0.019  0.00  0.00    +0.121 A 
ATOM     34  C   UNL     1     -14.820  -2.334   0.026  0.00  0.00    +0.068 A 
ATOM     35  S   UNL     1     -13.533  -1.094  -0.000  0.00  0.00    -0.058 S 
ATOM     36  C   UNL     1     -10.002  -4.286  -0.043  0.00  0.00    +0.064 C 
ENDBRANCH  23  28
ENDBRANCH  22  23
ENDBRANCH  21  22
ENDBRANCH   1  21
TORSDOF 9
