REMARK  Name = ZINC35477739
REMARK  10 active torsions:
REMARK  status: ('A' for Active; 'I' for Inactive)
REMARK    1  A    between atoms: C_1  and  C_2
REMARK    2  A    between atoms: C_4  and  C_30
REMARK    3  A    between atoms: N_14  and  C_15
REMARK    4  A    between atoms: C_15  and  C_16
REMARK    5  A    between atoms: C_16  and  C_17
REMARK    6  A    between atoms: N_19  and  C_20
REMARK    7  A    between atoms: C_20  and  C_21
REMARK    8  A    between atoms: C_21  and  N_22
REMARK    9  A    between atoms: N_22  and  C_23
REMARK   10  A    between atoms: N_22  and  C_24
REMARK                            x       y       z     vdW  Elec       q    Type
REMARK                         _______ _______ _______ _____ _____    ______ ____
ROOT
ATOM      1  C   UNL     1       1.159   3.412   3.396  0.00  0.00    +0.115 C 
ENDROOT
BRANCH   1  15
ATOM      2  C   UNL     1      -1.141   1.865   0.791  0.00  0.00    +0.046 C 
ATOM      3  C   UNL     1      -1.236   0.381   0.549  0.00  0.00    -0.025 A 
ATOM      4  C   UNL     1      -2.011  -0.117  -0.488  0.00  0.00    +0.028 A 
ATOM      5  C   UNL     1      -2.079  -1.481  -0.686  0.00  0.00    +0.040 A 
ATOM      6  N   UNL     1      -1.423  -2.311   0.101  0.00  0.00    -0.244 NA
ATOM      7  C   UNL     1      -0.671  -1.881   1.106  0.00  0.00    +0.119 A 
ATOM      8  C   UNL     1      -0.543  -0.515   1.359  0.00  0.00    +0.072 A 
ATOM      9  N   UNL     1       0.254  -0.003   2.384  0.00  0.00    -0.252 N 
ATOM     10  C   UNL     1       0.700  -0.806   3.519  0.00  0.00    +0.126 C 
ATOM     11  C   UNL     1       1.409  -2.061   2.988  0.00  0.00    +0.095 C 
ATOM     12  S   UNL     1       0.165  -3.064   2.115  0.00  0.00    -0.103 S 
ATOM     13  C   UNL     1       0.629   1.290   2.322  0.00  0.00    +0.307 C 
ATOM     14  O   UNL     1       0.761   1.834   1.243  0.00  0.00    -0.252 OA
ATOM     15  N   UNL     1       0.858   1.980   3.457  0.00  0.00    -0.299 N 
ATOM     16  C   UNL     1      -2.915  -2.029  -1.814  0.00  0.00    +0.065 C 
ATOM     17  H   UNL     1       0.824   1.528   4.315  0.00  0.00    +0.150 HD
ENDBRANCH   1  15
BRANCH   1  18
ATOM     18  C   UNL     1       1.375   3.949   4.812  0.00  0.00    +0.114 C 
BRANCH  18  19
ATOM     19  C   UNL     1       1.685   5.422   4.749  0.00  0.00    +0.214 C 
ATOM     20  O   UNL     1       1.728   5.987   3.677  0.00  0.00    -0.276 OA
ATOM     21  N   UNL     1       1.914   6.112   5.884  0.00  0.00    -0.317 N 
ATOM     22  H   UNL     1       1.879   5.660   6.741  0.00  0.00    +0.149 HD
BRANCH  21  23
ATOM     23  C   UNL     1       2.215   7.545   5.822  0.00  0.00    +0.085 C 
BRANCH  23  24
ATOM     24  C   UNL     1       2.431   8.082   7.239  0.00  0.00    -0.060 C 
BRANCH  24  25
ATOM     25  N   UNL     1       2.733   9.518   7.177  0.00  0.00    +0.381 N 
ATOM     26  C   UNL     1       1.564  10.242   6.661  0.00  0.00    -0.096 C 
ATOM     27  H   UNL     1       3.520   9.670   6.564  0.00  0.00    -0.082 HD
BRANCH  25  28
ATOM     28  C   UNL     1       3.058  10.008   8.523  0.00  0.00    -0.069 C 
ATOM     29  C   UNL     1       4.276   9.254   9.060  0.00  0.00    -0.015 C 
ATOM     30  C   UNL     1       4.615   9.764  10.462  0.00  0.00    -0.002 C 
ATOM     31  C   UNL     1       4.929  11.260  10.398  0.00  0.00    -0.000 C 
ATOM     32  C   UNL     1       3.711  12.015   9.861  0.00  0.00    -0.002 C 
ATOM     33  C   UNL     1       3.373  11.504   8.459  0.00  0.00    -0.015 C 
ENDBRANCH  25  28
ENDBRANCH  24  25
ENDBRANCH  23  24
ENDBRANCH  21  23
ENDBRANCH  18  19
ENDBRANCH   1  18
TORSDOF 7
