REMARK  Name = ZINC20149055
REMARK  11 active torsions:
REMARK  status: ('A' for Active; 'I' for Inactive)
REMARK    1  A    between atoms: C_1  and  C_2
REMARK    2  A    between atoms: C_2  and  O_3
REMARK    3  A    between atoms: O_3  and  C_4
REMARK    4  A    between atoms: C_4  and  C_6
REMARK    5  A    between atoms: C_13  and  C_15
REMARK    6  A    between atoms: C_15  and  O_16
REMARK    7  A    between atoms: O_16  and  C_17
REMARK    8  A    between atoms: C_20  and  C_31
REMARK    9  A    between atoms: C_22  and  C_23
REMARK   10  A    between atoms: C_23  and  N_24
REMARK   11  A    between atoms: N_27  and  C_30
REMARK                            x       y       z     vdW  Elec       q    Type
REMARK                         _______ _______ _______ _____ _____    ______ ____
ROOT
ATOM      1  C   UNL     1      -4.731   6.331  -7.266  0.00  0.00    +0.126 A 
ATOM      2  C   UNL     1      -4.282   5.953  -8.525  0.00  0.00    +0.046 A 
ATOM      3  C   UNL     1      -4.901   6.445  -9.655  0.00  0.00    +0.012 A 
ATOM      4  C   UNL     1      -5.971   7.330  -9.533  0.00  0.00    -0.017 A 
ATOM      5  C   UNL     1      -6.415   7.711  -8.269  0.00  0.00    +0.017 A 
ATOM      6  C   UNL     1      -5.796   7.212  -7.142  0.00  0.00    +0.009 A 
ENDROOT
BRANCH   4   7
ATOM      7  C   UNL     1      -6.634   7.866 -10.747  0.00  0.00    -0.018 A 
ATOM      8  C   UNL     1      -7.707   8.747 -10.626  0.00  0.00    +0.011 A 
ATOM      9  C   UNL     1      -8.318   9.247 -11.758  0.00  0.00    +0.039 A 
ATOM     10  C   UNL     1      -7.873   8.866 -13.013  0.00  0.00    +0.123 A 
ATOM     11  C   UNL     1      -6.810   7.986 -13.139  0.00  0.00    +0.039 A 
ATOM     12  C   UNL     1      -6.190   7.485 -12.012  0.00  0.00    +0.011 A 
ATOM     13  F   UNL     1      -8.476   9.354 -14.119  0.00  0.00    -0.205 F 
ENDBRANCH   4   7
BRANCH   1  14
ATOM     14  O   UNL     1      -4.123   5.841  -6.155  0.00  0.00    -0.482 OA
BRANCH  14  15
ATOM     15  C   UNL     1      -3.033   4.939  -6.356  0.00  0.00    +0.324 C 
BRANCH  15  22
ATOM     16  C   UNL     1      -0.887   1.682  -3.629  0.00  0.00    +0.115 C 
ATOM     17  C   UNL     1      -0.115   1.155  -4.841  0.00  0.00    +0.018 C 
ATOM     18  C   UNL     1      -0.819   1.597  -6.126  0.00  0.00    +0.020 C 
ATOM     19  C   UNL     1      -0.838   3.127  -6.193  0.00  0.00    +0.108 C 
ATOM     20  N   UNL     1      -1.449   3.646  -4.962  0.00  0.00    -0.298 N 
ATOM     21  C   UNL     1      -0.907   3.213  -3.667  0.00  0.00    +0.122 C 
ATOM     22  C   UNL     1      -2.488   4.503  -5.020  0.00  0.00    +0.253 C 
ATOM     23  O   UNL     1      -2.984   4.925  -3.996  0.00  0.00    -0.272 OA
BRANCH  16  24
ATOM     24  C   UNL     1      -0.211   1.220  -2.363  0.00  0.00    +0.312 C 
ATOM     25  O   UNL     1       0.783   0.536  -2.424  0.00  0.00    -0.250 OA
BRANCH  24  26
ATOM     26  O   UNL     1      -0.715   1.567  -1.168  0.00  0.00    -0.465 OA
BRANCH  26  28
ATOM     27  C   UNL     1      -0.729   1.579   1.267  0.00  0.00    +0.048 C 
ATOM     28  C   UNL     1      -0.013   1.086   0.008  0.00  0.00    +0.229 C 
ENDBRANCH  26  28
ENDBRANCH  24  26
ENDBRANCH  16  24
ENDBRANCH  15  22
ENDBRANCH  14  15
ENDBRANCH   1  14
BRANCH   6  29
ATOM     29  C   UNL     1      -6.276   7.624  -5.774  0.00  0.00    +0.123 C 
BRANCH  29  30
ATOM     30  N   UNL     1      -5.395   8.671  -5.241  0.00  0.00    -0.302 NA
ATOM     31  C   UNL     1      -4.045   8.146  -4.990  0.00  0.00    +0.066 C 
ATOM     32  C   UNL     1      -3.139   9.283  -4.512  0.00  0.00    -0.064 C 
ATOM     33  N   UNL     1      -3.705   9.877  -3.293  0.00  0.00    +0.379 N 
ATOM     34  C   UNL     1      -5.054  10.402  -3.543  0.00  0.00    -0.064 C 
ATOM     35  C   UNL     1      -5.960   9.264  -4.021  0.00  0.00    +0.066 C 
ATOM     36  C   UNL     1      -2.823  10.924  -2.759  0.00  0.00    -0.096 C 
ATOM     37  H   UNL     1      -3.784   9.084  -2.534  0.00  0.00    -0.082 HD
ENDBRANCH  29  30
ENDBRANCH   6  29
TORSDOF 9
