REMARK  Name = ZINC38744086
REMARK  13 active torsions:
REMARK  status: ('A' for Active; 'I' for Inactive)
REMARK    1  A    between atoms: C_1  and  C_2
REMARK    2  A    between atoms: C_4  and  C_12
REMARK    3  A    between atoms: C_12  and  C_14
REMARK    4  A    between atoms: C_14  and  C_16
REMARK    5  A    between atoms: C_14  and  O_17
REMARK    6  A    between atoms: O_17  and  C_18
REMARK    7  A    between atoms: C_18  and  C_20
REMARK    8  A    between atoms: C_20  and  C_22
REMARK    9  A    between atoms: C_20  and  N_25
REMARK   10  A    between atoms: C_22  and  C_23
REMARK   11  A    between atoms: C_22  and  C_24
REMARK   12  A    between atoms: N_25  and  S_26
REMARK   13  A    between atoms: S_26  and  C_29
REMARK                            x       y       z     vdW  Elec       q    Type
REMARK                         _______ _______ _______ _____ _____    ______ ____
ROOT
ATOM      1  C   UNL     1       2.497   0.486  -5.511  0.00  0.00    +0.327 C 
ATOM      2  O   UNL     1       3.558  -0.081  -5.397  0.00  0.00    -0.249 OA
ENDROOT
BRANCH   1   3
ATOM      3  O   UNL     1       1.722   0.682  -4.433  0.00  0.00    -0.452 OA
BRANCH   3   4
ATOM      4  C   UNL     1       2.213   0.194  -3.183  0.00  0.00    +0.244 C 
ATOM      5  C   UNL     1       1.738  -1.246  -2.975  0.00  0.00    +0.061 C 
BRANCH   4   6
ATOM      6  C   UNL     1       1.692   1.061  -2.066  0.00  0.00    +0.202 C 
ATOM      7  O   UNL     1       0.715   1.759  -2.244  0.00  0.00    -0.288 OA
BRANCH   6  10
ATOM      8  C   UNL     1       2.132   3.390   0.057  0.00  0.00    +0.035 C 
ATOM      9  C   UNL     1       1.996   1.904   0.396  0.00  0.00    +0.111 C 
ATOM     10  C   UNL     1       2.340   1.060  -0.812  0.00  0.00    +0.030 C 
ATOM     11  C   UNL     1       3.423   0.289  -0.430  0.00  0.00    +0.007 A 
ATOM     12  C   UNL     1       4.194  -0.687  -1.104  0.00  0.00    +0.010 A 
ATOM     13  C   UNL     1       5.221  -1.299  -0.472  0.00  0.00    +0.001 A 
ATOM     14  C   UNL     1       5.571  -1.006   0.856  0.00  0.00    +0.002 A 
ATOM     15  C   UNL     1       4.899  -0.091   1.587  0.00  0.00    +0.026 A 
ATOM     16  C   UNL     1       3.766   0.622   0.974  0.00  0.00    +0.043 A 
ATOM     17  N   UNL     1       2.958   1.534   1.439  0.00  0.00    -0.377 N 
ATOM     18  H   UNL     1       2.988   1.909   2.333  0.00  0.00    +0.160 HD
ENDBRANCH   6  10
ENDBRANCH   4   6
ENDBRANCH   3   4
ENDBRANCH   1   3
BRANCH   1  19
ATOM     19  C   UNL     1       2.045   0.974  -6.863  0.00  0.00    +0.187 C 
BRANCH  19  20
ATOM     20  C   UNL     1       0.722   0.299  -7.232  0.00  0.00    +0.012 C 
ATOM     21  C   UNL     1       0.197   0.889  -8.542  0.00  0.00    +0.009 C 
ATOM     22  C   UNL     1       0.948  -1.205  -7.404  0.00  0.00    +0.009 C 
ENDBRANCH  19  20
BRANCH  19  23
ATOM     23  N   UNL     1       3.059   0.641  -7.867  0.00  0.00    -0.176 NA
ATOM     24  H   UNL     1       3.297  -0.285  -8.028  0.00  0.00    +0.149 HD
BRANCH  23  25
ATOM     25  S   UNL     1       3.801   1.847  -8.726  0.00  0.00    +0.059 S 
ATOM     26  O   UNL     1       4.722   1.214  -9.603  0.00  0.00    -0.153 OA
ATOM     27  O   UNL     1       2.769   2.705  -9.194  0.00  0.00    -0.153 OA
BRANCH  25  28
ATOM     28  C   UNL     1       4.758   2.788  -7.584  0.00  0.00    +0.105 A 
ATOM     29  C   UNL     1       4.193   3.870  -6.935  0.00  0.00    +0.028 A 
ATOM     30  C   UNL     1       4.944   4.608  -6.039  0.00  0.00    +0.002 A 
ATOM     31  C   UNL     1       6.259   4.264  -5.792  0.00  0.00    +0.000 A 
ATOM     32  C   UNL     1       6.824   3.181  -6.439  0.00  0.00    +0.002 A 
ATOM     33  C   UNL     1       6.072   2.440  -7.332  0.00  0.00    +0.028 A 
ENDBRANCH  25  28
ENDBRANCH  23  25
ENDBRANCH  19  23
ENDBRANCH   1  19
TORSDOF 9
