REMARK  Name = ZINC13257131
REMARK  13 active torsions:
REMARK  status: ('A' for Active; 'I' for Inactive)
REMARK    1  A    between atoms: C_1  and  N_2
REMARK    2  A    between atoms: N_2  and  C_3
REMARK    3  A    between atoms: N_2  and  S_22
REMARK    4  A    between atoms: C_3  and  C_4
REMARK    5  A    between atoms: N_6  and  C_7
REMARK    6  A    between atoms: C_7  and  C_9
REMARK    7  A    between atoms: C_7  and  C_12
REMARK    8  A    between atoms: C_9  and  C_10
REMARK    9  A    between atoms: C_15  and  O_20
REMARK   10  A    between atoms: C_16  and  O_18
REMARK   11  A    between atoms: O_18  and  C_19
REMARK   12  A    between atoms: O_20  and  C_21
REMARK   13  A    between atoms: S_22  and  C_25
REMARK                            x       y       z     vdW  Elec       q    Type
REMARK                         _______ _______ _______ _____ _____    ______ ____
ROOT
ATOM      1  C   UNL     1       2.525   0.009   2.201  0.00  0.00    +0.229 C 
ATOM      2  O   UNL     1       2.916   1.063   2.656  0.00  0.00    -0.274 OA
ATOM      3  N   UNL     1       2.232  -0.093   0.890  0.00  0.00    -0.307 N 
ATOM      4  H   UNL     1       1.853  -0.914   0.539  0.00  0.00    +0.149 HD
ENDROOT
BRANCH   1   5
ATOM      5  C   UNL     1       2.366  -1.188   3.103  0.00  0.00    +0.204 C 
BRANCH   5   7
ATOM      6  C   UNL     1       1.763  -0.199   5.361  0.00  0.00    +0.132 C 
ATOM      7  N   UNL     1       2.745  -0.823   4.471  0.00  0.00    -0.170 NA
BRANCH   7   8
ATOM      8  S   UNL     1       4.283  -1.117   5.010  0.00  0.00    +0.067 S 
ATOM      9  O   UNL     1       4.207  -1.201   6.426  0.00  0.00    -0.152 OA
ATOM     10  O   UNL     1       4.799  -2.172   4.211  0.00  0.00    -0.152 OA
BRANCH   8  11
ATOM     11  C   UNL     1       5.246   0.312   4.641  0.00  0.00    +0.143 A 
ATOM     12  C   UNL     1       5.457   1.417   5.396  0.00  0.00    +0.036 A 
ATOM     13  C   UNL     1       6.263   2.425   4.899  0.00  0.00    +0.010 A 
ATOM     14  C   UNL     1       6.808   2.283   3.667  0.00  0.00    +0.047 A 
ATOM     15  S   UNL     1       6.189   0.683   3.171  0.00  0.00    -0.077 S 
ENDBRANCH   8  11
ENDBRANCH   7   8
ENDBRANCH   5   7
ENDBRANCH   1   5
BRANCH   3  16
ATOM     16  C   UNL     1       2.486   1.038  -0.007  0.00  0.00    +0.114 C 
BRANCH  16  17
ATOM     17  C   UNL     1       1.280   1.942  -0.029  0.00  0.00    -0.023 A 
ATOM     18  C   UNL     1       0.010   1.397  -0.039  0.00  0.00    +0.009 A 
ATOM     19  C   UNL     1      -1.099   2.221  -0.065  0.00  0.00    +0.050 A 
ATOM     20  C   UNL     1      -0.939   3.598  -0.072  0.00  0.00    +0.162 A 
ATOM     21  C   UNL     1       0.340   4.146  -0.063  0.00  0.00    +0.162 A 
ATOM     22  C   UNL     1       1.447   3.314  -0.042  0.00  0.00    +0.055 A 
BRANCH  21  23
ATOM     23  O   UNL     1       0.502   5.497  -0.075  0.00  0.00    -0.491 OA
ATOM     24  C   UNL     1       1.843   5.989  -0.064  0.00  0.00    +0.277 C 
ENDBRANCH  21  23
BRANCH  20  25
ATOM     25  O   UNL     1      -2.029   4.410  -0.092  0.00  0.00    -0.491 OA
ATOM     26  C   UNL     1      -3.310   3.777  -0.100  0.00  0.00    +0.277 C 
ENDBRANCH  20  25
ENDBRANCH  16  17
BRANCH  16  27
ATOM     27  C   UNL     1       2.760   0.517  -1.419  0.00  0.00    +0.152 C 
BRANCH  27  28
ATOM     28  C   UNL     1       4.043  -0.273  -1.423  0.00  0.00    +0.358 C 
ATOM     29  O   UNL     1       4.725  -0.323  -0.426  0.00  0.00    -0.246 OA
ATOM     30  O   UNL     1       4.428  -0.922  -2.533  0.00  0.00    -0.246 OA
ENDBRANCH  27  28
ENDBRANCH  16  27
ENDBRANCH   3  16
TORSDOF 10
