REMARK  Name = ZINC35636251
REMARK  11 active torsions:
REMARK  status: ('A' for Active; 'I' for Inactive)
REMARK    1  A    between atoms: C_1  and  C_2
REMARK    2  A    between atoms: C_2  and  N_3
REMARK    3  A    between atoms: C_6  and  C_11
REMARK    4  A    between atoms: C_15  and  O_17
REMARK    5  A    between atoms: O_17  and  C_18
REMARK    6  A    between atoms: N_26  and  C_28
REMARK    7  A    between atoms: C_28  and  C_30
REMARK    8  A    between atoms: C_28  and  C_34
REMARK    9  A    between atoms: C_30  and  C_31
REMARK   10  A    between atoms: C_31  and  C_32
REMARK   11  A    between atoms: C_31  and  C_33
REMARK                            x       y       z     vdW  Elec       q    Type
REMARK                         _______ _______ _______ _____ _____    ______ ____
ROOT
ATOM      1  N   UNL     1       1.081  -0.313  -1.653  0.00  0.00    -0.257 N 
ATOM      2  C   UNL     1       0.320  -0.742  -2.703  0.00  0.00    +0.042 C 
ATOM      3  C   UNL     1       0.887  -1.272  -3.806  0.00  0.00    +0.058 C 
ATOM      4  C   UNL     1       2.398  -1.375  -3.841  0.00  0.00    +0.142 C 
ATOM      5  N   UNL     1       3.128  -0.885  -2.660  0.00  0.00    -0.288 N 
ATOM      6  C   UNL     1       2.419  -0.376  -1.633  0.00  0.00    +0.307 C 
ATOM      7  O   UNL     1       3.012   0.036  -0.655  0.00  0.00    -0.252 OA
ATOM      8  C   UNL     1      -0.105  -1.636  -4.740  0.00  0.00    +0.247 C 
ATOM      9  O   UNL     1       0.123  -2.138  -5.825  0.00  0.00    -0.270 OA
ATOM     10  N   UNL     1      -1.336  -1.355  -4.276  0.00  0.00    -0.281 N 
ATOM     11  C   UNL     1      -1.173  -0.762  -2.940  0.00  0.00    +0.160 C 
ATOM     12  H   UNL     1       4.096  -0.924  -2.623  0.00  0.00    +0.151 HD
ENDROOT
BRANCH   4  13
ATOM     13  C   UNL     1       2.889  -0.607  -5.041  0.00  0.00    -0.019 A 
ATOM     14  C   UNL     1       3.005   0.770  -4.980  0.00  0.00    +0.006 A 
ATOM     15  C   UNL     1       3.455   1.478  -6.079  0.00  0.00    +0.004 A 
ATOM     16  C   UNL     1       3.789   0.811  -7.242  0.00  0.00    +0.046 A 
ATOM     17  C   UNL     1       3.674  -0.570  -7.306  0.00  0.00    +0.129 A 
ATOM     18  C   UNL     1       3.227  -1.278  -6.200  0.00  0.00    +0.052 A 
BRANCH  17  19
ATOM     19  O   UNL     1       4.002  -1.228  -8.449  0.00  0.00    -0.456 OA
BRANCH  19  20
ATOM     20  C   UNL     1       3.956  -2.586  -8.439  0.00  0.00    +0.128 A 
ATOM     21  C   UNL     1       2.736  -3.241  -8.524  0.00  0.00    +0.046 A 
ATOM     22  C   UNL     1       2.692  -4.621  -8.513  0.00  0.00    +0.004 A 
ATOM     23  C   UNL     1       3.863  -5.351  -8.417  0.00  0.00    +0.000 A 
ATOM     24  C   UNL     1       5.081  -4.700  -8.332  0.00  0.00    +0.004 A 
ATOM     25  C   UNL     1       5.130  -3.320  -8.349  0.00  0.00    +0.046 A 
ENDBRANCH  19  20
ENDBRANCH  17  19
ENDBRANCH   4  13
BRANCH   1  27
ATOM     26  C   UNL     1       0.229   1.762  -0.677  0.00  0.00    +0.025 C 
ATOM     27  C   UNL     1       0.397   0.253  -0.488  0.00  0.00    +0.111 C 
ENDBRANCH   1  27
BRANCH  10  28
ATOM     28  C   UNL     1      -2.603  -1.595  -4.971  0.00  0.00    +0.163 C 
BRANCH  28  29
ATOM     29  C   UNL     1      -2.747  -3.068  -5.258  0.00  0.00    +0.236 C 
ATOM     30  O   UNL     1      -1.760  -3.767  -5.354  0.00  0.00    -0.274 OA
ATOM     31  N   UNL     1      -3.973  -3.608  -5.407  0.00  0.00    -0.296 N 
ATOM     32  C   UNL     1      -5.178  -2.764  -5.409  0.00  0.00    +0.136 C 
ATOM     33  C   UNL     1      -6.016  -3.119  -6.642  0.00  0.00    +0.179 C 
ATOM     34  O   UNL     1      -6.230  -4.532  -6.674  0.00  0.00    -0.377 OA
ATOM     35  C   UNL     1      -5.033  -5.304  -6.800  0.00  0.00    +0.179 C 
ATOM     36  C   UNL     1      -4.145  -5.059  -5.580  0.00  0.00    +0.136 C 
ENDBRANCH  28  29
BRANCH  28  37
ATOM     37  C   UNL     1      -2.617  -0.816  -6.288  0.00  0.00    +0.035 C 
BRANCH  37  38
ATOM     38  C   UNL     1      -2.605   0.685  -5.992  0.00  0.00    -0.015 C 
ATOM     39  C   UNL     1      -2.494   1.463  -7.305  0.00  0.00    +0.007 C 
ATOM     40  C   UNL     1      -3.900   1.075  -5.276  0.00  0.00    +0.007 C 
ENDBRANCH  37  38
ENDBRANCH  28  37
ENDBRANCH  10  28
TORSDOF 8
