REMARK  Name = ZINC38620592
REMARK  12 active torsions:
REMARK  status: ('A' for Active; 'I' for Inactive)
REMARK    1  A    between atoms: C_1  and  C_2
REMARK    2  A    between atoms: C_3  and  C_33
REMARK    3  A    between atoms: N_6  and  C_29
REMARK    4  A    between atoms: C_8  and  C_9
REMARK    5  A    between atoms: C_9  and  C_11
REMARK    6  A    between atoms: C_11  and  C_12
REMARK    7  A    between atoms: C_12  and  C_13
REMARK    8  A    between atoms: C_13  and  N_14
REMARK    9  A    between atoms: C_18  and  C_19
REMARK   10  A    between atoms: C_29  and  C_30
REMARK   11  A    between atoms: C_30  and  O_31
REMARK   12  A    between atoms: O_31  and  C_32
REMARK                            x       y       z     vdW  Elec       q    Type
REMARK                         _______ _______ _______ _____ _____    ______ ____
ROOT
ATOM      1  C   UNL     1      -0.201   2.413   1.210  0.00  0.00    +0.169 C 
ATOM      2  O   UNL     1       0.448   1.750   1.993  0.00  0.00    -0.292 OA
ENDROOT
BRANCH   1  10
ATOM      3  C   UNL     1       1.309   0.113   0.277  0.00  0.00    +0.046 C 
ATOM      4  C   UNL     1       0.369   0.853  -0.639  0.00  0.00    -0.012 A 
ATOM      5  C   UNL     1       0.199   0.445  -1.957  0.00  0.00    +0.120 A 
ATOM      6  C   UNL     1      -0.724   1.191  -2.814  0.00  0.00    +0.272 A 
ATOM      7  O   UNL     1      -0.891   0.852  -3.972  0.00  0.00    -0.266 OA
ATOM      8  N   UNL     1      -1.389   2.252  -2.320  0.00  0.00    -0.272 N 
ATOM      9  C   UNL     1      -1.222   2.648  -1.036  0.00  0.00    +0.265 A 
ATOM     10  C   UNL     1      -0.356   1.966  -0.174  0.00  0.00    +0.086 A 
ATOM     11  O   UNL     1      -1.905   3.714  -0.580  0.00  0.00    -0.267 OA
BRANCH   5  12
ATOM     12  C   UNL     1       0.914  -0.686  -2.467  0.00  0.00    +0.105 C 
ATOM     13  N   UNL     1       1.481  -1.583  -2.872  0.00  0.00    -0.191 NA
ENDBRANCH   5  12
BRANCH   8  14
ATOM     14  C   UNL     1      -2.310   2.992  -3.187  0.00  0.00    +0.156 C 
BRANCH  14  15
ATOM     15  C   UNL     1      -3.710   2.383  -3.081  0.00  0.00    +0.181 C 
BRANCH  15  16
ATOM     16  O   UNL     1      -4.210   2.566  -1.755  0.00  0.00    -0.381 OA
ATOM     17  C   UNL     1      -5.519   2.031  -1.548  0.00  0.00    +0.194 C 
ENDBRANCH  15  16
ENDBRANCH  14  15
ENDBRANCH   8  14
ENDBRANCH   1  10
BRANCH   1  18
ATOM     18  C   UNL     1      -0.846   3.697   1.664  0.00  0.00    +0.081 C 
BRANCH  18  19
ATOM     19  C   UNL     1      -0.652   3.860   3.173  0.00  0.00    +0.027 C 
BRANCH  19  20
ATOM     20  C   UNL     1      -1.307   5.164   3.634  0.00  0.00    +0.115 C 
BRANCH  20  21
ATOM     21  N   UNL     1      -1.121   5.319   5.079  0.00  0.00    -0.255 N 
ATOM     22  C   UNL     1      -2.027   4.820   5.904  0.00  0.00    +0.258 C 
ATOM     23  O   UNL     1      -3.011   4.234   5.494  0.00  0.00    -0.269 OA
ATOM     24  C   UNL     1      -1.781   5.011   7.349  0.00  0.00    +0.077 C 
ATOM     25  C   UNL     1      -2.523   4.614   8.412  0.00  0.00    +0.028 C 
ATOM     26  S   UNL     1      -0.235   5.909   7.310  0.00  0.00    -0.061 S 
ATOM     27  C   UNL     1      -0.029   5.963   5.537  0.00  0.00    +0.121 C 
ATOM     28  S   UNL     1       1.246   6.666   4.636  0.00  0.00    -0.027 S 
BRANCH  25  29
ATOM     29  C   UNL     1      -2.148   5.037   9.769  0.00  0.00    -0.024 A 
ATOM     30  C   UNL     1      -1.113   5.959   9.958  0.00  0.00    +0.008 A 
ATOM     31  C   UNL     1      -0.767   6.350  11.234  0.00  0.00    +0.001 A 
ATOM     32  C   UNL     1      -1.441   5.833  12.327  0.00  0.00    +0.000 A 
ATOM     33  C   UNL     1      -2.467   4.921  12.149  0.00  0.00    +0.001 A 
ATOM     34  C   UNL     1      -2.829   4.524  10.879  0.00  0.00    +0.008 A 
ENDBRANCH  25  29
ENDBRANCH  20  21
ENDBRANCH  19  20
ENDBRANCH  18  19
ENDBRANCH   1  18
TORSDOF 10
