REMARK  Name = ZINC39521062
REMARK  7 active torsions:
REMARK  status: ('A' for Active; 'I' for Inactive)
REMARK    1  A    between atoms: C_4  and  C_7
REMARK    2  A    between atoms: C_7  and  N_8
REMARK    3  A    between atoms: C_9  and  S_28
REMARK    4  A    between atoms: C_18  and  C_21
REMARK    5  A    between atoms: C_26  and  O_27
REMARK    6  A    between atoms: S_28  and  O_31
REMARK    7  A    between atoms: O_31  and  C_32
REMARK                            x       y       z     vdW  Elec       q    Type
REMARK                         _______ _______ _______ _____ _____    ______ ____
ROOT
ATOM      1  N   UNL     1       2.492   1.187   0.775  0.00  0.00    +0.403 N 
ATOM      2  C   UNL     1       2.088  -0.131   0.266  0.00  0.00    +0.120 C 
ATOM      3  C   UNL     1       3.326  -0.922  -0.162  0.00  0.00    +0.010 C 
ATOM      4  C   UNL     1       4.121  -0.112  -1.189  0.00  0.00    -0.001 C 
ATOM      5  C   UNL     1       4.451   1.261  -0.605  0.00  0.00    -0.012 C 
ATOM      6  C   UNL     1       3.121   1.994  -0.267  0.00  0.00    -0.062 C 
ATOM      7  C   UNL     1       2.325   2.044  -1.559  0.00  0.00    -0.012 C 
ATOM      8  C   UNL     1       1.186   3.054  -1.524  0.00  0.00    -0.001 C 
ATOM      9  C   UNL     1       1.773   4.440  -1.250  0.00  0.00    +0.008 C 
ATOM     10  C   UNL     1       2.439   4.442   0.124  0.00  0.00    +0.021 C 
ATOM     11  C   UNL     1       3.513   3.375   0.235  0.00  0.00    -0.004 C 
ATOM     12  H   UNL     1       3.202   1.017   1.498  0.00  0.00    -0.078 HD
ENDROOT
BRANCH  10  13
ATOM     13  C   UNL     1       3.070   5.792   0.345  0.00  0.00    -0.003 A 
ATOM     14  C   UNL     1       4.045   6.249  -0.521  0.00  0.00    +0.007 A 
ATOM     15  C   UNL     1       4.625   7.488  -0.319  0.00  0.00    +0.001 A 
ATOM     16  C   UNL     1       4.232   8.273   0.749  0.00  0.00    +0.004 A 
ATOM     17  C   UNL     1       3.257   7.820   1.617  0.00  0.00    +0.046 A 
ATOM     18  C   UNL     1       2.670   6.580   1.414  0.00  0.00    +0.120 A 
BRANCH  18  19
ATOM     19  O   UNL     1       1.707   6.135   2.264  0.00  0.00    -0.506 OA
ATOM     20  H   UNL     1       2.048   5.634   3.017  0.00  0.00    +0.292 HD
ENDBRANCH  18  19
ENDBRANCH  10  13
BRANCH   2  21
ATOM     21  S   UNL     1       1.233  -1.037   1.589  0.00  0.00    +0.108 S 
ATOM     22  O   UNL     1       2.179  -1.600   2.487  0.00  0.00    -0.138 OA
ATOM     23  O   UNL     1       0.137  -0.274   2.075  0.00  0.00    -0.138 OA
BRANCH  21  24
ATOM     24  O   UNL     1       0.596  -2.233   0.895  0.00  0.00    -0.347 OA
BRANCH  24  25
ATOM     25  C   UNL     1       0.254  -3.243   1.738  0.00  0.00    +0.156 A 
ATOM     26  C   UNL     1       1.158  -4.260   2.007  0.00  0.00    +0.048 A 
ATOM     27  C   UNL     1       0.807  -5.285   2.865  0.00  0.00    +0.004 A 
ATOM     28  C   UNL     1      -0.444  -5.298   3.453  0.00  0.00    +0.000 A 
ATOM     29  C   UNL     1      -1.347  -4.285   3.186  0.00  0.00    +0.004 A 
ATOM     30  C   UNL     1      -0.999  -3.255   2.334  0.00  0.00    +0.048 A 
ENDBRANCH  24  25
ENDBRANCH  21  24
ENDBRANCH   2  21
BRANCH   1  31
ATOM     31  C   UNL     1       1.353   1.825   1.427  0.00  0.00    -0.039 C 
BRANCH  31  35
ATOM     32  C   UNL     1      -2.083   1.528  -1.094  0.00  0.00    +0.000 A 
ATOM     33  C   UNL     1      -1.245   0.440  -0.937  0.00  0.00    +0.000 A 
ATOM     34  C   UNL     1      -0.133   0.536  -0.121  0.00  0.00    +0.002 A 
ATOM     35  C   UNL     1       0.141   1.721   0.537  0.00  0.00    -0.064 A 
ATOM     36  C   UNL     1      -0.696   2.809   0.379  0.00  0.00    +0.002 A 
ATOM     37  C   UNL     1      -1.809   2.712  -0.436  0.00  0.00    +0.000 A 
ENDBRANCH  31  35
ENDBRANCH   1  31
TORSDOF 7
