REMARK  Name = ZINC63658842
REMARK  11 active torsions:
REMARK  status: ('A' for Active; 'I' for Inactive)
REMARK    1  A    between atoms: C_1  and  C_2
REMARK    2  A    between atoms: C_4  and  C_33
REMARK    3  A    between atoms: C_6  and  N_8
REMARK    4  A    between atoms: N_8  and  C_9
REMARK    5  A    between atoms: C_9  and  N_11
REMARK    6  A    between atoms: N_11  and  C_12
REMARK    7  A    between atoms: N_11  and  C_26
REMARK    8  A    between atoms: C_12  and  C_13
REMARK    9  A    between atoms: C_13  and  C_14
REMARK   10  A    between atoms: C_22  and  C_24
REMARK   11  A    between atoms: C_26  and  C_27
REMARK                            x       y       z     vdW  Elec       q    Type
REMARK                         _______ _______ _______ _____ _____    ______ ____
ROOT
ATOM      1  N   UNL     1       0.267  -2.819   4.717  0.00  0.00    -0.306 N 
ENDROOT
BRANCH   1   2
ATOM      2  C   UNL     1       0.151  -2.134   3.562  0.00  0.00    +0.137 C 
ATOM      3  S   UNL     1       0.127  -0.423   3.580  0.00  0.00    -0.018 S 
BRANCH   2   4
ATOM      4  N   UNL     1       0.053  -2.797   2.392  0.00  0.00    -0.297 N 
ATOM      5  H   UNL     1      -0.015  -3.765   2.388  0.00  0.00    +0.154 HD
BRANCH   4  11
ATOM      6  C   UNL     1       1.851   0.834  -0.391  0.00  0.00    +0.044 C 
ATOM      7  C   UNL     1       0.909  -0.325  -0.191  0.00  0.00    -0.048 A 
ATOM      8  C   UNL     1       0.039  -0.690  -1.201  0.00  0.00    +0.006 A 
ATOM      9  C   UNL     1      -0.827  -1.754  -1.022  0.00  0.00    -0.048 A 
ATOM     10  C   UNL     1      -0.825  -2.454   0.169  0.00  0.00    +0.026 A 
ATOM     11  C   UNL     1       0.048  -2.090   1.186  0.00  0.00    +0.033 A 
ATOM     12  C   UNL     1       0.920  -1.025   1.000  0.00  0.00    +0.026 A 
ATOM     13  C   UNL     1      -1.774  -2.148  -2.126  0.00  0.00    +0.044 C 
ENDBRANCH   4  11
ENDBRANCH   2   4
ENDBRANCH   1   2
BRANCH   1  14
ATOM     14  C   UNL     1       0.374  -2.099   5.988  0.00  0.00    +0.111 C 
BRANCH  14  15
ATOM     15  C   UNL     1      -1.025  -1.869   6.563  0.00  0.00    +0.052 C 
BRANCH  15  16
ATOM     16  C   UNL     1      -0.915  -1.128   7.870  0.00  0.00    -0.037 C 
ATOM     17  C   UNL     1       0.220  -0.707   8.474  0.00  0.00    +0.001 A 
ATOM     18  C   UNL     1       1.637  -0.810   8.107  0.00  0.00    +0.030 A 
ATOM     19  C   UNL     1       2.569  -0.280   8.934  0.00  0.00    +0.042 A 
ATOM     20  C   UNL     1       2.214   0.364  10.129  0.00  0.00    +0.022 A 
ATOM     21  C   UNL     1       0.933   0.497  10.531  0.00  0.00    +0.027 A 
ATOM     22  C   UNL     1      -0.128  -0.022   9.740  0.00  0.00    +0.043 A 
ATOM     23  N   UNL     1      -1.428  -0.020   9.912  0.00  0.00    -0.378 N 
ATOM     24  C   UNL     1      -2.052  -0.698   8.771  0.00  0.00    +0.103 C 
ATOM     25  C   UNL     1      -2.980   0.263   8.025  0.00  0.00    +0.035 C 
ATOM     26 CL   UNL     1       4.247  -0.399   8.504  0.00  0.00    -0.084 Cl
ATOM     27  H   UNL     1      -1.898   0.368  10.666  0.00  0.00    +0.160 HD
ENDBRANCH  15  16
ENDBRANCH  14  15
ENDBRANCH   1  14
BRANCH   1  28
ATOM     28  C   UNL     1       0.287  -4.284   4.701  0.00  0.00    +0.162 C 
BRANCH  28  29
ATOM     29  C   UNL     1       1.709  -4.765   4.565  0.00  0.00    +0.058 A 
ATOM     30  C   UNL     1       2.428  -5.099   5.697  0.00  0.00    +0.025 A 
ATOM     31  C   UNL     1       3.735  -5.541   5.561  0.00  0.00    +0.003 A 
ATOM     32  C   UNL     1       4.272  -5.631   4.286  0.00  0.00    +0.020 A 
ATOM     33  C   UNL     1       3.493  -5.279   3.201  0.00  0.00    +0.111 A 
ATOM     34  N   UNL     1       2.251  -4.868   3.367  0.00  0.00    -0.258 NA
ENDBRANCH  28  29
ENDBRANCH   1  28
TORSDOF 8
