REMARK  Name = ZINC19385730
REMARK  3 active torsions:
REMARK  status: ('A' for Active; 'I' for Inactive)
REMARK    1  A    between atoms: C_8  and  N_12
REMARK    2  A    between atoms: C_13  and  C_15
REMARK    3  A    between atoms: C_20  and  O_21
REMARK                            x       y       z     vdW  Elec       q    Type
REMARK                         _______ _______ _______ _____ _____    ______ ____
ROOT
ATOM      1  N   UNL     1      -1.263   5.978   0.047  0.00  0.00    -0.307 N 
ATOM      2  C   UNL     1      -0.085   5.324   0.032  0.00  0.00    +0.248 C 
ATOM      3  O   UNL     1       0.958   5.950   0.026  0.00  0.00    -0.270 OA
ATOM      4  H   UNL     1      -2.206   5.411   0.052  0.00  0.00    +0.149 HD
ENDROOT
BRANCH   1  12
ATOM      5  C   UNL     1      -3.782  11.486  -1.001  0.00  0.00    +0.000 A 
ATOM      6  C   UNL     1      -3.063  12.162  -0.032  0.00  0.00    +0.002 A 
ATOM      7  C   UNL     1      -2.187  11.471   0.782  0.00  0.00    +0.023 A 
ATOM      8  C   UNL     1      -2.029  10.098   0.626  0.00  0.00    +0.030 A 
ATOM      9  C   UNL     1      -2.751   9.422  -0.344  0.00  0.00    -0.025 A 
ATOM     10  C   UNL     1      -3.626  10.123  -1.157  0.00  0.00    +0.005 A 
ATOM     11  C   UNL     1      -2.608   7.935  -0.538  0.00  0.00    +0.060 C 
ATOM     12  C   UNL     1      -1.289   7.442   0.055  0.00  0.00    +0.095 C 
ATOM     13  C   UNL     1      -1.174   7.950   1.499  0.00  0.00    +0.124 C 
ATOM     14  N   UNL     1      -1.130   9.418   1.456  0.00  0.00    -0.342 N 
ATOM     15  H   UNL     1      -0.400   9.964   2.071  0.00  0.00    +0.146 HD
ENDBRANCH   1  12
BRANCH   2  16
ATOM     16  C   UNL     1      -0.059   3.849   0.023  0.00  0.00    +0.078 A 
ATOM     17  C   UNL     1      -1.255   3.126   0.031  0.00  0.00    +0.017 A 
ATOM     18  C   UNL     1      -1.224   1.748   0.017  0.00  0.00    +0.001 A 
ATOM     19  C   UNL     1      -0.013   1.076   0.008  0.00  0.00    +0.004 A 
ATOM     20  C   UNL     1       1.176   1.778   0.000  0.00  0.00    +0.046 A 
ATOM     21  C   UNL     1       1.164   3.165   0.008  0.00  0.00    +0.129 A 
BRANCH  21  22
ATOM     22  O   UNL     1       2.331   3.857   0.001  0.00  0.00    -0.506 OA
ATOM     23  H   UNL     1       3.290   3.318  -0.011  0.00  0.00    +0.292 HD
ENDBRANCH  21  22
ENDBRANCH   2  16
TORSDOF 3
