REMARK  Name = ZINC39528114
REMARK  8 active torsions:
REMARK  status: ('A' for Active; 'I' for Inactive)
REMARK    1  A    between atoms: C_4  and  C_7
REMARK    2  A    between atoms: C_7  and  C_8
REMARK    3  A    between atoms: C_10  and  C_31
REMARK    4  A    between atoms: C_13  and  N_14
REMARK    5  A    between atoms: C_18  and  S_21
REMARK    6  A    between atoms: S_21  and  O_24
REMARK    7  A    between atoms: O_24  and  C_25
REMARK    8  A    between atoms: C_36  and  O_37
REMARK                            x       y       z     vdW  Elec       q    Type
REMARK                         _______ _______ _______ _____ _____    ______ ____
ROOT
ATOM      1  C   UNL     1       4.450  -1.382   0.505  0.00  0.00    -0.021 A 
ATOM      2  C   UNL     1       5.428  -0.570   1.042  0.00  0.00    +0.014 A 
ATOM      3  C   UNL     1       5.954  -0.855   2.301  0.00  0.00    -0.014 A 
ATOM      4  C   UNL     1       5.490  -1.960   3.015  0.00  0.00    +0.010 A 
ATOM      5  C   UNL     1       4.513  -2.768   2.474  0.00  0.00    +0.024 A 
ATOM      6  C   UNL     1       3.986  -2.479   1.220  0.00  0.00    +0.033 A 
ENDROOT
BRANCH   6   7
ATOM      7  N   UNL     1       2.993  -3.296   0.677  0.00  0.00    -0.331 N 
ATOM      8  C   UNL     1       3.334  -4.390  -0.246  0.00  0.00    +0.086 C 
ATOM      9  C   UNL     1       2.448  -4.270  -1.490  0.00  0.00    -0.061 C 
ATOM     10  N   UNL     1       1.038  -4.237  -1.084  0.00  0.00    +0.398 N 
ATOM     11  C   UNL     1       0.773  -3.029  -0.293  0.00  0.00    +0.133 C 
ATOM     12  C   UNL     1       1.576  -3.091   1.015  0.00  0.00    +0.115 C 
ATOM     13  H   UNL     1       0.452  -4.234  -1.906  0.00  0.00    -0.083 HD
ATOM     14  H   UNL     1       0.829  -5.053  -0.529  0.00  0.00    -0.083 HD
BRANCH  11  15
ATOM     15  S   UNL     1      -0.998  -2.933   0.091  0.00  0.00    +0.109 S 
ATOM     16  O   UNL     1      -1.742  -2.688  -1.094  0.00  0.00    -0.138 OA
ATOM     17  O   UNL     1      -1.365  -3.985   0.973  0.00  0.00    -0.138 OA
BRANCH  15  18
ATOM     18  O   UNL     1      -1.151  -1.663   0.915  0.00  0.00    -0.347 OA
BRANCH  18  19
ATOM     19  C   UNL     1      -1.089  -0.518   0.185  0.00  0.00    +0.156 A 
ATOM     20  C   UNL     1       0.128   0.120  -0.004  0.00  0.00    +0.048 A 
ATOM     21  C   UNL     1       0.188   1.283  -0.748  0.00  0.00    +0.004 A 
ATOM     22  C   UNL     1      -0.963   1.811  -1.302  0.00  0.00    +0.000 A 
ATOM     23  C   UNL     1      -2.177   1.176  -1.115  0.00  0.00    +0.004 A 
ATOM     24  C   UNL     1      -2.242   0.010  -0.378  0.00  0.00    +0.048 A 
ENDBRANCH  18  19
ENDBRANCH  15  18
ENDBRANCH  11  15
ENDBRANCH   6   7
BRANCH   3  25
ATOM     25  C   UNL     1       7.005   0.016   2.881  0.00  0.00    +0.024 A 
ATOM     26  C   UNL     1       8.129   0.351   2.128  0.00  0.00    +0.012 A 
ATOM     27  C   UNL     1       9.105   1.162   2.672  0.00  0.00    +0.001 A 
ATOM     28  C   UNL     1       8.971   1.643   3.963  0.00  0.00    +0.004 A 
ATOM     29  C   UNL     1       7.861   1.316   4.718  0.00  0.00    +0.046 A 
ATOM     30  C   UNL     1       6.871   0.508   4.182  0.00  0.00    +0.125 A 
BRANCH  30  31
ATOM     31  O   UNL     1       5.776   0.191   4.921  0.00  0.00    -0.506 OA
ATOM     32  H   UNL     1       5.876  -0.613   5.448  0.00  0.00    +0.292 HD
ENDBRANCH  30  31
ENDBRANCH   3  25
BRANCH   1  33
ATOM     33  C   UNL     1       3.881  -1.074  -0.856  0.00  0.00    +0.072 C 
BRANCH  33  37
ATOM     34  C   UNL     1       6.024   2.186  -2.596  0.00  0.00    +0.000 A 
ATOM     35  C   UNL     1       6.468   0.889  -2.781  0.00  0.00    +0.000 A 
ATOM     36  C   UNL     1       5.774  -0.166  -2.218  0.00  0.00    +0.004 A 
ATOM     37  C   UNL     1       4.638   0.076  -1.469  0.00  0.00    -0.043 A 
ATOM     38  C   UNL     1       4.194   1.372  -1.284  0.00  0.00    +0.004 A 
ATOM     39  C   UNL     1       4.887   2.427  -1.848  0.00  0.00    +0.000 A 
ENDBRANCH  33  37
ENDBRANCH   1  33
TORSDOF 8
