REMARK  Name = ZINC36506168
REMARK  10 active torsions:
REMARK  status: ('A' for Active; 'I' for Inactive)
REMARK    1  A    between atoms: C_1  and  C_2
REMARK    2  A    between atoms: C_5  and  S_8
REMARK    3  A    between atoms: S_8  and  C_11
REMARK    4  A    between atoms: C_11  and  N_12
REMARK    5  A    between atoms: C_13  and  C_15
REMARK    6  A    between atoms: C_15  and  C_17
REMARK    7  A    between atoms: C_15  and  N_23
REMARK    8  A    between atoms: N_23  and  C_24
REMARK    9  A    between atoms: C_24  and  C_25
REMARK   10  A    between atoms: C_30  and  C_32
REMARK                            x       y       z     vdW  Elec       q    Type
REMARK                         _______ _______ _______ _____ _____    ______ ____
ROOT
ATOM      1  C   UNL     1       2.947  -5.093   3.908  0.00  0.00    +0.166 C 
ENDROOT
BRANCH   1   2
ATOM      2  C   UNL     1       4.330  -4.769   3.339  0.00  0.00    +0.019 C 
ATOM      3  C   UNL     1       5.378  -4.884   4.448  0.00  0.00    +0.006 C 
ATOM      4  C   UNL     1       6.761  -4.561   3.879  0.00  0.00    +0.000 C 
ATOM      5  C   UNL     1       6.762  -3.136   3.321  0.00  0.00    +0.000 C 
ATOM      6  C   UNL     1       5.715  -3.021   2.212  0.00  0.00    +0.000 C 
ATOM      7  C   UNL     1       4.332  -3.345   2.781  0.00  0.00    +0.006 C 
ENDBRANCH   1   2
BRANCH   1   9
ATOM      8  N   UNL     1       1.462  -3.881   2.345  0.00  0.00    -0.295 N 
ATOM      9  C   UNL     1       1.927  -5.061   2.799  0.00  0.00    +0.235 C 
ATOM     10  O   UNL     1       1.526  -6.098   2.315  0.00  0.00    -0.274 OA
ATOM     11  H   UNL     1       1.722  -3.056   2.783  0.00  0.00    +0.150 HD
BRANCH   8  12
ATOM     12  C   UNL     1       0.562  -3.844   1.190  0.00  0.00    +0.278 C 
BRANCH  12  13
ATOM     13  S   UNL     1      -1.158  -3.809   1.764  0.00  0.00    +0.013 S 
ATOM     14  O   UNL     1      -1.360  -4.797   2.765  0.00  0.00    -0.168 OA
ATOM     15  O   UNL     1      -2.042  -3.710   0.655  0.00  0.00    -0.168 OA
BRANCH  13  20
ATOM     16  C   UNL     1      -1.724   1.453   4.660  0.00  0.00    +0.044 C 
ATOM     17  C   UNL     1      -1.582   0.139   3.937  0.00  0.00    -0.050 A 
ATOM     18  C   UNL     1      -1.847   0.064   2.582  0.00  0.00    +0.005 A 
ATOM     19  C   UNL     1      -1.718  -1.142   1.918  0.00  0.00    +0.027 A 
ATOM     20  C   UNL     1      -1.323  -2.272   2.609  0.00  0.00    +0.090 A 
ATOM     21  C   UNL     1      -1.057  -2.197   3.964  0.00  0.00    +0.027 A 
ATOM     22  C   UNL     1      -1.182  -0.990   4.627  0.00  0.00    +0.005 A 
ENDBRANCH  13  20
ENDBRANCH  12  13
ENDBRANCH   8  12
ENDBRANCH   1   9
BRANCH   1  23
ATOM     23  N   UNL     1       2.968  -6.426   4.515  0.00  0.00    -0.278 N 
ATOM     24  C   UNL     1       2.685  -6.575   5.824  0.00  0.00    +0.248 C 
ATOM     25  O   UNL     1       2.462  -5.599   6.513  0.00  0.00    -0.270 OA
BRANCH  24  26
ATOM     26  C   UNL     1       2.645  -7.926   6.421  0.00  0.00    +0.037 A 
ATOM     27  C   UNL     1       3.422  -8.954   5.883  0.00  0.00    +0.016 A 
ATOM     28  C   UNL     1       3.381 -10.212   6.444  0.00  0.00    +0.039 A 
ATOM     29  C   UNL     1       2.570 -10.458   7.542  0.00  0.00    +0.123 A 
ATOM     30  C   UNL     1       1.797  -9.441   8.081  0.00  0.00    +0.039 A 
ATOM     31  C   UNL     1       1.835  -8.177   7.531  0.00  0.00    +0.016 A 
ATOM     32  F   UNL     1       2.533 -11.693   8.088  0.00  0.00    -0.205 F 
ENDBRANCH  24  26
BRANCH  23  33
ATOM     33  C   UNL     1       3.297  -7.597   3.698  0.00  0.00    +0.183 C 
BRANCH  33  34
ATOM     34  C   UNL     1       4.774  -7.602   3.400  0.00  0.00    +0.122 A 
ATOM     35  C   UNL     1       5.746  -8.000   4.241  0.00  0.00    +0.046 A 
ATOM     36  C   UNL     1       6.972  -7.838   3.556  0.00  0.00    +0.041 A 
ATOM     37  C   UNL     1       6.677  -7.351   2.337  0.00  0.00    +0.195 A 
ATOM     38  O   UNL     1       5.344  -7.216   2.246  0.00  0.00    -0.466 OA
ENDBRANCH  33  34
ENDBRANCH  23  33
ENDBRANCH   1  23
TORSDOF 9
