REMARK  Name = ZINC14595900
REMARK  7 active torsions:
REMARK  status: ('A' for Active; 'I' for Inactive)
REMARK    1  A    between atoms: C_1  and  C_2
REMARK    2  A    between atoms: C_4  and  C_36
REMARK    3  A    between atoms: N_11  and  C_12
REMARK    4  A    between atoms: C_12  and  C_13
REMARK    5  A    between atoms: C_19  and  C_21
REMARK    6  A    between atoms: C_21  and  N_22
REMARK    7  A    between atoms: C_30  and  C_32
REMARK                            x       y       z     vdW  Elec       q    Type
REMARK                         _______ _______ _______ _____ _____    ______ ____
ROOT
ATOM      1  C   UNL     1      -3.386   4.402  12.773  0.00  0.00    +0.044 C 
ATOM      2  C   UNL     1      -3.000   3.802  11.446  0.00  0.00    -0.049 A 
ATOM      3  C   UNL     1      -3.160   4.529  10.275  0.00  0.00    +0.009 A 
ATOM      4  C   UNL     1      -2.817   4.007   9.055  0.00  0.00    -0.024 A 
ATOM      5  C   UNL     1      -2.284   2.701   8.952  0.00  0.00    +0.083 A 
ATOM      6  C   UNL     1      -2.136   1.990  10.165  0.00  0.00    +0.041 A 
ATOM      7  C   UNL     1      -2.483   2.521  11.382  0.00  0.00    +0.020 A 
ATOM      8  S   UNL     1      -1.465   0.440   9.614  0.00  0.00    -0.052 S 
ATOM      9  C   UNL     1      -1.416   0.823   7.869  0.00  0.00    +0.168 A 
ATOM     10  N   UNL     1      -1.899   2.043   7.837  0.00  0.00    -0.224 NA
ATOM     11  N   UNL     1      -0.985   0.031   6.818  0.00  0.00    -0.245 N 
ATOM     12  C   UNL     1      -1.033   0.502   5.556  0.00  0.00    +0.239 C 
ATOM     13  O   UNL     1      -1.362   1.651   5.349  0.00  0.00    -0.273 OA
ATOM     14  C   UNL     1      -3.009   4.834   7.810  0.00  0.00    +0.046 C 
ENDROOT
BRANCH  11  15
ATOM     15  C   UNL     1      -0.476  -1.318   7.077  0.00  0.00    +0.150 C 
BRANCH  15  16
ATOM     16  C   UNL     1       0.989  -1.244   7.423  0.00  0.00    -0.030 A 
ATOM     17  C   UNL     1       1.942  -1.435   6.440  0.00  0.00    +0.005 A 
ATOM     18  C   UNL     1       3.286  -1.362   6.756  0.00  0.00    +0.000 A 
ATOM     19  C   UNL     1       3.677  -1.110   8.057  0.00  0.00    +0.000 A 
ATOM     20  C   UNL     1       2.724  -0.924   9.042  0.00  0.00    +0.000 A 
ATOM     21  C   UNL     1       1.380  -0.992   8.725  0.00  0.00    +0.005 A 
ENDBRANCH  15  16
ENDBRANCH  11  15
BRANCH  12  22
ATOM     22  C   UNL     1      -0.678  -0.399   4.401  0.00  0.00    +0.214 C 
BRANCH  22  23
ATOM     23  N   UNL     1      -0.923   0.304   3.140  0.00  0.00    -0.215 N 
ATOM     24  C   UNL     1      -0.006   1.060   2.502  0.00  0.00    +0.247 C 
ATOM     25  O   UNL     1       1.135   1.280   2.850  0.00  0.00    -0.273 OA
ATOM     26  C   UNL     1      -0.699   1.576   1.262  0.00  0.00    +0.115 C 
ATOM     27  C   UNL     1       0.016   1.082   0.009  0.00  0.00    +0.035 C 
ATOM     28  C   UNL     1      -0.718   1.592  -1.234  0.00  0.00    +0.003 C 
ATOM     29  C   UNL     1      -0.750   3.121  -1.215  0.00  0.00    +0.000 C 
ATOM     30  C   UNL     1      -1.491   3.601   0.035  0.00  0.00    +0.006 C 
ATOM     31  C   UNL     1      -0.761   3.099   1.283  0.00  0.00    +0.018 C 
ATOM     32  C   UNL     1      -1.513   3.561   2.533  0.00  0.00    +0.010 C 
ATOM     33  N   UNL     1      -2.049   1.004   1.344  0.00  0.00    -0.285 N 
ATOM     34  C   UNL     1      -2.086   0.275   2.476  0.00  0.00    +0.310 C 
ATOM     35  O   UNL     1      -3.064  -0.340   2.853  0.00  0.00    -0.252 OA
ATOM     36  H   UNL     1      -2.772   1.127   0.709  0.00  0.00    +0.151 HD
ENDBRANCH  22  23
ENDBRANCH  12  22
TORSDOF 4
