REMARK  Name = ZINC00821071
REMARK  9 active torsions:
REMARK  status: ('A' for Active; 'I' for Inactive)
REMARK    1  A    between atoms: C_1  and  C_2
REMARK    2  A    between atoms: C_3  and  C_30
REMARK    3  A    between atoms: C_4  and  C_21
REMARK    4  A    between atoms: C_10  and  C_15
REMARK    5  A    between atoms: C_24  and  O_29
REMARK    6  A    between atoms: C_25  and  O_27
REMARK    7  A    between atoms: O_27  and  C_28
REMARK    8  A    between atoms: C_30  and  O_32
REMARK    9  A    between atoms: O_32  and  C_33
REMARK                            x       y       z     vdW  Elec       q    Type
REMARK                         _______ _______ _______ _____ _____    ______ ____
ROOT
ATOM      1  C   UNL     1      -2.640   4.190   0.609  0.00  0.00    +0.061 C 
ATOM      2  C   UNL     1      -1.318   3.536   0.301  0.00  0.00    +0.031 C 
ATOM      3  C   UNL     1      -0.200   4.281   0.254  0.00  0.00    +0.154 C 
ATOM      4  C   UNL     1       1.133   3.666  -0.053  0.00  0.00    +0.073 C 
ATOM      5  C   UNL     1       1.096   2.170   0.131  0.00  0.00    +0.025 C 
ATOM      6  C   UNL     1      -0.081   1.509   0.180  0.00  0.00    +0.049 C 
ATOM      7  N   UNL     1      -1.264   2.190   0.072  0.00  0.00    -0.260 NA
ATOM      8  C   UNL     1      -0.124   0.011   0.342  0.00  0.00    +0.064 C 
ATOM      9  C   UNL     1       1.079  -0.448   1.172  0.00  0.00    +0.032 C 
ATOM     10  C   UNL     1       2.359  -0.005   0.454  0.00  0.00    +0.088 C 
ATOM     11  C   UNL     1       2.317   1.485   0.254  0.00  0.00    +0.162 C 
ATOM     12  O   UNL     1       3.359   2.109   0.198  0.00  0.00    -0.292 OA
ENDROOT
BRANCH   9  13
ATOM     13  C   UNL     1       1.063  -1.949   1.298  0.00  0.00    -0.044 A 
ATOM     14  C   UNL     1       1.113  -2.739   0.165  0.00  0.00    +0.004 A 
ATOM     15  C   UNL     1       1.103  -4.117   0.282  0.00  0.00    +0.000 A 
ATOM     16  C   UNL     1       1.034  -4.704   1.531  0.00  0.00    +0.000 A 
ATOM     17  C   UNL     1       0.979  -3.914   2.664  0.00  0.00    +0.000 A 
ATOM     18  C   UNL     1       0.994  -2.537   2.548  0.00  0.00    +0.004 A 
ENDBRANCH   9  13
BRANCH   4  19
ATOM     19  C   UNL     1       1.491   3.980  -1.483  0.00  0.00    -0.035 A 
ATOM     20  C   UNL     1       0.683   3.531  -2.511  0.00  0.00    +0.008 A 
ATOM     21  C   UNL     1       1.007   3.816  -3.825  0.00  0.00    +0.049 A 
ATOM     22  C   UNL     1       2.144   4.554  -4.113  0.00  0.00    +0.158 A 
ATOM     23  C   UNL     1       2.957   5.006  -3.078  0.00  0.00    +0.162 A 
ATOM     24  C   UNL     1       2.624   4.721  -1.764  0.00  0.00    +0.053 A 
BRANCH  23  25
ATOM     25  O   UNL     1       4.074   5.731  -3.356  0.00  0.00    -0.491 OA
ATOM     26  C   UNL     1       4.861   6.162  -2.244  0.00  0.00    +0.277 C 
ENDBRANCH  23  25
BRANCH  22  27
ATOM     27  O   UNL     1       2.464   4.836  -5.404  0.00  0.00    -0.503 OA
ATOM     28  H   UNL     1       2.085   5.662  -5.732  0.00  0.00    +0.292 HD
ENDBRANCH  22  27
ENDBRANCH   4  19
BRANCH   3  29
ATOM     29  C   UNL     1      -0.280   5.671   0.504  0.00  0.00    +0.317 C 
ATOM     30  O   UNL     1       0.121   6.123   1.560  0.00  0.00    -0.250 OA
BRANCH  29  31
ATOM     31  O   UNL     1      -0.803   6.495  -0.428  0.00  0.00    -0.461 OA
BRANCH  31  32
ATOM     32  C   UNL     1      -0.854   7.887  -0.108  0.00  0.00    +0.176 C 
ATOM     33  C   UNL     1      -2.182   8.204   0.582  0.00  0.00    +0.044 C 
ATOM     34  C   UNL     1      -2.236   9.694   0.924  0.00  0.00    +0.004 C 
ATOM     35  C   UNL     1      -2.119  10.517  -0.360  0.00  0.00    +0.000 C 
ATOM     36  C   UNL     1      -0.791  10.200  -1.050  0.00  0.00    +0.004 C 
ATOM     37  C   UNL     1      -0.737   8.710  -1.393  0.00  0.00    +0.044 C 
ENDBRANCH  31  32
ENDBRANCH  29  31
ENDBRANCH   3  29
TORSDOF 7
