REMARK  Name = ZINC64228877
REMARK  8 active torsions:
REMARK  status: ('A' for Active; 'I' for Inactive)
REMARK    1  A    between atoms: C_1  and  C_2
REMARK    2  A    between atoms: C_2  and  C_3
REMARK    3  A    between atoms: C_2  and  C_4
REMARK    4  A    between atoms: C_2  and  C_5
REMARK    5  A    between atoms: C_5  and  C_6
REMARK    6  A    between atoms: N_13  and  C_14
REMARK    7  A    between atoms: C_17  and  C_20
REMARK    8  A    between atoms: N_22  and  C_23
REMARK                            x       y       z     vdW  Elec       q    Type
REMARK                         _______ _______ _______ _____ _____    ______ ____
ROOT
ATOM      1  C   UNL     1       1.689   0.129  -1.357  0.00  0.00    +0.078 C 
ATOM      2  C   UNL     1       2.445  -0.401  -2.593  0.00  0.00    +0.024 C 
ATOM      3  C   UNL     1       3.032   0.890  -3.222  0.00  0.00    +0.021 C 
ATOM      4  C   UNL     1       1.907   1.915  -2.934  0.00  0.00    +0.109 C 
ATOM      5  N   UNL     1       1.395   1.549  -1.601  0.00  0.00    -0.283 N 
ATOM      6  C   UNL     1       0.761   2.378  -0.748  0.00  0.00    +0.303 C 
ATOM      7  O   UNL     1       0.462   1.992   0.366  0.00  0.00    -0.253 OA
ATOM      8  N   UNL     1       0.459   3.635  -1.129  0.00  0.00    -0.296 N 
ATOM      9  H   UNL     1       0.698   3.943  -2.017  0.00  0.00    +0.151 HD
ENDROOT
BRANCH   8  10
ATOM     10  C   UNL     1      -0.230   4.536  -0.202  0.00  0.00    +0.074 C 
ATOM     11  C   UNL     1      -1.739   4.303  -0.290  0.00  0.00    +0.023 C 
ATOM     12  C   UNL     1      -2.215   4.580  -1.718  0.00  0.00    +0.014 C 
ATOM     13  C   UNL     1      -1.900   6.030  -2.088  0.00  0.00    +0.075 C 
ATOM     14  C   UNL     1      -0.390   6.263  -1.999  0.00  0.00    +0.014 C 
ATOM     15  C   UNL     1       0.085   5.987  -0.572  0.00  0.00    +0.023 C 
BRANCH  13  16
ATOM     16  C   UNL     1      -2.368   6.303  -3.495  0.00  0.00    +0.216 C 
ATOM     17  O   UNL     1      -2.901   5.424  -4.137  0.00  0.00    -0.276 OA
ATOM     18  N   UNL     1      -2.194   7.524  -4.038  0.00  0.00    -0.318 N 
ATOM     19  C   UNL     1      -2.650   7.789  -5.405  0.00  0.00    +0.128 C 
ATOM     20  H   UNL     1      -1.768   8.228  -3.524  0.00  0.00    +0.148 HD
ENDBRANCH  13  16
ENDBRANCH   8  10
BRANCH   1  21
ATOM     21  C   UNL     1       0.384  -0.648  -1.171  0.00  0.00    +0.028 C 
BRANCH  21  23
ATOM     22  C   UNL     1       1.615  -2.075   0.470  0.00  0.00    +0.010 C 
ATOM     23  C   UNL     1       0.702  -2.087  -0.758  0.00  0.00    -0.036 C 
ATOM     24  C   UNL     1       1.407  -2.804  -1.911  0.00  0.00    +0.010 C 
ATOM     25  C   UNL     1      -0.598  -2.819  -0.420  0.00  0.00    +0.010 C 
ENDBRANCH  21  23
ENDBRANCH   1  21
TORSDOF 4
