REMARK  Name = ZINC43704872
REMARK  10 active torsions:
REMARK  status: ('A' for Active; 'I' for Inactive)
REMARK    1  A    between atoms: C_1  and  C_2
REMARK    2  A    between atoms: C_18  and  C_36
REMARK    3  A    between atoms: C_21  and  O_35
REMARK    4  A    between atoms: C_24  and  C_34
REMARK    5  A    between atoms: C_25  and  C_26
REMARK    6  A    between atoms: C_25  and  O_33
REMARK    7  A    between atoms: C_26  and  C_28
REMARK    8  A    between atoms: C_28  and  O_29
REMARK    9  A    between atoms: O_29  and  C_30
REMARK   10  A    between atoms: C_30  and  C_32
REMARK                            x       y       z     vdW  Elec       q    Type
REMARK                         _______ _______ _______ _____ _____    ______ ____
ROOT
ATOM      1  C   UNL     1      -0.261   1.488   0.160  0.00  0.00    +0.011 C 
ATOM      2  C   UNL     1      -0.135  -0.037   0.100  0.00  0.00    +0.026 C 
ATOM      3  C   UNL     1      -1.492  -0.698   0.391  0.00  0.00    +0.011 C 
ATOM      4  C   UNL     1      -1.351  -1.420   1.755  0.00  0.00    +0.002 C 
ATOM      5  C   UNL     1      -1.899  -0.481   2.829  0.00  0.00    -0.001 C 
ATOM      6  C   UNL     1      -3.431  -0.463   2.677  0.00  0.00    +0.004 C 
ATOM      7  C   UNL     1      -4.059   0.450   3.724  0.00  0.00    +0.005 C 
ATOM      8  C   UNL     1      -3.675  -0.019   5.132  0.00  0.00    +0.006 C 
ATOM      9  C   UNL     1      -4.286   0.949   6.150  0.00  0.00    +0.083 C 
ATOM     10  C   UNL     1      -3.725   2.330   5.896  0.00  0.00    +0.156 C 
ATOM     11  O   UNL     1      -4.392   3.321   6.132  0.00  0.00    -0.293 OA
ATOM     12  C   UNL     1      -2.369   2.460   5.360  0.00  0.00    +0.042 C 
ATOM     13  C   UNL     1      -1.642   1.386   5.057  0.00  0.00    -0.016 C 
ATOM     14  C   UNL     1      -2.147  -0.007   5.253  0.00  0.00    -0.005 C 
ATOM     15  C   UNL     1      -1.562  -0.981   4.227  0.00  0.00    +0.031 C 
ATOM     16  C   UNL     1      -0.084  -1.218   4.440  0.00  0.00    +0.119 C 
ATOM     17  C   UNL     1       0.614  -1.934   3.304  0.00  0.00    +0.041 C 
ATOM     18  C   UNL     1       0.151  -1.668   1.904  0.00  0.00    +0.009 C 
ATOM     19  C   UNL     1       0.859  -0.526   1.174  0.00  0.00    +0.135 C 
ATOM     20  C   UNL     1       0.465  -2.955   1.094  0.00  0.00    +0.015 C 
ATOM     21  C   UNL     1      -1.773  -0.483   6.654  0.00  0.00    +0.016 C 
ENDROOT
BRANCH  19  22
ATOM     22  C   UNL     1       1.233   0.614   2.078  0.00  0.00    +0.202 C 
ATOM     23  O   UNL     1       0.376   1.206   2.689  0.00  0.00    -0.291 OA
BRANCH  22  24
ATOM     24  C   UNL     1       2.678   1.018   2.221  0.00  0.00    +0.309 C 
BRANCH  24  25
ATOM     25  O   UNL     1       2.790   2.039   3.215  0.00  0.00    -0.457 OA
BRANCH  25  26
ATOM     26  C   UNL     1       4.021   2.512   3.466  0.00  0.00    +0.304 C 
ATOM     27  O   UNL     1       4.971   2.075   2.861  0.00  0.00    -0.251 OA
ATOM     28  C   UNL     1       4.217   3.590   4.500  0.00  0.00    +0.136 C 
ENDBRANCH  25  26
ENDBRANCH  24  25
ENDBRANCH  22  24
ENDBRANCH  19  22
BRANCH  19  29
ATOM     29  O   UNL     1       2.039  -1.029   0.529  0.00  0.00    -0.380 OA
ATOM     30  H   UNL     1       2.513  -0.368   0.005  0.00  0.00    +0.211 HD
ENDBRANCH  19  29
BRANCH  16  31
ATOM     31  O   UNL     1       0.632  -0.042   4.808  0.00  0.00    -0.391 OA
ATOM     32  H   UNL     1       1.579  -0.184   4.947  0.00  0.00    +0.210 HD
ENDBRANCH  16  31
TORSDOF 6
