REMARK  Name = ZINC09113688
REMARK  5 active torsions:
REMARK  status: ('A' for Active; 'I' for Inactive)
REMARK    1  A    between atoms: C_1  and  C_2
REMARK    2  A    between atoms: C_2  and  C_3
REMARK    3  A    between atoms: C_9  and  C_10
REMARK    4  A    between atoms: N_12  and  C_19
REMARK    5  A    between atoms: C_19  and  C_20
REMARK                            x       y       z     vdW  Elec       q    Type
REMARK                         _______ _______ _______ _____ _____    ______ ____
ROOT
ATOM      1  C   UNL     1      -7.697   1.004   1.202  0.00  0.00    +0.001 A 
ATOM      2  C   UNL     1      -6.896   2.050   0.784  0.00  0.00    +0.095 A 
ATOM      3  N   UNL     1      -7.458   3.220   1.144  0.00  0.00    -0.342 N 
ATOM      4  C   UNL     1      -8.648   3.006   1.812  0.00  0.00    +0.050 A 
ATOM      5  C   UNL     1      -8.858   1.620   1.876  0.00  0.00    +0.007 A 
ATOM      6  C   UNL     1      -9.995   1.113   2.497  0.00  0.00    +0.010 A 
ATOM      7  C   UNL     1     -10.916   1.979   3.047  0.00  0.00    +0.001 A 
ATOM      8  C   UNL     1     -10.712   3.349   2.982  0.00  0.00    +0.002 A 
ATOM      9  C   UNL     1      -9.586   3.864   2.376  0.00  0.00    +0.026 A 
ENDROOT
BRANCH   1  16
ATOM     10  C   UNL     1      -3.328   0.229  -3.181  0.00  0.00    +0.100 C 
ATOM     11  N   UNL     1      -4.398   0.646  -2.566  0.00  0.00    -0.169 NA
ATOM     12  N   UNL     1      -5.188  -0.218  -1.839  0.00  0.00    -0.152 N 
ATOM     13  C   UNL     1      -6.409   0.109  -1.212  0.00  0.00    +0.152 C 
ATOM     14  N   UNL     1      -7.153   1.123  -1.571  0.00  0.00    -0.283 NA
ATOM     15  C   UNL     1      -6.768  -0.814  -0.101  0.00  0.00    +0.081 C 
ATOM     16  C   UNL     1      -7.457  -0.376   1.016  0.00  0.00    +0.026 C 
ATOM     17  C   UNL     1      -6.349  -2.226  -0.254  0.00  0.00    +0.273 C 
ATOM     18  O   UNL     1      -6.946  -3.124   0.318  0.00  0.00    -0.268 OA
ATOM     19  N   UNL     1      -5.289  -2.492  -1.044  0.00  0.00    -0.152 NA
ATOM     20  C   UNL     1      -4.754  -1.523  -1.743  0.00  0.00    +0.181 C 
ATOM     21  S   UNL     1      -3.316  -1.513  -2.781  0.00  0.00    -0.038 S 
ATOM     22  H   UNL     1      -6.893   1.669  -2.330  0.00  0.00    +0.188 HD
BRANCH  10  24
ATOM     23  C   UNL     1      -2.788   2.480  -4.071  0.00  0.00    +0.011 C 
ATOM     24  C   UNL     1      -2.353   1.014  -4.020  0.00  0.00    +0.061 C 
ENDBRANCH  10  24
ENDBRANCH   1  16
BRANCH   3  25
ATOM     25  C   UNL     1      -6.886   4.540   0.866  0.00  0.00    +0.158 C 
BRANCH  25  26
ATOM     26  C   UNL     1      -6.087   5.002   2.057  0.00  0.00    -0.009 A 
ATOM     27  C   UNL     1      -6.673   5.816   3.008  0.00  0.00    +0.008 A 
ATOM     28  C   UNL     1      -5.941   6.240   4.101  0.00  0.00    +0.020 A 
ATOM     29  C   UNL     1      -4.620   5.850   4.244  0.00  0.00    +0.042 A 
ATOM     30  C   UNL     1      -4.034   5.035   3.292  0.00  0.00    +0.040 A 
ATOM     31  C   UNL     1      -4.769   4.607   2.201  0.00  0.00    +0.047 A 
ATOM     32 CL   UNL     1      -4.035   3.579   1.010  0.00  0.00    -0.083 Cl
ATOM     33 CL   UNL     1      -3.701   6.383   5.616  0.00  0.00    -0.083 Cl
ENDBRANCH  25  26
ENDBRANCH   3  25
TORSDOF 4
