REMARK  Name = ZINC64480165
REMARK  11 active torsions:
REMARK  status: ('A' for Active; 'I' for Inactive)
REMARK    1  A    between atoms: C_1  and  C_2
REMARK    2  A    between atoms: C_7  and  O_33
REMARK    3  A    between atoms: C_13  and  C_15
REMARK    4  A    between atoms: C_15  and  C_16
REMARK    5  A    between atoms: C_16  and  C_17
REMARK    6  A    between atoms: N_19  and  C_20
REMARK    7  A    between atoms: C_20  and  C_21
REMARK    8  A    between atoms: C_21  and  C_22
REMARK    9  A    between atoms: C_25  and  O_31
REMARK   10  A    between atoms: O_31  and  C_32
REMARK   11  A    between atoms: O_33  and  C_34
REMARK                            x       y       z     vdW  Elec       q    Type
REMARK                         _______ _______ _______ _____ _____    ______ ____
ROOT
ATOM      1  C   UNL     1       0.785  -3.925   2.977  0.00  0.00    +0.213 C 
ATOM      2  O   UNL     1       0.129  -4.535   2.159  0.00  0.00    -0.276 OA
ATOM      3  N   UNL     1       1.250  -4.556   4.074  0.00  0.00    -0.315 N 
ATOM      4  H   UNL     1       1.775  -4.068   4.728  0.00  0.00    +0.149 HD
ENDROOT
BRANCH   1   5
ATOM      5  C   UNL     1       1.079  -2.462   2.768  0.00  0.00    +0.096 C 
BRANCH   5   6
ATOM      6  C   UNL     1       0.441  -1.995   1.458  0.00  0.00    +0.024 C 
BRANCH   6  18
ATOM      7  C   UNL     1      -0.019   1.526   0.010  0.00  0.00    +0.013 C 
ATOM      8  C   UNL     1       0.002  -0.004   0.002  0.00  0.00    +0.033 C 
ATOM      9  C   UNL     1       0.705  -0.489  -1.241  0.00  0.00    -0.001 A 
ATOM     10  C   UNL     1      -0.004  -0.514  -2.432  0.00  0.00    +0.011 A 
ATOM     11  C   UNL     1       0.599  -0.943  -3.596  0.00  0.00    +0.046 A 
ATOM     12  C   UNL     1       1.925  -1.353  -3.580  0.00  0.00    +0.124 A 
ATOM     13  C   UNL     1       2.636  -1.332  -2.392  0.00  0.00    +0.092 A 
ATOM     14  C   UNL     1       2.025  -0.903  -1.219  0.00  0.00    +0.139 A 
ATOM     15  O   UNL     1       2.754  -0.916  -0.069  0.00  0.00    -0.425 OA
ATOM     16  C   UNL     1       2.223  -0.312   1.012  0.00  0.00    +0.316 C 
ATOM     17  O   UNL     1       2.898   0.355   1.760  0.00  0.00    -0.250 OA
ATOM     18  C   UNL     1       0.740  -0.510   1.245  0.00  0.00    +0.106 C 
BRANCH  12  19
ATOM     19  O   UNL     1       2.524  -1.772  -4.725  0.00  0.00    -0.495 OA
ATOM     20  C   UNL     1       1.728  -1.766  -5.912  0.00  0.00    +0.277 C 
ENDBRANCH  12  19
ENDBRANCH   6  18
ENDBRANCH   5   6
ENDBRANCH   1   5
BRANCH   3  21
ATOM     21  C   UNL     1       0.964  -5.978   4.277  0.00  0.00    +0.108 C 
BRANCH  21  22
ATOM     22  C   UNL     1       1.603  -6.444   5.587  0.00  0.00    +0.052 C 
BRANCH  22  23
ATOM     23  C   UNL     1       1.308  -7.907   5.796  0.00  0.00    -0.040 C 
ATOM     24  C   UNL     1       2.101  -8.951   5.465  0.00  0.00    +0.002 A 
ATOM     25  C   UNL     1       3.422  -9.037   4.834  0.00  0.00    +0.055 A 
ATOM     26  C   UNL     1       3.983 -10.252   4.621  0.00  0.00    +0.121 A 
ATOM     27  C   UNL     1       3.341 -11.448   4.984  0.00  0.00    +0.047 A 
ATOM     28  C   UNL     1       2.124 -11.472   5.569  0.00  0.00    +0.029 A 
ATOM     29  C   UNL     1       1.426 -10.213   5.847  0.00  0.00    +0.043 A 
ATOM     30  N   UNL     1       0.263  -9.959   6.393  0.00  0.00    -0.380 N 
ATOM     31  C   UNL     1       0.069  -8.505   6.426  0.00  0.00    +0.144 C 
ATOM     32  H   UNL     1      -0.364 -10.621   6.724  0.00  0.00    +0.160 HD
BRANCH  26  33
ATOM     33  O   UNL     1       5.208 -10.316   4.035  0.00  0.00    -0.495 OA
ATOM     34  C   UNL     1       5.761 -11.617   3.829  0.00  0.00    +0.277 C 
ENDBRANCH  26  33
ENDBRANCH  22  23
ENDBRANCH  21  22
ENDBRANCH   3  21
TORSDOF 8
