REMARK  Name = ZINC54616473
REMARK  14 active torsions:
REMARK  status: ('A' for Active; 'I' for Inactive)
REMARK    1  A    between atoms: C_1  and  C_2
REMARK    2  A    between atoms: C_2  and  C_3
REMARK    3  A    between atoms: C_3  and  C_4
REMARK    4  A    between atoms: C_4  and  S_5
REMARK    5  A    between atoms: S_5  and  C_6
REMARK    6  A    between atoms: C_11  and  C_27
REMARK    7  A    between atoms: C_13  and  C_17
REMARK    8  A    between atoms: C_14  and  C_16
REMARK    9  A    between atoms: N_19  and  C_20
REMARK   10  A    between atoms: C_24  and  C_26
REMARK   11  A    between atoms: C_31  and  O_33
REMARK   12  A    between atoms: O_33  and  C_34
REMARK   13  A    between atoms: C_34  and  C_35
REMARK   14  A    between atoms: C_34  and  C_36
REMARK                            x       y       z     vdW  Elec       q    Type
REMARK                         _______ _______ _______ _____ _____    ______ ____
ROOT
ATOM      1  C   UNL     1       1.633  -4.370   2.800  0.00  0.00    +0.210 A 
ATOM      2  N   UNL     1       1.015  -5.029   1.809  0.00  0.00    -0.187 NA
ATOM      3  C   UNL     1       1.171  -6.314   1.976  0.00  0.00    +0.219 A 
ATOM      4  N   UNL     1       1.911  -6.506   3.096  0.00  0.00    -0.220 N 
ATOM      5  N   UNL     1       2.197  -5.242   3.607  0.00  0.00    -0.141 NA
ATOM      6  C   UNL     1       2.296  -7.824   3.593  0.00  0.00    +0.177 C 
ATOM      7  C   UNL     1       1.513  -8.884   2.865  0.00  0.00    +0.060 C 
ATOM      8  C   UNL     1       0.794  -8.634   1.761  0.00  0.00    +0.018 C 
ATOM      9  N   UNL     1       0.708  -7.377   1.213  0.00  0.00    -0.287 N 
ATOM     10  C   UNL     1       0.056  -9.769   1.099  0.00  0.00    +0.061 C 
ATOM     11  H   UNL     1       0.339  -7.238   0.327  0.00  0.00    +0.155 HD
ENDROOT
BRANCH   6  12
ATOM     12  C   UNL     1       3.769  -8.039   3.360  0.00  0.00    -0.015 A 
ATOM     13  C   UNL     1       4.278  -7.999   2.074  0.00  0.00    +0.006 A 
ATOM     14  C   UNL     1       5.629  -8.195   1.856  0.00  0.00    +0.004 A 
ATOM     15  C   UNL     1       6.474  -8.431   2.923  0.00  0.00    +0.045 A 
ATOM     16  C   UNL     1       5.967  -8.471   4.213  0.00  0.00    +0.121 A 
ATOM     17  C   UNL     1       4.612  -8.268   4.430  0.00  0.00    +0.051 A 
BRANCH  16  18
ATOM     18  O   UNL     1       6.797  -8.703   5.264  0.00  0.00    -0.489 OA
BRANCH  18  19
ATOM     19  C   UNL     1       8.195  -8.782   4.981  0.00  0.00    +0.167 C 
ATOM     20  C   UNL     1       8.991  -8.424   6.238  0.00  0.00    +0.051 C 
ATOM     21  C   UNL     1       8.548 -10.205   4.543  0.00  0.00    +0.051 C 
ENDBRANCH  18  19
ENDBRANCH  16  18
ENDBRANCH   6  12
BRANCH   7  22
ATOM     22  C   UNL     1       1.537 -10.206   3.369  0.00  0.00    +0.248 C 
ATOM     23  O   UNL     1       0.892 -10.491   4.362  0.00  0.00    -0.270 OA
ATOM     24  N   UNL     1       2.273 -11.149   2.749  0.00  0.00    -0.282 N 
ATOM     25  H   UNL     1       2.837 -10.909   1.998  0.00  0.00    +0.155 HD
BRANCH  24  26
ATOM     26  C   UNL     1       2.225 -12.476   3.191  0.00  0.00    +0.034 A 
ATOM     27  C   UNL     1       2.322 -13.517   2.277  0.00  0.00    +0.023 A 
ATOM     28  C   UNL     1       2.273 -14.826   2.716  0.00  0.00    +0.002 A 
ATOM     29  C   UNL     1       2.129 -15.099   4.064  0.00  0.00    +0.003 A 
ATOM     30  C   UNL     1       2.032 -14.065   4.976  0.00  0.00    -0.049 A 
ATOM     31  C   UNL     1       2.086 -12.754   4.544  0.00  0.00    +0.026 A 
ATOM     32  C   UNL     1       1.875 -14.367   6.444  0.00  0.00    +0.044 C 
ENDBRANCH  24  26
ENDBRANCH   7  22
BRANCH   1  33
ATOM     33  S   UNL     1       1.686  -2.619   2.986  0.00  0.00    -0.084 S 
BRANCH  33  34
ATOM     34  C   UNL     1       0.734  -1.998   1.573  0.00  0.00    +0.077 C 
BRANCH  34  35
ATOM     35  C   UNL     1       0.700  -0.469   1.613  0.00  0.00    +0.011 C 
BRANCH  35  37
ATOM     36  C   UNL     1      -0.137   1.584   0.461  0.00  0.00    +0.004 C 
ATOM     37  C   UNL     1      -0.103   0.055   0.420  0.00  0.00    -0.003 C 
ENDBRANCH  35  37
ENDBRANCH  34  35
ENDBRANCH  33  34
ENDBRANCH   1  33
TORSDOF 9
