REMARK  Name = ZINC39887977
REMARK  7 active torsions:
REMARK  status: ('A' for Active; 'I' for Inactive)
REMARK    1  A    between atoms: C_1  and  C_2
REMARK    2  A    between atoms: C_5  and  C_8
REMARK    3  A    between atoms: C_8  and  C_9
REMARK    4  A    between atoms: N_15  and  N_16
REMARK    5  A    between atoms: C_17  and  C_18
REMARK    6  A    between atoms: C_21  and  C_23
REMARK    7  A    between atoms: C_25  and  C_30
REMARK                            x       y       z     vdW  Elec       q    Type
REMARK                         _______ _______ _______ _____ _____    ______ ____
ROOT
ATOM      1  N   UNL     1       3.382  -7.827  -3.393  0.00  0.00    -0.152 NA
ATOM      2  C   UNL     1       3.961  -8.268  -4.482  0.00  0.00    +0.181 C 
ENDROOT
BRANCH   1   8
ATOM      3  C   UNL     1       1.508  -4.767  -0.032  0.00  0.00    +0.144 C 
ATOM      4  C   UNL     1       1.575  -6.285  -0.012  0.00  0.00    +0.232 C 
ATOM      5  O   UNL     1       1.137  -6.937   0.912  0.00  0.00    -0.274 OA
ATOM      6  N   UNL     1       2.142  -6.851  -1.064  0.00  0.00    -0.263 N 
ATOM      7  C   UNL     1       2.643  -6.117  -2.118  0.00  0.00    +0.183 C 
ATOM      8  N   UNL     1       3.225  -6.560  -3.214  0.00  0.00    -0.127 NA
ATOM      9  S   UNL     1       2.318  -4.423  -1.649  0.00  0.00    -0.075 S 
ATOM     10  H   UNL     1       2.207  -7.818  -1.096  0.00  0.00    +0.157 HD
BRANCH   3  11
ATOM     11  C   UNL     1       0.059  -4.275  -0.021  0.00  0.00    +0.059 C 
BRANCH  11  16
ATOM     12  C   UNL     1      -0.018   1.503   0.010  0.00  0.00    +0.044 C 
ATOM     13  C   UNL     1       0.002  -0.004   0.002  0.00  0.00    -0.050 A 
ATOM     14  C   UNL     1       0.006  -0.689  -1.199  0.00  0.00    +0.003 A 
ATOM     15  C   UNL     1       0.025  -2.071  -1.206  0.00  0.00    +0.004 A 
ATOM     16  C   UNL     1       0.040  -2.768  -0.013  0.00  0.00    -0.046 A 
ATOM     17  C   UNL     1       0.037  -2.084   1.188  0.00  0.00    +0.004 A 
ATOM     18  C   UNL     1       0.023  -0.702   1.195  0.00  0.00    +0.003 A 
ENDBRANCH  11  16
ENDBRANCH   3  11
ENDBRANCH   1   8
BRANCH   2  19
ATOM     19  C   UNL     1       4.133  -9.661  -4.680  0.00  0.00    +0.148 A 
ATOM     20  C   UNL     1       4.728 -10.257  -5.773  0.00  0.00    +0.051 A 
ATOM     21  C   UNL     1       4.684 -11.639  -5.553  0.00  0.00    +0.050 A 
ATOM     22  C   UNL     1       4.072 -11.835  -4.349  0.00  0.00    +0.137 A 
ATOM     23  O   UNL     1       3.748 -10.635  -3.829  0.00  0.00    -0.454 OA
BRANCH  22  24
ATOM     24  C   UNL     1       3.812 -13.143  -3.719  0.00  0.00    +0.036 A 
ATOM     25  C   UNL     1       4.175 -13.366  -2.388  0.00  0.00    +0.025 A 
ATOM     26  C   UNL     1       3.929 -14.592  -1.806  0.00  0.00    +0.056 A 
ATOM     27  C   UNL     1       3.325 -15.601  -2.536  0.00  0.00    +0.014 A 
ATOM     28  C   UNL     1       2.963 -15.389  -3.854  0.00  0.00    +0.021 A 
ATOM     29  C   UNL     1       3.197 -14.165  -4.449  0.00  0.00    +0.052 A 
ATOM     30 CL   UNL     1       2.736 -13.898  -6.102  0.00  0.00    -0.083 Cl
BRANCH  26  31
ATOM     31  C   UNL     1       4.319 -14.833  -0.371  0.00  0.00    +0.417 C 
ATOM     32  F   UNL     1       3.255 -14.483   0.468  0.00  0.00    -0.166 F 
ATOM     33  F   UNL     1       4.627 -16.186  -0.193  0.00  0.00    -0.166 F 
ATOM     34  F   UNL     1       5.438 -14.055  -0.054  0.00  0.00    -0.166 F 
ENDBRANCH  26  31
ENDBRANCH  22  24
ENDBRANCH   2  19
TORSDOF 6
