REMARK  Name = ZINC53761460
REMARK  6 active torsions:
REMARK  status: ('A' for Active; 'I' for Inactive)
REMARK    1  A    between atoms: C_1  and  C_2
REMARK    2  A    between atoms: C_2  and  C_4
REMARK    3  A    between atoms: C_2  and  N_14
REMARK    4  A    between atoms: C_15  and  C_17
REMARK    5  A    between atoms: C_20  and  N_23
REMARK    6  A    between atoms: C_27  and  C_30
REMARK                            x       y       z     vdW  Elec       q    Type
REMARK                         _______ _______ _______ _____ _____    ______ ____
ROOT
ATOM      1  C   UNL     1       0.765  -1.122   3.551  0.00  0.00    +0.037 A 
ATOM      2  C   UNL     1       2.130  -1.414   3.481  0.00  0.00    +0.015 A 
ATOM      3  C   UNL     1       2.793  -1.869   4.597  0.00  0.00    +0.024 A 
ATOM      4  C   UNL     1       2.105  -2.040   5.796  0.00  0.00    +0.030 A 
ATOM      5  C   UNL     1       0.745  -1.750   5.869  0.00  0.00    +0.024 A 
ATOM      6  C   UNL     1       0.078  -1.289   4.757  0.00  0.00    +0.015 A 
ENDROOT
BRANCH   4   7
ATOM      7  N   UNL     1       2.778  -2.500   6.922  0.00  0.00    -0.329 N 
ATOM      8  C   UNL     1       2.098  -2.571   8.223  0.00  0.00    +0.105 C 
ATOM      9  C   UNL     1       2.935  -1.812   9.258  0.00  0.00    +0.020 C 
ATOM     10  C   UNL     1       4.361  -2.369   9.262  0.00  0.00    +0.016 C 
ATOM     11  C   UNL     1       4.995  -2.164   7.885  0.00  0.00    +0.092 C 
ATOM     12  C   UNL     1       4.179  -2.932   6.833  0.00  0.00    +0.117 C 
BRANCH  11  13
ATOM     13  C   UNL     1       6.409  -2.683   7.900  0.00  0.00    +0.215 C 
ATOM     14  O   UNL     1       6.737  -3.572   7.144  0.00  0.00    -0.276 OA
ATOM     15  N   UNL     1       7.311  -2.158   8.754  0.00  0.00    -0.329 N 
ATOM     16  H   UNL     1       7.048  -1.446   9.359  0.00  0.00    +0.145 HD
ATOM     17  H   UNL     1       8.221  -2.492   8.763  0.00  0.00    +0.145 HD
ENDBRANCH  11  13
ENDBRANCH   4   7
BRANCH   1  19
ATOM     18  N   UNL     1       0.714  -0.473   1.193  0.00  0.00    -0.302 N 
ATOM     19  C   UNL     1       0.051  -0.633   2.355  0.00  0.00    +0.245 C 
ATOM     20  O   UNL     1      -1.135  -0.375   2.419  0.00  0.00    -0.270 OA
ATOM     21  H   UNL     1       1.661  -0.680   1.142  0.00  0.00    +0.150 HD
BRANCH  18  23
ATOM     22  C   UNL     1      -0.033   1.541   0.025  0.00  0.00    +0.036 C 
ATOM     23  C   UNL     1       0.006   0.012   0.006  0.00  0.00    +0.136 C 
BRANCH  23  24
ATOM     24  C   UNL     1       0.723  -0.457  -1.234  0.00  0.00    +0.128 A 
ATOM     25  N   UNL     1       0.144  -0.620  -2.454  0.00  0.00    -0.340 N 
ATOM     26  H   UNL     1      -0.786  -0.457  -2.675  0.00  0.00    +0.167 HD
ATOM     27  C   UNL     1       1.126  -1.059  -3.319  0.00  0.00    +0.066 A 
ATOM     28  C   UNL     1       1.149  -1.393  -4.666  0.00  0.00    +0.028 A 
ATOM     29  C   UNL     1       2.329  -1.809  -5.247  0.00  0.00    +0.002 A 
ATOM     30  C   UNL     1       3.491  -1.896  -4.493  0.00  0.00    +0.002 A 
ATOM     31  C   UNL     1       3.487  -1.572  -3.166  0.00  0.00    +0.030 A 
ATOM     32  C   UNL     1       2.303  -1.147  -2.557  0.00  0.00    +0.089 A 
ATOM     33  N   UNL     1       1.987  -0.760  -1.294  0.00  0.00    -0.231 NA
ENDBRANCH  23  24
ENDBRANCH  18  23
ENDBRANCH   1  19
TORSDOF 5
