REMARK  Name = ZINC35214575
REMARK  11 active torsions:
REMARK  status: ('A' for Active; 'I' for Inactive)
REMARK    1  A    between atoms: C_1  and  C_2
REMARK    2  A    between atoms: C_6  and  C_7
REMARK    3  A    between atoms: C_7  and  N_8
REMARK    4  A    between atoms: N_8  and  C_9
REMARK    5  A    between atoms: C_9  and  C_10
REMARK    6  A    between atoms: C_16  and  C_18
REMARK    7  A    between atoms: C_18  and  N_19
REMARK    8  A    between atoms: N_19  and  C_20
REMARK    9  A    between atoms: C_20  and  C_21
REMARK   10  A    between atoms: N_29  and  C_30
REMARK   11  A    between atoms: C_33  and  N_36
REMARK                            x       y       z     vdW  Elec       q    Type
REMARK                         _______ _______ _______ _____ _____    ______ ____
ROOT
ATOM      1  N   UNL     1      -3.091   2.934   2.036  0.00  0.00    -0.274 N 
ATOM      2  C   UNL     1      -3.877   2.941   0.941  0.00  0.00    +0.307 C 
ATOM      3  O   UNL     1      -3.836   2.011   0.158  0.00  0.00    -0.252 OA
ATOM      4  N   UNL     1      -4.708   3.978   0.714  0.00  0.00    -0.269 N 
ATOM      5  H   UNL     1      -4.692   4.749   1.302  0.00  0.00    +0.156 HD
ENDROOT
BRANCH   4   6
ATOM      6  C   UNL     1      -5.593   3.941  -0.369  0.00  0.00    +0.035 A 
ATOM      7  C   UNL     1      -6.857   4.504  -0.254  0.00  0.00    +0.025 A 
ATOM      8  C   UNL     1      -7.728   4.467  -1.325  0.00  0.00    +0.034 A 
ATOM      9  C   UNL     1      -7.342   3.869  -2.511  0.00  0.00    +0.126 A 
ATOM     10  C   UNL     1      -6.085   3.307  -2.629  0.00  0.00    +0.034 A 
ATOM     11  C   UNL     1      -5.207   3.346  -1.563  0.00  0.00    +0.025 A 
BRANCH   9  12
ATOM     12  N   UNL     1      -8.278   3.830  -3.658  0.00  0.00    +0.056 N 
ATOM     13  O   UNL     1      -9.379   4.321  -3.556  0.00  0.00    -0.126 OA
ATOM     14  O   UNL     1      -7.943   3.308  -4.695  0.00  0.00    -0.126 OA
ENDBRANCH   9  12
ENDBRANCH   4   6
BRANCH   1  15
ATOM     15  C   UNL     1      -2.188   1.807   2.283  0.00  0.00    +0.205 C 
BRANCH  15  17
ATOM     16  N   UNL     1      -2.233  -0.324   3.536  0.00  0.00    -0.291 N 
ATOM     17  C   UNL     1      -2.902   0.760   3.098  0.00  0.00    +0.234 C 
ATOM     18  O   UNL     1      -4.078   0.894   3.360  0.00  0.00    -0.274 OA
BRANCH  16  19
ATOM     19  C   UNL     1      -0.844  -0.544   3.126  0.00  0.00    +0.150 C 
BRANCH  19  25
ATOM     20  C   UNL     1      -0.988  -3.579   2.671  0.00  0.00    +0.044 C 
ATOM     21  C   UNL     1      -0.880  -2.586   1.542  0.00  0.00    -0.039 A 
ATOM     22  C   UNL     1      -0.848  -3.018   0.229  0.00  0.00    +0.011 A 
ATOM     23  C   UNL     1      -0.750  -2.099  -0.763  0.00  0.00    +0.046 A 
ATOM     24  S   UNL     1      -0.701  -0.569   0.155  0.00  0.00    -0.100 S 
ATOM     25  C   UNL     1      -0.819  -1.257   1.798  0.00  0.00    +0.010 A 
ENDBRANCH  19  25
ENDBRANCH  16  19
BRANCH  16  26
ATOM     26  C   UNL     1      -2.895  -1.284   4.424  0.00  0.00    +0.143 C 
BRANCH  26  27
ATOM     27  C   UNL     1      -2.671  -0.879   5.858  0.00  0.00    -0.030 A 
ATOM     28  C   UNL     1      -1.568  -1.349   6.545  0.00  0.00    +0.005 A 
ATOM     29  C   UNL     1      -1.363  -0.977   7.860  0.00  0.00    +0.000 A 
ATOM     30  C   UNL     1      -2.261  -0.136   8.489  0.00  0.00    +0.000 A 
ATOM     31  C   UNL     1      -3.365   0.335   7.802  0.00  0.00    +0.000 A 
ATOM     32  C   UNL     1      -3.567  -0.033   6.485  0.00  0.00    +0.005 A 
ENDBRANCH  26  27
ENDBRANCH  16  26
ENDBRANCH  15  17
ENDBRANCH   1  15
BRANCH   1  33
ATOM     33  C   UNL     1      -3.139   4.054   2.979  0.00  0.00    +0.141 C 
BRANCH  33  34
ATOM     34  C   UNL     1      -2.117   5.114   2.566  0.00  0.00    +0.136 C 
ATOM     35  C   UNL     1      -2.076   6.241   3.620  0.00  0.00    +0.035 C 
ATOM     36  C   UNL     1      -1.925   7.511   2.739  0.00  0.00    +0.031 C 
ATOM     37  C   UNL     1      -2.754   7.106   1.494  0.00  0.00    +0.160 C 
ATOM     38  O   UNL     1      -2.503   5.701   1.317  0.00  0.00    -0.375 OA
ENDBRANCH  33  34
ENDBRANCH   1  33
TORSDOF 10
