REMARK  Name = ZINC39929447
REMARK  16 active torsions:
REMARK  status: ('A' for Active; 'I' for Inactive)
REMARK    1  A    between atoms: C_1  and  C_2
REMARK    2  A    between atoms: C_2  and  O_3
REMARK    3  A    between atoms: O_3  and  C_4
REMARK    4  A    between atoms: N_6  and  C_7
REMARK    5  A    between atoms: C_7  and  N_9
REMARK    6  A    between atoms: N_9  and  C_10
REMARK    7  A    between atoms: C_15  and  N_16
REMARK    8  A    between atoms: N_16  and  C_17
REMARK    9  A    between atoms: C_17  and  N_19
REMARK   10  A    between atoms: C_20  and  O_22
REMARK   11  A    between atoms: O_22  and  C_23
REMARK   12  A    between atoms: C_23  and  C_24
REMARK   13  A    between atoms: C_26  and  C_28
REMARK   14  A    between atoms: C_29  and  O_31
REMARK   15  A    between atoms: O_31  and  C_32
REMARK   16  A    between atoms: C_32  and  C_33
REMARK                            x       y       z     vdW  Elec       q    Type
REMARK                         _______ _______ _______ _____ _____    ______ ____
ROOT
ATOM      1  C   UNL     1      -4.378  -5.661   0.160  0.00  0.00    +0.056 A 
ATOM      2  C   UNL     1      -3.307  -6.533   0.153  0.00  0.00    +0.055 A 
ATOM      3  C   UNL     1      -3.504  -7.873  -0.190  0.00  0.00    +0.092 A 
ATOM      4  C   UNL     1      -4.792  -8.322  -0.525  0.00  0.00    +0.081 A 
ATOM      5  C   UNL     1      -5.861  -7.440  -0.516  0.00  0.00    +0.053 A 
ATOM      6  C   UNL     1      -5.659  -6.115  -0.170  0.00  0.00    +0.056 A 
ATOM      7  N   UNL     1      -4.662  -9.673  -0.812  0.00  0.00    -0.232 N 
ATOM      8  C   UNL     1      -3.342  -9.995  -0.647  0.00  0.00    +0.117 A 
ATOM      9  N   UNL     1      -2.670  -8.944  -0.285  0.00  0.00    -0.232 NA
ATOM     10  C   UNL     1      -2.754 -11.367  -0.855  0.00  0.00    +0.087 C 
ATOM     11  C   UNL     1      -5.650 -10.512  -1.182  0.00  0.00    +0.421 C 
ATOM     12  O   UNL     1      -5.914 -10.658  -2.358  0.00  0.00    -0.223 OA
ENDROOT
BRANCH   1  13
ATOM     13  N   UNL     1      -4.181  -4.316   0.504  0.00  0.00    -0.295 N 
ATOM     14  H   UNL     1      -4.781  -3.884   1.133  0.00  0.00    +0.154 HD
BRANCH  13  15
ATOM     15  C   UNL     1      -3.159  -3.625  -0.037  0.00  0.00    +0.143 C 
ATOM     16  S   UNL     1      -2.032  -4.417  -1.053  0.00  0.00    -0.018 S 
BRANCH  15  19
ATOM     17  C   UNL     1      -2.002  -1.617  -0.321  0.00  0.00    +0.406 C 
ATOM     18  O   UNL     1      -1.203  -2.179  -1.041  0.00  0.00    -0.226 OA
ATOM     19  N   UNL     1      -3.025  -2.309   0.221  0.00  0.00    -0.233 N 
ATOM     20  H   UNL     1      -3.663  -1.860   0.797  0.00  0.00    +0.160 HD
BRANCH  17  21
ATOM     21  O   UNL     1      -1.868  -0.303  -0.062  0.00  0.00    -0.450 OA
BRANCH  21  23
ATOM     22  C   UNL     1      -0.774   1.843  -0.264  0.00  0.00    +0.048 C 
ATOM     23  C   UNL     1      -0.762   0.368  -0.670  0.00  0.00    +0.230 C 
ENDBRANCH  21  23
ENDBRANCH  17  21
ENDBRANCH  15  19
ENDBRANCH  13  15
ENDBRANCH   1  13
BRANCH   6  24
ATOM     24  N   UNL     1      -6.740  -5.224  -0.155  0.00  0.00    -0.295 N 
ATOM     25  H   UNL     1      -6.657  -4.353  -0.573  0.00  0.00    +0.154 HD
BRANCH  24  26
ATOM     26  C   UNL     1      -7.897  -5.578   0.441  0.00  0.00    +0.143 C 
ATOM     27  S   UNL     1      -8.085  -7.158   1.073  0.00  0.00    -0.018 S 
BRANCH  26  28
ATOM     28  N   UNL     1      -8.904  -4.689   0.538  0.00  0.00    -0.233 N 
ATOM     29  C   UNL     1     -10.060  -5.043   1.134  0.00  0.00    +0.406 C 
ATOM     30  O   UNL     1     -10.194  -6.164   1.582  0.00  0.00    -0.226 OA
ATOM     31  H   UNL     1      -8.797  -3.794   0.180  0.00  0.00    +0.160 HD
BRANCH  29  32
ATOM     32  O   UNL     1     -11.067  -4.154   1.231  0.00  0.00    -0.450 OA
BRANCH  32  33
ATOM     33  C   UNL     1     -12.264  -4.597   1.875  0.00  0.00    +0.230 C 
ATOM     34  C   UNL     1     -13.286  -3.459   1.891  0.00  0.00    +0.048 C 
ENDBRANCH  32  33
ENDBRANCH  29  32
ENDBRANCH  26  28
ENDBRANCH  24  26
ENDBRANCH   6  24
BRANCH  11  35
ATOM     35  O   UNL     1      -6.345 -11.187  -0.248  0.00  0.00    -0.448 OA
BRANCH  35  36
ATOM     36  C   UNL     1      -7.379 -12.058  -0.711  0.00  0.00    +0.230 C 
ATOM     37  C   UNL     1      -8.052 -12.733   0.485  0.00  0.00    +0.048 C 
ENDBRANCH  35  36
ENDBRANCH  11  35
TORSDOF 12
