REMARK  Name = ZINC34699112
REMARK  12 active torsions:
REMARK  status: ('A' for Active; 'I' for Inactive)
REMARK    1  A    between atoms: C_1  and  C_2
REMARK    2  A    between atoms: C_2  and  C_3
REMARK    3  A    between atoms: C_2  and  C_4
REMARK    4  A    between atoms: C_4  and  N_5
REMARK    5  A    between atoms: N_5  and  C_6
REMARK    6  A    between atoms: C_6  and  C_7
REMARK    7  A    between atoms: N_10  and  C_22
REMARK    8  A    between atoms: C_12  and  C_14
REMARK    9  A    between atoms: C_17  and  O_20
REMARK   10  A    between atoms: O_20  and  C_21
REMARK   11  A    between atoms: C_22  and  C_23
REMARK   12  A    between atoms: C_30  and  C_32
REMARK                            x       y       z     vdW  Elec       q    Type
REMARK                         _______ _______ _______ _____ _____    ______ ____
ROOT
ATOM      1  C   UNL     1       3.492  -1.823  -1.133  0.00  0.00    -0.005 C 
ATOM      2  C   UNL     1       2.232  -2.706  -1.252  0.00  0.00    -0.073 C 
ATOM      3  N   UNL     1       2.739  -4.098  -1.147  0.00  0.00    +0.383 N 
ATOM      4  C   UNL     1       3.794  -4.025  -0.103  0.00  0.00    -0.070 C 
ATOM      5  C   UNL     1       4.522  -2.689  -0.378  0.00  0.00    +0.005 C 
ATOM      6  H   UNL     1       3.133  -4.397  -2.026  0.00  0.00    -0.081 HD
ENDROOT
BRANCH   5   7
ATOM      7  C   UNL     1       4.912  -2.028   0.918  0.00  0.00    -0.046 A 
ATOM      8  C   UNL     1       3.998  -1.943   1.952  0.00  0.00    +0.007 A 
ATOM      9  C   UNL     1       4.354  -1.337   3.142  0.00  0.00    +0.046 A 
ATOM     10  C   UNL     1       5.629  -0.814   3.299  0.00  0.00    +0.120 A 
ATOM     11  C   UNL     1       6.545  -0.901   2.260  0.00  0.00    +0.046 A 
ATOM     12  C   UNL     1       6.186  -1.512   1.074  0.00  0.00    +0.007 A 
BRANCH  10  13
ATOM     13  O   UNL     1       5.981  -0.217   4.468  0.00  0.00    -0.495 OA
ATOM     14  C   UNL     1       7.311   0.299   4.558  0.00  0.00    +0.277 C 
ENDBRANCH  10  13
ENDBRANCH   5   7
BRANCH   1  15
ATOM     15  C   UNL     1       3.180  -0.554  -0.336  0.00  0.00    +0.110 C 
BRANCH  15  16
ATOM     16  N   UNL     1       2.335   0.332  -1.141  0.00  0.00    -0.297 N 
ATOM     17  C   UNL     1       2.866   1.429  -1.716  0.00  0.00    +0.249 C 
ATOM     18  O   UNL     1       2.163   2.171  -2.374  0.00  0.00    -0.270 OA
BRANCH  17  19
ATOM     19  C   UNL     1       4.303   1.729  -1.548  0.00  0.00    +0.072 A 
ATOM     20  C   UNL     1       5.210   0.698  -1.296  0.00  0.00    +0.016 A 
ATOM     21  C   UNL     1       6.550   0.985  -1.141  0.00  0.00    +0.001 A 
ATOM     22  C   UNL     1       6.997   2.292  -1.232  0.00  0.00    +0.003 A 
ATOM     23  C   UNL     1       6.107   3.320  -1.480  0.00  0.00    +0.039 A 
ATOM     24  C   UNL     1       4.761   3.047  -1.645  0.00  0.00    +0.135 A 
ATOM     25  F   UNL     1       3.891   4.050  -1.893  0.00  0.00    -0.205 F 
ENDBRANCH  17  19
BRANCH  16  26
ATOM     26  C   UNL     1       0.914   0.026  -1.319  0.00  0.00    +0.111 C 
BRANCH  26  28
ATOM     27  C   UNL     1       0.237   2.213  -0.319  0.00  0.00    +0.009 C 
ATOM     28  C   UNL     1       0.104   0.694  -0.205  0.00  0.00    +0.000 C 
ATOM     29  C   UNL     1      -1.368   0.298  -0.338  0.00  0.00    +0.009 C 
ENDBRANCH  26  28
ENDBRANCH  16  26
ENDBRANCH  15  16
ENDBRANCH   1  15
BRANCH   3  30
ATOM     30  C   UNL     1       1.663  -5.006  -0.727  0.00  0.00    -0.040 C 
BRANCH  30  31
ATOM     31  C   UNL     1       2.168  -6.426  -0.747  0.00  0.00    -0.029 A 
ATOM     32  C   UNL     1       1.873  -7.251  -1.816  0.00  0.00    +0.004 A 
ATOM     33  C   UNL     1       2.336  -8.553  -1.834  0.00  0.00    +0.000 A 
ATOM     34  C   UNL     1       3.096  -9.032  -0.783  0.00  0.00    +0.003 A 
ATOM     35  C   UNL     1       3.393  -8.210   0.287  0.00  0.00    +0.038 A 
ATOM     36  C   UNL     1       2.934  -6.903   0.304  0.00  0.00    +0.125 A 
ATOM     37  F   UNL     1       3.228  -6.096   1.347  0.00  0.00    -0.205 F 
ENDBRANCH  30  31
ENDBRANCH   3  30
TORSDOF 9
