REMARK  Name = ZINC40036310
REMARK  10 active torsions:
REMARK  status: ('A' for Active; 'I' for Inactive)
REMARK    1  A    between atoms: C_1  and  C_2
REMARK    2  A    between atoms: C_2  and  C_3
REMARK    3  A    between atoms: C_3  and  C_4
REMARK    4  A    between atoms: C_4  and  C_37
REMARK    5  A    between atoms: N_16  and  C_30
REMARK    6  A    between atoms: N_19  and  N_20
REMARK    7  A    between atoms: C_21  and  C_22
REMARK    8  A    between atoms: C_25  and  C_28
REMARK    9  A    between atoms: C_28  and  C_29
REMARK   10  A    between atoms: C_33  and  C_36
REMARK                            x       y       z     vdW  Elec       q    Type
REMARK                         _______ _______ _______ _____ _____    ______ ____
ROOT
ATOM      1  C   UNL     1       0.081  -1.271   1.289  0.00  0.00    +0.004 C 
ATOM      2  C   UNL     1       1.256  -1.352   2.259  0.00  0.00    +0.047 C 
ATOM      3  C   UNL     1       0.768  -1.596   3.662  0.00  0.00    -0.037 A 
ATOM      4  C   UNL     1       1.417  -1.024   4.737  0.00  0.00    +0.004 A 
ATOM      5  C   UNL     1       0.964  -1.257   6.023  0.00  0.00    +0.000 A 
ATOM      6  C   UNL     1      -0.139  -2.062   6.243  0.00  0.00    +0.001 A 
ATOM      7  C   UNL     1      -0.798  -2.639   5.175  0.00  0.00    +0.010 A 
ATOM      8  C   UNL     1      -0.347  -2.406   3.879  0.00  0.00    +0.004 A 
ATOM      9  C   UNL     1      -1.038  -3.003   2.714  0.00  0.00    +0.084 A 
ATOM     10  C   UNL     1      -0.828  -2.455   1.457  0.00  0.00    +0.050 A 
ATOM     11  C   UNL     1      -1.476  -3.027   0.354  0.00  0.00    +0.264 A 
ATOM     12  O   UNL     1      -1.313  -2.574  -0.767  0.00  0.00    -0.267 OA
ATOM     13  N   UNL     1      -2.284  -4.089   0.559  0.00  0.00    -0.248 N 
ATOM     14  C   UNL     1      -2.462  -4.585   1.817  0.00  0.00    +0.223 A 
ATOM     15  N   UNL     1      -1.854  -4.053   2.858  0.00  0.00    -0.214 NA
ATOM     16  N   UNL     1      -3.290  -5.662   2.003  0.00  0.00    -0.206 N 
ATOM     17  C   UNL     1       0.613  -1.243  -0.146  0.00  0.00    +0.017 C 
ATOM     18  H   UNL     1      -3.684  -6.108   1.237  0.00  0.00    +0.177 HD
ENDROOT
BRANCH  13  19
ATOM     19  C   UNL     1      -2.943  -4.683  -0.525  0.00  0.00    +0.053 A 
ATOM     20  C   UNL     1      -4.203  -4.237  -0.902  0.00  0.00    +0.026 A 
ATOM     21  C   UNL     1      -4.850  -4.824  -1.972  0.00  0.00    +0.005 A 
ATOM     22  C   UNL     1      -4.246  -5.857  -2.665  0.00  0.00    -0.050 A 
ATOM     23  C   UNL     1      -2.992  -6.303  -2.292  0.00  0.00    +0.005 A 
ATOM     24  C   UNL     1      -2.336  -5.716  -1.227  0.00  0.00    +0.026 A 
ATOM     25  C   UNL     1      -4.955  -6.497  -3.830  0.00  0.00    +0.044 C 
ENDBRANCH  13  19
BRANCH  16  26
ATOM     26  N   UNL     1      -3.568  -6.116   3.298  0.00  0.00    -0.188 NA
ATOM     27  C   UNL     1      -4.353  -7.135   3.474  0.00  0.00    +0.138 C 
BRANCH  27  28
ATOM     28  C   UNL     1      -4.646  -7.614   4.838  0.00  0.00    -0.005 A 
ATOM     29  C   UNL     1      -4.085  -6.969   5.943  0.00  0.00    +0.010 A 
ATOM     30  C   UNL     1      -4.363  -7.423   7.216  0.00  0.00    +0.004 A 
ATOM     31  C   UNL     1      -5.195  -8.513   7.399  0.00  0.00    -0.048 A 
ATOM     32  C   UNL     1      -5.753  -9.156   6.309  0.00  0.00    +0.004 A 
ATOM     33  C   UNL     1      -5.489  -8.710   5.031  0.00  0.00    +0.010 A 
BRANCH  31  34
ATOM     34  C   UNL     1      -5.494  -9.002   8.793  0.00  0.00    +0.032 C 
ATOM     35  C   UNL     1      -6.735  -8.287   9.329  0.00  0.00    +0.009 C 
ENDBRANCH  31  34
ENDBRANCH  27  28
ENDBRANCH  16  26
BRANCH   1  36
ATOM     36  C   UNL     1      -0.708   0.012   1.559  0.00  0.00    +0.011 C 
BRANCH  36  38
ATOM     37  C   UNL     1      -2.660   1.396   0.840  0.00  0.00    +0.004 C 
ATOM     38  C   UNL     1      -1.871   0.113   0.570  0.00  0.00    -0.003 C 
ENDBRANCH  36  38
ENDBRANCH   1  36
TORSDOF 6
