REMARK  Name = ZINC39867494
REMARK  7 active torsions:
REMARK  status: ('A' for Active; 'I' for Inactive)
REMARK    1  A    between atoms: C_9  and  C_11
REMARK    2  A    between atoms: C_13  and  C_22
REMARK    3  A    between atoms: C_22  and  C_23
REMARK    4  A    between atoms: C_23  and  C_24
REMARK    5  A    between atoms: C_24  and  C_25
REMARK    6  A    between atoms: C_25  and  O_27
REMARK    7  A    between atoms: O_27  and  C_28
REMARK                            x       y       z     vdW  Elec       q    Type
REMARK                         _______ _______ _______ _____ _____    ______ ____
ROOT
ATOM      1  C   UNL     1       4.841  -2.500  -0.081  0.00  0.00    +0.069 A 
ATOM      2  H   UNL     1       4.382  -4.347   0.784  0.00  0.00    +0.166 HD
ATOM      3  C   UNL     1       6.009  -1.978  -0.535  0.00  0.00    -0.013 A 
ATOM      4  C   UNL     1       7.038  -2.995  -0.330  0.00  0.00    +0.005 A 
ATOM      5  C   UNL     1       8.411  -3.050  -0.590  0.00  0.00    +0.030 A 
ATOM      6  C   UNL     1       9.117  -4.176  -0.272  0.00  0.00    +0.042 A 
ATOM      7  C   UNL     1       8.482  -5.268   0.306  0.00  0.00    +0.022 A 
ATOM      8  C   UNL     1       7.130  -5.236   0.571  0.00  0.00    +0.027 A 
ATOM      9  C   UNL     1       6.390  -4.100   0.257  0.00  0.00    +0.047 A 
ATOM     10  N   UNL     1       5.061  -3.770   0.402  0.00  0.00    -0.353 N 
ATOM     11 CL   UNL     1      10.822  -4.243  -0.596  0.00  0.00    -0.084 Cl
ENDROOT
BRANCH   1  20
ATOM     12  C   UNL     1      -0.075   1.536  -0.138  0.00  0.00    +0.001 A 
ATOM     13  C   UNL     1       1.128   2.238  -0.123  0.00  0.00    +0.002 A 
ATOM     14  C   UNL     1       2.322   1.585  -0.109  0.00  0.00    +0.028 A 
ATOM     15  C   UNL     1       2.348   0.178  -0.109  0.00  0.00    +0.072 A 
ATOM     16  C   UNL     1       1.122  -0.533  -0.124  0.00  0.00    +0.000 A 
ATOM     17  C   UNL     1      -0.090   0.174  -0.139  0.00  0.00    +0.010 A 
ATOM     18  C   UNL     1       1.145  -1.943  -0.125  0.00  0.00    +0.012 A 
ATOM     19  C   UNL     1       2.355  -2.569  -0.111  0.00  0.00    +0.030 A 
ATOM     20  C   UNL     1       3.536  -1.808  -0.096  0.00  0.00    +0.088 A 
ATOM     21  N   UNL     1       3.505  -0.487  -0.095  0.00  0.00    -0.245 NA
ENDBRANCH   1  20
BRANCH   3  22
ATOM     22  C   UNL     1       6.207  -0.611  -1.137  0.00  0.00    +0.038 C 
BRANCH  22  23
ATOM     23  C   UNL     1       6.544   0.390  -0.030  0.00  0.00    +0.016 C 
BRANCH  23  24
ATOM     24  C   UNL     1       6.745   1.778  -0.642  0.00  0.00    +0.121 C 
BRANCH  24  25
ATOM     25  C   UNL     1       7.076   2.764   0.448  0.00  0.00    +0.312 C 
ATOM     26  O   UNL     1       7.145   2.394   1.597  0.00  0.00    -0.250 OA
BRANCH  25  27
ATOM     27  O   UNL     1       7.295   4.053   0.144  0.00  0.00    -0.424 OA
BRANCH  27  28
ATOM     28  C   UNL     1       7.490   4.926   1.167  0.00  0.00    +0.150 A 
ATOM     29  C   UNL     1       8.712   4.975   1.831  0.00  0.00    +0.049 A 
ATOM     30  C   UNL     1       8.862   5.882   2.867  0.00  0.00    +0.023 A 
ATOM     31  C   UNL     1       7.802   6.702   3.206  0.00  0.00    +0.111 A 
ATOM     32  N   UNL     1       6.657   6.630   2.557  0.00  0.00    -0.260 NA
ATOM     33  C   UNL     1       6.475   5.786   1.561  0.00  0.00    +0.157 A 
ENDBRANCH  27  28
ENDBRANCH  25  27
ENDBRANCH  24  25
ENDBRANCH  23  24
ENDBRANCH  22  23
ENDBRANCH   3  22
TORSDOF 7
