REMARK  Name = ZINC01405073
REMARK  5 active torsions:
REMARK  status: ('A' for Active; 'I' for Inactive)
REMARK    1  A    between atoms: C_1  and  C_2
REMARK    2  A    between atoms: C_5  and  C_8
REMARK    3  A    between atoms: C_10  and  N_25
REMARK    4  A    between atoms: C_15  and  C_18
REMARK    5  A    between atoms: C_26  and  C_28
REMARK                            x       y       z     vdW  Elec       q    Type
REMARK                         _______ _______ _______ _____ _____    ______ ____
ROOT
ATOM      1  C   UNL     1       0.056  -4.207  -0.535  0.00  0.00    +0.095 A 
ATOM      2  C   UNL     1       0.046  -2.873  -0.084  0.00  0.00    +0.074 A 
ATOM      3  C   UNL     1       0.019  -2.066  -1.177  0.00  0.00    +0.131 A 
ATOM      4  N   UNL     1       0.019  -2.864  -2.281  0.00  0.00    -0.193 N 
ATOM      5  N   UNL     1       0.042  -4.197  -1.851  0.00  0.00    -0.163 NA
ATOM      6  C   UNL     1       0.000  -2.431  -3.604  0.00  0.00    +0.196 A 
ATOM      7  N   UNL     1      -0.001  -3.142  -4.716  0.00  0.00    -0.221 NA
ATOM      8  C   UNL     1      -0.021  -2.561  -5.905  0.00  0.00    +0.080 A 
ATOM      9  C   UNL     1      -0.041  -1.196  -5.984  0.00  0.00    +0.077 A 
ATOM     10  S   UNL     1      -0.038  -0.764  -4.248  0.00  0.00    -0.056 S 
ENDROOT
BRANCH   1  15
ATOM     11  C   UNL     1       0.156  -8.898   2.805  0.00  0.00    +0.044 C 
ATOM     12  C   UNL     1       0.129  -7.671   1.931  0.00  0.00    -0.050 A 
ATOM     13  C   UNL     1       0.117  -7.805   0.554  0.00  0.00    +0.004 A 
ATOM     14  C   UNL     1       0.093  -6.684  -0.251  0.00  0.00    +0.010 A 
ATOM     15  C   UNL     1       0.081  -5.416   0.326  0.00  0.00    +0.002 A 
ATOM     16  C   UNL     1       0.099  -5.286   1.713  0.00  0.00    +0.010 A 
ATOM     17  C   UNL     1       0.118  -6.414   2.508  0.00  0.00    +0.004 A 
ENDBRANCH   1  15
BRANCH   8  18
ATOM     18  C   UNL     1      -0.022  -3.382  -7.140  0.00  0.00    +0.001 A 
ATOM     19  C   UNL     1      -0.049  -2.765  -8.389  0.00  0.00    +0.013 A 
ATOM     20  C   UNL     1      -0.045  -3.533  -9.536  0.00  0.00    +0.039 A 
ATOM     21  C   UNL     1      -0.025  -4.916  -9.446  0.00  0.00    +0.123 A 
ATOM     22  C   UNL     1      -0.003  -5.533  -8.206  0.00  0.00    +0.039 A 
ATOM     23  C   UNL     1      -0.001  -4.773  -7.054  0.00  0.00    +0.013 A 
ATOM     24  F   UNL     1      -0.027  -5.664 -10.571  0.00  0.00    -0.205 F 
ENDBRANCH   8  18
BRANCH   3  25
ATOM     25  N   UNL     1       0.000  -0.672  -1.169  0.00  0.00    -0.270 N 
ATOM     26  C   UNL     1       0.002  -0.004   0.002  0.00  0.00    +0.215 C 
ATOM     27  O   UNL     1       0.020  -0.616   1.049  0.00  0.00    -0.276 OA
ATOM     28  C   UNL     1      -0.018   1.503   0.010  0.00  0.00    +0.109 C 
ATOM     29  H   UNL     1      -0.015  -0.182  -2.006  0.00  0.00    +0.156 HD
ENDBRANCH   3  25
TORSDOF 3
