REMARK  Name = ZINC04076847
REMARK  7 active torsions:
REMARK  status: ('A' for Active; 'I' for Inactive)
REMARK    1  A    between atoms: C_10  and  C_11
REMARK    2  A    between atoms: C_11  and  O_13
REMARK    3  A    between atoms: O_13  and  C_14
REMARK    4  A    between atoms: C_23  and  C_24
REMARK    5  A    between atoms: N_25  and  N_26
REMARK    6  A    between atoms: C_27  and  C_29
REMARK    7  A    between atoms: C_34  and  N_35
REMARK                            x       y       z     vdW  Elec       q    Type
REMARK                         _______ _______ _______ _____ _____    ______ ____
ROOT
ATOM      1  C   UNL     1      -1.345  10.539  -0.179  0.00  0.00    +0.141 A 
ATOM      2  C   UNL     1      -1.364  11.886   0.181  0.00  0.00    +0.047 A 
ATOM      3  C   UNL     1      -2.519  12.521   0.514  0.00  0.00    +0.012 A 
ATOM      4  C   UNL     1      -3.747  11.835   0.503  0.00  0.00    -0.017 A 
ATOM      5  C   UNL     1      -4.946  12.482   0.846  0.00  0.00    +0.008 A 
ATOM      6  C   UNL     1      -6.117  11.786   0.824  0.00  0.00    +0.001 A 
ATOM      7  C   UNL     1      -6.144  10.440   0.467  0.00  0.00    +0.001 A 
ATOM      8  C   UNL     1      -5.000   9.782   0.128  0.00  0.00    +0.009 A 
ATOM      9  C   UNL     1      -3.779  10.467   0.139  0.00  0.00    -0.006 A 
ATOM     10  C   UNL     1      -2.527   9.800  -0.216  0.00  0.00    +0.045 A 
ENDROOT
BRANCH  10  11
ATOM     11  C   UNL     1      -2.514   8.382  -0.599  0.00  0.00    +0.142 C 
ATOM     12  N   UNL     1      -3.633   7.728  -0.710  0.00  0.00    -0.187 NA
BRANCH  12  13
ATOM     13  N   UNL     1      -3.617   6.352  -0.972  0.00  0.00    -0.203 N 
ATOM     14  C   UNL     1      -4.771   5.656  -0.989  0.00  0.00    +0.265 C 
ATOM     15  O   UNL     1      -5.833   6.236  -0.867  0.00  0.00    -0.268 OA
ATOM     16  H   UNL     1      -2.776   5.900  -1.142  0.00  0.00    +0.178 HD
BRANCH  14  17
ATOM     17  C   UNL     1      -4.746   4.190  -1.155  0.00  0.00    +0.062 A 
ATOM     18  C   UNL     1      -3.544   3.535  -1.434  0.00  0.00    +0.015 A 
ATOM     19  C   UNL     1      -3.527   2.165  -1.582  0.00  0.00    +0.001 A 
ATOM     20  C   UNL     1      -4.698   1.434  -1.466  0.00  0.00    +0.002 A 
ATOM     21  C   UNL     1      -5.893   2.068  -1.190  0.00  0.00    +0.027 A 
ATOM     22  C   UNL     1      -5.928   3.446  -1.032  0.00  0.00    +0.058 A 
BRANCH  22  23
ATOM     23  N   UNL     1      -7.137   4.090  -0.754  0.00  0.00    -0.322 N 
ATOM     24  C   UNL     1      -7.390   4.872   0.338  0.00  0.00    +0.091 A 
ATOM     25  C   UNL     1      -8.660   5.315   0.253  0.00  0.00    +0.019 A 
ATOM     26  C   UNL     1      -9.216   4.782  -0.928  0.00  0.00    +0.019 A 
ATOM     27  C   UNL     1      -8.264   4.037  -1.524  0.00  0.00    +0.091 A 
ENDBRANCH  22  23
ENDBRANCH  14  17
ENDBRANCH  12  13
ENDBRANCH  10  11
BRANCH   1  28
ATOM     28  O   UNL     1      -0.167   9.944  -0.499  0.00  0.00    -0.422 OA
BRANCH  28  29
ATOM     29  C   UNL     1       0.097   9.777  -1.810  0.00  0.00    +0.345 C 
ATOM     30  O   UNL     1      -0.656  10.237  -2.646  0.00  0.00    -0.245 OA
BRANCH  29  40
ATOM     31  C   UNL     1       2.449   8.794  -6.296  0.00  0.00    +0.001 A 
ATOM     32  C   UNL     1       1.305   9.504  -5.938  0.00  0.00    +0.001 A 
ATOM     33  C   UNL     1       0.917   9.594  -4.634  0.00  0.00    +0.009 A 
ATOM     34  C   UNL     1       1.677   8.965  -3.641  0.00  0.00    -0.004 A 
ATOM     35  C   UNL     1       2.840   8.242  -4.002  0.00  0.00    -0.017 A 
ATOM     36  C   UNL     1       3.210   8.170  -5.356  0.00  0.00    +0.008 A 
ATOM     37  C   UNL     1       3.601   7.614  -3.002  0.00  0.00    +0.008 A 
ATOM     38  C   UNL     1       3.230   7.693  -1.694  0.00  0.00    +0.001 A 
ATOM     39  C   UNL     1       2.101   8.394  -1.294  0.00  0.00    +0.015 A 
ATOM     40  C   UNL     1       1.299   9.036  -2.231  0.00  0.00    +0.067 A 
ENDBRANCH  29  40
ENDBRANCH  28  29
ENDBRANCH   1  28
TORSDOF 7
