REMARK  Name = ZINC36145793
REMARK  13 active torsions:
REMARK  status: ('A' for Active; 'I' for Inactive)
REMARK    1  A    between atoms: C_1  and  C_2
REMARK    2  A    between atoms: C_7  and  C_8
REMARK    3  A    between atoms: C_11  and  C_14
REMARK    4  A    between atoms: C_14  and  N_15
REMARK    5  A    between atoms: N_15  and  C_16
REMARK    6  A    between atoms: N_15  and  C_24
REMARK    7  A    between atoms: C_16  and  C_17
REMARK    8  A    between atoms: C_24  and  C_25
REMARK    9  A    between atoms: C_25  and  C_27
REMARK   10  A    between atoms: C_25  and  O_36
REMARK   11  A    between atoms: C_27  and  O_28
REMARK   12  A    between atoms: O_28  and  C_29
REMARK   13  A    between atoms: C_29  and  C_30
REMARK                            x       y       z     vdW  Elec       q    Type
REMARK                         _______ _______ _______ _____ _____    ______ ____
ROOT
ATOM      1  N   UNL     1       0.104   1.775   6.763  0.00  0.00    +0.387 N 
ATOM      2  H   UNL     1      -0.040   2.695   6.376  0.00  0.00    -0.081 HD
ENDROOT
BRANCH   1   3
ATOM      3  C   UNL     1      -0.432   0.765   5.840  0.00  0.00    -0.030 C 
BRANCH   3   7
ATOM      4  C   UNL     1      -0.520   0.793   2.172  0.00  0.00    +0.091 C 
ATOM      5  N   UNL     1      -0.411   2.038   2.497  0.00  0.00    -0.089 NA
ATOM      6  O   UNL     1      -0.234   2.229   3.886  0.00  0.00    -0.392 OA
ATOM      7  C   UNL     1       0.178   0.969   4.452  0.00  0.00    +0.194 C 
ATOM      8  C   UNL     1      -0.415  -0.039   3.436  0.00  0.00    +0.104 C 
BRANCH   4  15
ATOM      9  C   UNL     1      -0.683   2.634  -0.053  0.00  0.00    +0.044 C 
ATOM     10  C   UNL     1      -0.800   1.148  -0.276  0.00  0.00    -0.041 A 
ATOM     11  C   UNL     1      -0.981   0.652  -1.551  0.00  0.00    +0.004 A 
ATOM     12  C   UNL     1      -1.088  -0.712  -1.757  0.00  0.00    +0.000 A 
ATOM     13  C   UNL     1      -1.015  -1.587  -0.688  0.00  0.00    +0.001 A 
ATOM     14  C   UNL     1      -0.835  -1.105   0.591  0.00  0.00    +0.010 A 
ATOM     15  C   UNL     1      -0.720   0.270   0.806  0.00  0.00    +0.002 A 
ENDBRANCH   4  15
ENDBRANCH   3   7
ENDBRANCH   1   3
BRANCH   1  16
ATOM     16  C   UNL     1       1.542   1.545   6.958  0.00  0.00    -0.043 C 
BRANCH  16  17
ATOM     17  C   UNL     1       1.772   0.114   7.370  0.00  0.00    -0.063 A 
ATOM     18  C   UNL     1       1.658  -0.248   8.700  0.00  0.00    +0.002 A 
ATOM     19  C   UNL     1       1.868  -1.561   9.079  0.00  0.00    +0.002 A 
ATOM     20  C   UNL     1       2.192  -2.511   8.130  0.00  0.00    +0.020 A 
ATOM     21  C   UNL     1       2.306  -2.149   6.800  0.00  0.00    +0.041 A 
ATOM     22  C   UNL     1       2.089  -0.837   6.420  0.00  0.00    +0.021 A 
ATOM     23 CL   UNL     1       2.713  -3.343   5.606  0.00  0.00    -0.084 Cl
ENDBRANCH  16  17
ENDBRANCH   1  16
BRANCH   1  24
ATOM     24  C   UNL     1      -0.587   1.673   8.055  0.00  0.00    -0.044 C 
BRANCH  24  25
ATOM     25  C   UNL     1      -0.384   2.968   8.845  0.00  0.00    +0.124 C 
BRANCH  25  26
ATOM     26  O   UNL     1       1.013   3.183   9.056  0.00  0.00    -0.391 OA
ATOM     27  H   UNL     1       1.456   2.460   9.521  0.00  0.00    +0.210 HD
ENDBRANCH  25  26
BRANCH  25  28
ATOM     28  C   UNL     1      -1.093   2.857  10.197  0.00  0.00    +0.189 C 
BRANCH  28  29
ATOM     29  O   UNL     1      -1.003   4.105  10.886  0.00  0.00    -0.373 OA
BRANCH  29  30
ATOM     30  C   UNL     1      -1.637   4.110  12.166  0.00  0.00    +0.195 C 
BRANCH  30  31
ATOM     31  C   UNL     1      -1.481   5.468  12.800  0.00  0.00    -0.022 A 
ATOM     32  C   UNL     1      -0.382   5.739  13.594  0.00  0.00    +0.006 A 
ATOM     33  C   UNL     1      -0.239   6.985  14.174  0.00  0.00    +0.000 A 
ATOM     34  C   UNL     1      -1.195   7.961  13.961  0.00  0.00    +0.000 A 
ATOM     35  C   UNL     1      -2.293   7.691  13.166  0.00  0.00    +0.000 A 
ATOM     36  C   UNL     1      -2.434   6.446  12.582  0.00  0.00    +0.006 A 
ENDBRANCH  30  31
ENDBRANCH  29  30
ENDBRANCH  28  29
ENDBRANCH  25  28
ENDBRANCH  24  25
ENDBRANCH   1  24
TORSDOF 12
