REMARK  Name = ZINC09970988
REMARK  5 active torsions:
REMARK  status: ('A' for Active; 'I' for Inactive)
REMARK    1  A    between atoms: C_1  and  C_2
REMARK    2  A    between atoms: C_8  and  N_20
REMARK    3  A    between atoms: C_9  and  S_11
REMARK    4  A    between atoms: S_11  and  C_14
REMARK    5  A    between atoms: N_23  and  C_26
REMARK                            x       y       z     vdW  Elec       q    Type
REMARK                         _______ _______ _______ _____ _____    ______ ____
ROOT
ATOM      1  C   UNL     1       6.585   7.816  -0.663  0.00  0.00    +0.044 C 
ATOM      2  C   UNL     1       5.233   8.465  -0.808  0.00  0.00    -0.050 A 
ATOM      3  C   UNL     1       5.145   9.847  -0.952  0.00  0.00    +0.005 A 
ATOM      4  C   UNL     1       3.939  10.464  -1.085  0.00  0.00    +0.026 A 
ATOM      5  C   UNL     1       2.760   9.699  -1.079  0.00  0.00    +0.048 A 
ATOM      6  C   UNL     1       2.853   8.294  -0.933  0.00  0.00    +0.021 A 
ATOM      7  C   UNL     1       4.111   7.691  -0.798  0.00  0.00    +0.015 A 
ATOM      8  C   UNL     1       1.664   7.526  -0.928  0.00  0.00    +0.066 A 
ATOM      9  C   UNL     1       0.459   8.196  -1.072  0.00  0.00    +0.131 A 
ATOM     10  C   UNL     1       0.452   9.577  -1.207  0.00  0.00    +0.112 A 
ATOM     11  N   UNL     1       1.557  10.358  -1.218  0.00  0.00    -0.359 N 
ATOM     12  H   UNL     1       1.503  11.378  -1.323  0.00  0.00    +0.165 HD
ENDROOT
BRANCH   8  13
ATOM     13  N   UNL     1       1.703   6.147  -0.788  0.00  0.00    -0.325 N 
ATOM     14  C   UNL     1       2.433   5.526  -1.902  0.00  0.00    +0.124 C 
ATOM     15  C   UNL     1       2.386   4.004  -1.753  0.00  0.00    +0.124 C 
ATOM     16  N   UNL     1       2.976   3.622  -0.462  0.00  0.00    -0.327 N 
ATOM     17  C   UNL     1       2.246   4.243   0.652  0.00  0.00    +0.124 C 
ATOM     18  C   UNL     1       2.293   5.766   0.503  0.00  0.00    +0.124 C 
BRANCH  16  19
ATOM     19  C   UNL     1       3.016   2.232  -0.321  0.00  0.00    +0.030 A 
ATOM     20  C   UNL     1       3.540   1.665   0.833  0.00  0.00    +0.024 A 
ATOM     21  C   UNL     1       3.578   0.291   0.970  0.00  0.00    +0.022 A 
ATOM     22  C   UNL     1       3.095  -0.520  -0.042  0.00  0.00    +0.041 A 
ATOM     23  C   UNL     1       2.573   0.043  -1.194  0.00  0.00    +0.022 A 
ATOM     24  C   UNL     1       2.533   1.416  -1.336  0.00  0.00    +0.024 A 
ATOM     25 CL   UNL     1       3.144  -2.247   0.133  0.00  0.00    -0.084 Cl
ENDBRANCH  16  19
ENDBRANCH   8  13
BRANCH   9  26
ATOM     26  S   UNL     1      -1.058   7.298  -1.081  0.00  0.00    +0.028 S 
ATOM     27  O   UNL     1      -1.000   6.394   0.014  0.00  0.00    -0.164 OA
ATOM     28  O   UNL     1      -2.096   8.257  -1.224  0.00  0.00    -0.164 OA
BRANCH  26  29
ATOM     29  C   UNL     1      -1.074   6.317  -2.544  0.00  0.00    +0.094 A 
ATOM     30  C   UNL     1      -1.488   6.868  -3.742  0.00  0.00    +0.027 A 
ATOM     31  C   UNL     1      -1.496   6.099  -4.891  0.00  0.00    +0.002 A 
ATOM     32  C   UNL     1      -1.099   4.776  -4.840  0.00  0.00    +0.000 A 
ATOM     33  C   UNL     1      -0.690   4.223  -3.641  0.00  0.00    +0.002 A 
ATOM     34  C   UNL     1      -0.677   4.994  -2.493  0.00  0.00    +0.027 A 
ENDBRANCH  26  29
ENDBRANCH   9  26
TORSDOF 4
