REMARK  Name = ZINC05777875
REMARK  2 active torsions:
REMARK  status: ('A' for Active; 'I' for Inactive)
REMARK    1  A    between atoms: C_6  and  C_11
REMARK    2  A    between atoms: C_11  and  C_12
REMARK                            x       y       z     vdW  Elec       q    Type
REMARK                         _______ _______ _______ _____ _____    ______ ____
ROOT
ATOM      1  C   UNL     1       1.169   2.091   0.002  0.00  0.00    +0.001 A 
ATOM      2  C   UNL     1      -0.016   1.357   0.009  0.00  0.00    +0.001 A 
ATOM      3  C   UNL     1       0.002  -0.004   0.002  0.00  0.00    +0.008 A 
ATOM      4  C   UNL     1       1.233  -0.683  -0.013  0.00  0.00    -0.018 A 
ATOM      5  C   UNL     1       1.292  -2.087  -0.022  0.00  0.00    +0.012 A 
ATOM      6  C   UNL     1       2.502  -2.710  -0.037  0.00  0.00    -0.045 A 
ATOM      7  C   UNL     1       3.687  -1.976  -0.044  0.00  0.00    +0.004 A 
ATOM      8  C   UNL     1       3.668  -0.615  -0.036  0.00  0.00    +0.009 A 
ATOM      9  C   UNL     1       2.438   0.064  -0.021  0.00  0.00    -0.018 A 
ATOM     10  C   UNL     1       2.378   1.468  -0.012  0.00  0.00    +0.008 A 
ENDROOT
BRANCH   6  11
ATOM     11  C   UNL     1       2.561  -4.215  -0.047  0.00  0.00    +0.067 C 
BRANCH  11  12
ATOM     12  C   UNL     1       2.568  -4.716  -1.493  0.00  0.00    +0.165 C 
ATOM     13  C   UNL     1       2.607  -6.231  -1.532  0.00  0.00    +0.241 C 
ATOM     14  O   UNL     1       3.477  -6.953  -1.095  0.00  0.00    -0.273 OA
ATOM     15  N   UNL     1       1.474  -6.609  -2.156  0.00  0.00    -0.239 N 
ATOM     16  C   UNL     1       0.732  -5.554  -2.512  0.00  0.00    +0.307 C 
ATOM     17  O   UNL     1      -0.335  -5.642  -3.089  0.00  0.00    -0.252 OA
ATOM     18  N   UNL     1       1.298  -4.385  -2.162  0.00  0.00    -0.287 N 
ATOM     19  H   UNL     1       1.226  -7.531  -2.326  0.00  0.00    +0.159 HD
ATOM     20  H   UNL     1       0.939  -3.498  -2.318  0.00  0.00    +0.151 HD
ENDBRANCH  11  12
ENDBRANCH   6  11
TORSDOF 2
