REMARK  Name = ZINC39461296
REMARK  12 active torsions:
REMARK  status: ('A' for Active; 'I' for Inactive)
REMARK    1  A    between atoms: C_1  and  C_2
REMARK    2  A    between atoms: C_2  and  C_4
REMARK    3  A    between atoms: C_2  and  N_16
REMARK    4  A    between atoms: C_7  and  C_10
REMARK    5  A    between atoms: N_16  and  C_17
REMARK    6  A    between atoms: N_16  and  C_18
REMARK    7  A    between atoms: C_18  and  C_19
REMARK    8  A    between atoms: C_26  and  C_36
REMARK    9  A    between atoms: C_28  and  N_30
REMARK   10  A    between atoms: C_31  and  C_33
REMARK   11  A    between atoms: C_36  and  O_38
REMARK   12  A    between atoms: O_38  and  C_39
REMARK                            x       y       z     vdW  Elec       q    Type
REMARK                         _______ _______ _______ _____ _____    ______ ____
ROOT
ATOM      1  C   UNL     1       1.695  -3.145  -2.707  0.00  0.00    +0.026 A 
ATOM      2  C   UNL     1       2.959  -3.469  -2.255  0.00  0.00    +0.022 A 
ATOM      3  C   UNL     1       3.951  -3.801  -3.159  0.00  0.00    +0.010 A 
ATOM      4  C   UNL     1       3.662  -3.802  -4.527  0.00  0.00    +0.006 A 
ATOM      5  C   UNL     1       2.364  -3.447  -4.892  0.00  0.00    +0.103 A 
ATOM      6  N   UNL     1       1.437  -3.151  -4.002  0.00  0.00    -0.247 NA
ATOM      7  S   UNL     1       2.316  -3.488  -6.671  0.00  0.00    -0.089 S 
ATOM      8  C   UNL     1       4.125  -3.576  -7.000  0.00  0.00    +0.186 C 
ATOM      9  C   UNL     1       4.604  -4.155  -5.650  0.00  0.00    +0.130 C 
ENDROOT
BRANCH   9  10
ATOM     10  N   UNL     1       4.692  -5.613  -5.759  0.00  0.00    -0.307 N 
ATOM     11  C   UNL     1       5.613  -6.288  -5.042  0.00  0.00    +0.217 C 
ATOM     12  O   UNL     1       6.368  -5.688  -4.307  0.00  0.00    -0.275 OA
ATOM     13  H   UNL     1       4.088  -6.093  -6.347  0.00  0.00    +0.149 HD
BRANCH  11  14
ATOM     14  C   UNL     1       5.704  -7.788  -5.155  0.00  0.00    +0.075 C 
ATOM     15  C   UNL     1       5.292  -8.614  -3.934  0.00  0.00    +0.013 C 
ATOM     16  C   UNL     1       6.769  -8.496  -4.316  0.00  0.00    +0.013 C 
ENDBRANCH  11  14
ENDBRANCH   9  10
BRANCH   8  17
ATOM     17  C   UNL     1       4.431  -4.513  -8.140  0.00  0.00    +0.322 C 
ATOM     18  O   UNL     1       5.453  -4.384  -8.771  0.00  0.00    -0.250 OA
BRANCH  17  19
ATOM     19  O   UNL     1       3.567  -5.491  -8.455  0.00  0.00    -0.467 OA
ATOM     20  C   UNL     1       3.921  -6.342  -9.547  0.00  0.00    +0.280 C 
ENDBRANCH  17  19
ENDBRANCH   8  17
BRANCH   1  21
ATOM     21  C   UNL     1       0.609  -2.793  -1.724  0.00  0.00    -0.022 C 
BRANCH  21  22
ATOM     22  N   UNL     1       0.541  -1.333  -1.573  0.00  0.00    +0.385 N 
ATOM     23  C   UNL     1       0.102  -0.730  -2.838  0.00  0.00    -0.095 C 
ATOM     24  H   UNL     1       1.453  -0.977  -1.329  0.00  0.00    -0.081 HD
BRANCH  22  26
ATOM     25  C   UNL     1      -1.822  -1.424  -0.935  0.00  0.00    -0.011 C 
ATOM     26  C   UNL     1      -0.416  -0.995  -0.511  0.00  0.00    -0.041 C 
BRANCH  26  27
ATOM     27  C   UNL     1      -0.396   0.515  -0.268  0.00  0.00    +0.139 C 
ATOM     28  C   UNL     1       0.940   0.948   0.311  0.00  0.00    +0.030 C 
ATOM     29  C   UNL     1       0.619   1.464   1.513  0.00  0.00    +0.091 C 
ATOM     30  N   UNL     1      -0.723   1.393   1.717  0.00  0.00    -0.154 NA
ATOM     31  N   UNL     1      -1.357   0.886   0.784  0.00  0.00    -0.181 NA
BRANCH  29  32
ATOM     32  C   UNL     1       1.593   2.030   2.479  0.00  0.00    +0.002 A 
ATOM     33  C   UNL     1       2.950   2.058   2.167  0.00  0.00    +0.010 A 
ATOM     34  C   UNL     1       3.852   2.586   3.069  0.00  0.00    +0.001 A 
ATOM     35  C   UNL     1       3.410   3.086   4.280  0.00  0.00    +0.000 A 
ATOM     36  C   UNL     1       2.063   3.060   4.595  0.00  0.00    +0.001 A 
ATOM     37  C   UNL     1       1.152   2.539   3.699  0.00  0.00    +0.010 A 
ENDBRANCH  29  32
ENDBRANCH  26  27
ENDBRANCH  22  26
ENDBRANCH  21  22
ENDBRANCH   1  21
TORSDOF 9
