REMARK  Name = ZINC13124116
REMARK  8 active torsions:
REMARK  status: ('A' for Active; 'I' for Inactive)
REMARK    1  A    between atoms: C_1  and  C_2
REMARK    2  A    between atoms: C_5  and  C_8
REMARK    3  A    between atoms: C_11  and  C_36
REMARK    4  A    between atoms: C_16  and  C_18
REMARK    5  A    between atoms: N_20  and  C_21
REMARK    6  A    between atoms: C_22  and  C_34
REMARK    7  A    between atoms: N_23  and  C_33
REMARK    8  A    between atoms: N_24  and  C_27
REMARK                            x       y       z     vdW  Elec       q    Type
REMARK                         _______ _______ _______ _____ _____    ______ ____
ROOT
ATOM      1  C   UNL     1      -0.624  -4.463  -0.507  0.00  0.00    +0.104 C 
ATOM      2  C   UNL     1       0.814  -4.700  -0.031  0.00  0.00    +0.063 C 
ATOM      3  C   UNL     1       1.101  -6.204   0.034  0.00  0.00    +0.215 C 
ATOM      4  N   UNL     1       0.023  -6.861   0.779  0.00  0.00    -0.238 N 
ATOM      5  C   UNL     1      -1.207  -6.303   0.983  0.00  0.00    +0.119 A 
ATOM      6  C   UNL     1      -1.946  -7.168   1.704  0.00  0.00    +0.078 A 
ATOM      7  C   UNL     1      -1.147  -8.307   1.954  0.00  0.00    +0.149 A 
ATOM      8  N   UNL     1       0.034  -8.112   1.394  0.00  0.00    -0.164 NA
ATOM      9  N   UNL     1      -1.552  -5.042   0.483  0.00  0.00    -0.322 N 
ATOM     10  H   UNL     1      -2.352  -4.575   0.773  0.00  0.00    +0.148 HD
ENDROOT
BRANCH   1  15
ATOM     11  C   UNL     1      -1.601   1.212  -0.993  0.00  0.00    +0.044 C 
ATOM     12  C   UNL     1      -1.346  -0.268  -0.867  0.00  0.00    -0.050 A 
ATOM     13  C   UNL     1      -1.065  -1.020  -1.992  0.00  0.00    +0.004 A 
ATOM     14  C   UNL     1      -0.831  -2.377  -1.876  0.00  0.00    +0.006 A 
ATOM     15  C   UNL     1      -0.878  -2.983  -0.634  0.00  0.00    -0.027 A 
ATOM     16  C   UNL     1      -1.158  -2.231   0.491  0.00  0.00    +0.006 A 
ATOM     17  C   UNL     1      -1.388  -0.873   0.376  0.00  0.00    +0.004 A 
ENDBRANCH   1  15
BRANCH   7  18
ATOM     18  C   UNL     1      -1.560  -9.506   2.712  0.00  0.00    +0.269 C 
ATOM     19  O   UNL     1      -2.679  -9.572   3.183  0.00  0.00    -0.268 OA
ATOM     20  N   UNL     1      -0.697 -10.527   2.879  0.00  0.00    -0.274 N 
ATOM     21  H   UNL     1       0.169 -10.508   2.442  0.00  0.00    +0.155 HD
BRANCH  20  22
ATOM     22  C   UNL     1      -1.052 -11.624   3.689  0.00  0.00    +0.122 A 
ATOM     23  C   UNL     1      -1.101 -12.920   3.308  0.00  0.00    +0.059 A 
ATOM     24  N   UNL     1      -1.488 -13.677   4.382  0.00  0.00    -0.282 N 
ATOM     25  N   UNL     1      -1.694 -12.839   5.484  0.00  0.00    -0.216 N 
ATOM     26  C   UNL     1      -1.430 -11.572   5.102  0.00  0.00    +0.293 A 
ATOM     27  O   UNL     1      -1.498 -10.576   5.799  0.00  0.00    -0.264 OA
ATOM     28  C   UNL     1      -1.661 -15.132   4.378  0.00  0.00    +0.171 C 
ATOM     29  C   UNL     1      -0.782 -13.444   1.932  0.00  0.00    +0.067 C 
BRANCH  25  30
ATOM     30  C   UNL     1      -2.096 -13.245   6.761  0.00  0.00    +0.067 A 
ATOM     31  C   UNL     1      -3.153 -12.603   7.394  0.00  0.00    +0.028 A 
ATOM     32  C   UNL     1      -3.548 -13.007   8.655  0.00  0.00    +0.002 A 
ATOM     33  C   UNL     1      -2.893 -14.047   9.286  0.00  0.00    +0.000 A 
ATOM     34  C   UNL     1      -1.840 -14.688   8.659  0.00  0.00    +0.002 A 
ATOM     35  C   UNL     1      -1.444 -14.294   7.395  0.00  0.00    +0.028 A 
ENDBRANCH  25  30
ENDBRANCH  20  22
ENDBRANCH   7  18
BRANCH   3  36
ATOM     36  C   UNL     1       2.436  -6.441   0.743  0.00  0.00    +0.412 C 
ATOM     37  F   UNL     1       2.373  -5.922   2.041  0.00  0.00    -0.168 F 
ATOM     38  F   UNL     1       2.696  -7.814   0.801  0.00  0.00    -0.168 F 
ATOM     39  F   UNL     1       3.459  -5.802   0.035  0.00  0.00    -0.168 F 
ENDBRANCH   3  36
TORSDOF 5
