REMARK  Name = ZINC64954333
REMARK  12 active torsions:
REMARK  status: ('A' for Active; 'I' for Inactive)
REMARK    1  A    between atoms: C_1  and  C_2
REMARK    2  A    between atoms: C_2  and  C_27
REMARK    3  A    between atoms: C_7  and  C_15
REMARK    4  A    between atoms: N_11  and  C_12
REMARK    5  A    between atoms: N_17  and  C_18
REMARK    6  A    between atoms: C_18  and  C_19
REMARK    7  A    between atoms: C_24  and  O_25
REMARK    8  A    between atoms: O_25  and  C_26
REMARK    9  A    between atoms: N_29  and  C_30
REMARK   10  A    between atoms: C_30  and  C_31
REMARK   11  A    between atoms: C_34  and  O_37
REMARK   12  A    between atoms: O_37  and  C_38
REMARK                            x       y       z     vdW  Elec       q    Type
REMARK                         _______ _______ _______ _____ _____    ______ ____
ROOT
ATOM      1  C   UNL     1       0.102   1.477  -0.016  0.00  0.00    +0.043 C 
ATOM      2  C   UNL     1      -0.133  -0.033  -0.085  0.00  0.00    +0.129 C 
ATOM      3  C   UNL     1      -1.637  -0.299  -0.103  0.00  0.00    +0.158 C 
ATOM      4  N   UNL     1      -2.184  -0.072   1.236  0.00  0.00    -0.323 N 
ATOM      5  C   UNL     1      -3.395   0.321   1.633  0.00  0.00    +0.200 A 
ATOM      6  N   UNL     1      -3.434   0.365   2.942  0.00  0.00    -0.230 NA
ATOM      7  C   UNL     1      -2.234   0.004   3.443  0.00  0.00    +0.155 A 
ATOM      8  C   UNL     1      -1.423  -0.270   2.373  0.00  0.00    +0.137 A 
ATOM      9  C   UNL     1      -0.014  -0.685   2.282  0.00  0.00    +0.267 C 
ATOM     10  O   UNL     1       0.620  -1.025   3.263  0.00  0.00    -0.268 OA
ATOM     11  N   UNL     1       0.538  -0.665   1.045  0.00  0.00    -0.277 N 
ENDROOT
BRANCH   7  12
ATOM     12  C   UNL     1      -1.864  -0.079   4.872  0.00  0.00    +0.265 C 
ATOM     13  O   UNL     1      -0.742  -0.420   5.191  0.00  0.00    -0.268 OA
ATOM     14  N   UNL     1      -2.772   0.222   5.822  0.00  0.00    -0.306 N 
ATOM     15  H   UNL     1      -3.668   0.494   5.567  0.00  0.00    +0.149 HD
BRANCH  14  16
ATOM     16  C   UNL     1      -2.406   0.140   7.238  0.00  0.00    +0.143 C 
BRANCH  16  17
ATOM     17  C   UNL     1      -3.590   0.525   8.086  0.00  0.00    +0.011 A 
ATOM     18  C   UNL     1      -3.676   1.797   8.618  0.00  0.00    +0.009 A 
ATOM     19  C   UNL     1      -4.762   2.151   9.396  0.00  0.00    +0.001 A 
ATOM     20  C   UNL     1      -5.766   1.233   9.645  0.00  0.00    +0.004 A 
ATOM     21  C   UNL     1      -5.685  -0.040   9.116  0.00  0.00    +0.046 A 
ATOM     22  C   UNL     1      -4.599  -0.396   8.329  0.00  0.00    +0.125 A 
BRANCH  22  23
ATOM     23  O   UNL     1      -4.520  -1.646   7.802  0.00  0.00    -0.495 OA
ATOM     24  C   UNL     1      -5.595  -2.542   8.094  0.00  0.00    +0.277 C 
ENDBRANCH  22  23
ENDBRANCH  16  17
ENDBRANCH  14  16
ENDBRANCH   7  12
BRANCH   2  25
ATOM     25  C   UNL     1       0.467  -0.560  -1.364  0.00  0.00    +0.238 C 
ATOM     26  O   UNL     1       0.759   0.207  -2.257  0.00  0.00    -0.273 OA
ATOM     27  N   UNL     1       0.678  -1.882  -1.514  0.00  0.00    -0.309 N 
ATOM     28  H   UNL     1       0.376  -2.502  -0.832  0.00  0.00    +0.149 HD
BRANCH  27  29
ATOM     29  C   UNL     1       1.364  -2.383  -2.708  0.00  0.00    +0.139 C 
BRANCH  29  30
ATOM     30  C   UNL     1       1.472  -3.885  -2.632  0.00  0.00    -0.030 A 
ATOM     31  C   UNL     1       2.573  -4.467  -2.031  0.00  0.00    +0.009 A 
ATOM     32  C   UNL     1       2.675  -5.843  -1.960  0.00  0.00    +0.046 A 
ATOM     33  C   UNL     1       1.672  -6.640  -2.493  0.00  0.00    +0.120 A 
ATOM     34  C   UNL     1       0.568  -6.053  -3.095  0.00  0.00    +0.046 A 
ATOM     35  C   UNL     1       0.469  -4.676  -3.158  0.00  0.00    +0.009 A 
BRANCH  33  36
ATOM     36  O   UNL     1       1.770  -7.994  -2.425  0.00  0.00    -0.495 OA
ATOM     37  C   UNL     1       0.700  -8.751  -2.994  0.00  0.00    +0.277 C 
ENDBRANCH  33  36
ENDBRANCH  29  30
ENDBRANCH  27  29
ENDBRANCH   2  25
BRANCH  11  38
ATOM     38  C   UNL     1       1.844  -1.297   0.837  0.00  0.00    +0.078 C 
ATOM     39  C   UNL     1       2.328  -2.286   1.899  0.00  0.00    +0.024 C 
ATOM     40  C   UNL     1       2.978  -0.905   1.787  0.00  0.00    +0.024 C 
ENDBRANCH  11  38
TORSDOF 9
