REMARK  Name = ZINC20883139
REMARK  11 active torsions:
REMARK  status: ('A' for Active; 'I' for Inactive)
REMARK    1  A    between atoms: C_1  and  C_2
REMARK    2  A    between atoms: C_2  and  C_3
REMARK    3  A    between atoms: C_3  and  C_5
REMARK    4  A    between atoms: C_3  and  O_6
REMARK    5  A    between atoms: O_6  and  C_7
REMARK    6  A    between atoms: C_10  and  C_13
REMARK    7  A    between atoms: C_18  and  C_23
REMARK    8  A    between atoms: C_26  and  O_29
REMARK    9  A    between atoms: O_29  and  C_30
REMARK   10  A    between atoms: C_30  and  C_31
REMARK   11  A    between atoms: C_30  and  C_32
REMARK                            x       y       z     vdW  Elec       q    Type
REMARK                         _______ _______ _______ _____ _____    ______ ____
ROOT
ATOM      1  C   UNL     1      -5.895   9.208  -0.347  0.00  0.00    +0.136 C 
ATOM      2  C   UNL     1      -5.013   8.063   0.089  0.00  0.00    +0.036 C 
ATOM      3  C   UNL     1      -3.723   8.156   0.455  0.00  0.00    +0.017 C 
ATOM      4  C   UNL     1      -2.948   6.918   0.872  0.00  0.00    +0.059 C 
ATOM      5  C   UNL     1      -3.886   5.919   1.548  0.00  0.00    +0.032 C 
ATOM      6  C   UNL     1      -4.981   5.550   0.540  0.00  0.00    +0.088 C 
ATOM      7  C   UNL     1      -5.667   6.808   0.099  0.00  0.00    +0.163 C 
ATOM      8  O   UNL     1      -6.825   6.748  -0.263  0.00  0.00    -0.292 OA
ATOM      9  N   UNL     1      -3.007   9.309   0.477  0.00  0.00    -0.316 N 
ATOM     10  C   UNL     1      -3.448  10.509   1.024  0.00  0.00    +0.052 A 
ATOM     11  C   UNL     1      -2.805  11.117   2.089  0.00  0.00    +0.025 A 
ATOM     12  C   UNL     1      -3.226  12.366   2.511  0.00  0.00    +0.002 A 
ATOM     13  C   UNL     1      -4.279  12.999   1.877  0.00  0.00    +0.002 A 
ATOM     14  C   UNL     1      -4.937  12.383   0.827  0.00  0.00    +0.025 A 
ATOM     15  C   UNL     1      -4.530  11.125   0.413  0.00  0.00    +0.049 A 
ATOM     16  N   UNL     1      -5.190  10.444  -0.609  0.00  0.00    -0.331 N 
ATOM     17  H   UNL     1      -1.998   9.339   0.041  0.00  0.00    +0.152 HD
ATOM     18  H   UNL     1      -5.169  10.861  -1.627  0.00  0.00    +0.147 HD
ENDROOT
BRANCH   1  22
ATOM     19  C   UNL     1      -8.787   9.931   2.715  0.00  0.00    +0.121 A 
ATOM     20  C   UNL     1      -9.195   9.497   1.462  0.00  0.00    +0.046 A 
ATOM     21  C   UNL     1      -8.259   9.264   0.474  0.00  0.00    +0.009 A 
ATOM     22  C   UNL     1      -6.915   9.463   0.733  0.00  0.00    -0.023 A 
ATOM     23  C   UNL     1      -6.505   9.889   1.982  0.00  0.00    +0.009 A 
ATOM     24  C   UNL     1      -7.438  10.129   2.972  0.00  0.00    +0.046 A 
BRANCH  19  25
ATOM     25  O   UNL     1      -9.707  10.161   3.689  0.00  0.00    -0.489 OA
BRANCH  25  26
ATOM     26  C   UNL     1     -11.083  10.045   3.322  0.00  0.00    +0.170 C 
ATOM     27  C   UNL     1     -11.508   8.577   3.391  0.00  0.00    +0.052 C 
BRANCH  26  29
ATOM     28  C   UNL     1     -11.600  12.354   4.125  0.00  0.00    +0.007 C 
ATOM     29  C   UNL     1     -11.939  10.870   4.285  0.00  0.00    +0.041 C 
ENDBRANCH  26  29
ENDBRANCH  25  26
ENDBRANCH  19  25
ENDBRANCH   1  22
BRANCH   5  30
ATOM     30  C   UNL     1      -3.118   4.684   1.943  0.00  0.00    -0.043 A 
ATOM     31  C   UNL     1      -3.071   4.295   3.269  0.00  0.00    +0.007 A 
ATOM     32  C   UNL     1      -2.368   3.164   3.634  0.00  0.00    +0.046 A 
ATOM     33  C   UNL     1      -1.708   2.417   2.668  0.00  0.00    +0.121 A 
ATOM     34  C   UNL     1      -1.753   2.812   1.339  0.00  0.00    +0.046 A 
ATOM     35  C   UNL     1      -2.462   3.941   0.979  0.00  0.00    +0.007 A 
BRANCH  33  36
ATOM     36  O   UNL     1      -1.016   1.303   3.025  0.00  0.00    -0.489 OA
BRANCH  36  37
ATOM     37  C   UNL     1      -0.950   0.999   4.419  0.00  0.00    +0.167 C 
ATOM     38  C   UNL     1       0.287   0.142   4.696  0.00  0.00    +0.051 C 
ATOM     39  C   UNL     1      -2.206   0.231   4.834  0.00  0.00    +0.051 C 
ENDBRANCH  36  37
ENDBRANCH  33  36
ENDBRANCH   5  30
TORSDOF 7
