REMARK  Name = ZINC00679161
REMARK  10 active torsions:
REMARK  status: ('A' for Active; 'I' for Inactive)
REMARK    1  A    between atoms: C_1  and  C_2
REMARK    2  A    between atoms: C_3  and  C_32
REMARK    3  A    between atoms: C_4  and  C_25
REMARK    4  A    between atoms: C_10  and  C_15
REMARK    5  A    between atoms: C_18  and  O_23
REMARK    6  A    between atoms: C_19  and  O_21
REMARK    7  A    between atoms: O_21  and  C_22
REMARK    8  A    between atoms: O_23  and  C_24
REMARK    9  A    between atoms: C_32  and  O_34
REMARK   10  A    between atoms: O_34  and  C_35
REMARK                            x       y       z     vdW  Elec       q    Type
REMARK                         _______ _______ _______ _____ _____    ______ ____
ROOT
ATOM      1  C   UNL     1      -6.193   3.211  -0.916  0.00  0.00    +0.061 C 
ATOM      2  C   UNL     1      -4.800   2.657  -1.067  0.00  0.00    +0.016 C 
ATOM      3  C   UNL     1      -4.130   2.837  -2.219  0.00  0.00    +0.065 C 
ATOM      4  C   UNL     1      -2.745   2.292  -2.407  0.00  0.00    +0.094 C 
ATOM      5  C   UNL     1      -2.111   1.956  -1.081  0.00  0.00    +0.024 C 
ATOM      6  C   UNL     1      -2.868   1.805   0.026  0.00  0.00    +0.016 C 
ATOM      7  N   UNL     1      -4.226   1.973  -0.032  0.00  0.00    -0.321 N 
ATOM      8  C   UNL     1      -2.243   1.445   1.351  0.00  0.00    +0.059 C 
ATOM      9  C   UNL     1      -0.828   2.028   1.429  0.00  0.00    +0.032 C 
ATOM     10  C   UNL     1      -0.011   1.474   0.257  0.00  0.00    +0.088 C 
ATOM     11  C   UNL     1      -0.714   1.802  -1.032  0.00  0.00    +0.162 C 
ATOM     12  O   UNL     1      -0.063   1.936  -2.049  0.00  0.00    -0.292 OA
ATOM     13  H   UNL     1      -4.856   1.550   0.765  0.00  0.00    +0.152 HD
ENDROOT
BRANCH   4  14
ATOM     14  C   UNL     1      -2.814   1.047  -3.253  0.00  0.00    -0.017 A 
ATOM     15  C   UNL     1      -3.524  -0.053  -2.807  0.00  0.00    +0.006 A 
ATOM     16  C   UNL     1      -3.587  -1.195  -3.582  0.00  0.00    +0.000 A 
ATOM     17  C   UNL     1      -2.941  -1.239  -4.804  0.00  0.00    +0.001 A 
ATOM     18  C   UNL     1      -2.231  -0.141  -5.250  0.00  0.00    +0.020 A 
ATOM     19  C   UNL     1      -2.172   1.005  -4.477  0.00  0.00    +0.045 A 
ATOM     20 CL   UNL     1      -1.286   2.388  -5.041  0.00  0.00    -0.083 Cl
ENDBRANCH   4  14
BRANCH   9  21
ATOM     21  C   UNL     1      -0.183   1.628   2.730  0.00  0.00    -0.040 A 
ATOM     22  C   UNL     1      -0.025   0.289   3.039  0.00  0.00    +0.008 A 
ATOM     23  C   UNL     1       0.566  -0.083   4.232  0.00  0.00    +0.049 A 
ATOM     24  C   UNL     1       1.003   0.886   5.121  0.00  0.00    +0.161 A 
ATOM     25  C   UNL     1       0.844   2.233   4.810  0.00  0.00    +0.162 A 
ATOM     26  C   UNL     1       0.255   2.599   3.611  0.00  0.00    +0.053 A 
BRANCH  25  27
ATOM     27  O   UNL     1       1.270   3.188   5.680  0.00  0.00    -0.491 OA
ATOM     28  C   UNL     1       1.075   4.550   5.295  0.00  0.00    +0.277 C 
ENDBRANCH  25  27
BRANCH  24  29
ATOM     29  O   UNL     1       1.584   0.521   6.295  0.00  0.00    -0.491 OA
ATOM     30  C   UNL     1       1.714  -0.880   6.547  0.00  0.00    +0.277 C 
ENDBRANCH  24  29
ENDBRANCH   9  21
BRANCH   3  31
ATOM     31  C   UNL     1      -4.744   3.554  -3.272  0.00  0.00    +0.338 C 
ATOM     32  O   UNL     1      -4.385   4.689  -3.525  0.00  0.00    -0.245 OA
BRANCH  31  33
ATOM     33  O   UNL     1      -5.726   2.979  -3.998  0.00  0.00    -0.458 OA
BRANCH  33  34
ATOM     34  C   UNL     1      -6.300   3.761  -5.047  0.00  0.00    +0.177 C 
ATOM     35  C   UNL     1      -7.542   4.513  -4.526  0.00  0.00    +0.044 C 
ATOM     36  C   UNL     1      -8.532   4.482  -5.717  0.00  0.00    +0.004 C 
ATOM     37  C   UNL     1      -8.306   3.070  -6.312  0.00  0.00    +0.004 C 
ATOM     38  C   UNL     1      -6.786   2.844  -6.183  0.00  0.00    +0.044 C 
ENDBRANCH  33  34
ENDBRANCH  31  33
ENDBRANCH   3  31
TORSDOF 7
