REMARK  Name = ZINC43285966
REMARK  10 active torsions:
REMARK  status: ('A' for Active; 'I' for Inactive)
REMARK    1  A    between atoms: C_1  and  C_2
REMARK    2  A    between atoms: C_2  and  C_3
REMARK    3  A    between atoms: C_3  and  N_4
REMARK    4  A    between atoms: N_4  and  C_5
REMARK    5  A    between atoms: N_4  and  C_12
REMARK    6  A    between atoms: C_5  and  C_6
REMARK    7  A    between atoms: C_12  and  C_14
REMARK    8  A    between atoms: C_12  and  C_20
REMARK    9  A    between atoms: C_20  and  C_22
REMARK   10  A    between atoms: C_20  and  N_23
REMARK                            x       y       z     vdW  Elec       q    Type
REMARK                         _______ _______ _______ _____ _____    ______ ____
ROOT
ATOM      1  N   UNL     1      -1.245  -2.102   0.018  0.00  0.00    +0.388 N 
ATOM      2  H   UNL     1      -0.583  -2.447  -0.661  0.00  0.00    -0.080 HD
ENDROOT
BRANCH   1   3
ATOM      3  C   UNL     1      -1.405  -0.651  -0.147  0.00  0.00    -0.078 C 
BRANCH   3   5
ATOM      4  C   UNL     1      -2.505   1.396   0.769  0.00  0.00    +0.002 C 
ATOM      5  C   UNL     1      -2.381  -0.122   0.906  0.00  0.00    -0.022 C 
ENDBRANCH   3   5
ENDBRANCH   1   3
BRANCH   1   6
ATOM      6  C   UNL     1      -2.542  -2.763  -0.183  0.00  0.00    -0.042 C 
BRANCH   6   7
ATOM      7  C   UNL     1      -2.988  -2.571  -1.610  0.00  0.00    -0.064 A 
ATOM      8  C   UNL     1      -3.751  -1.471  -1.953  0.00  0.00    +0.002 A 
ATOM      9  C   UNL     1      -4.160  -1.294  -3.262  0.00  0.00    +0.000 A 
ATOM     10  C   UNL     1      -3.806  -2.218  -4.227  0.00  0.00    +0.000 A 
ATOM     11  C   UNL     1      -3.042  -3.318  -3.884  0.00  0.00    +0.000 A 
ATOM     12  C   UNL     1      -2.629  -3.492  -2.576  0.00  0.00    +0.002 A 
ENDBRANCH   6   7
ENDBRANCH   1   6
BRANCH   1  13
ATOM     13  C   UNL     1      -0.754  -2.390   1.372  0.00  0.00    -0.014 C 
BRANCH  13  14
ATOM     14  C   UNL     1       0.551  -1.670   1.596  0.00  0.00    -0.021 A 
ATOM     15  C   UNL     1       1.000  -1.044   2.711  0.00  0.00    +0.025 A 
ATOM     16  C   UNL     1       2.245  -0.444   2.688  0.00  0.00    +0.025 A 
ATOM     17  C   UNL     1       2.980  -0.499   1.550  0.00  0.00    +0.060 A 
ATOM     18  S   UNL     1       1.910  -1.428   0.464  0.00  0.00    -0.102 S 
ATOM     19 BR   UNL     1       2.913   0.442   4.220  0.00  0.00    -0.050 Br
ENDBRANCH  13  14
BRANCH  13  20
ATOM     20  C   UNL     1      -0.538  -3.897   1.527  0.00  0.00    +0.039 C 
ATOM     21  C   UNL     1       0.394  -4.395   0.421  0.00  0.00    +0.022 C 
BRANCH  20  22
ATOM     22  N   UNL     1       0.066  -4.173   2.837  0.00  0.00    -0.329 NA
ATOM     23  H   UNL     1       0.159  -5.166   2.990  0.00  0.00    +0.118 HD
ATOM     24  H   UNL     1       0.956  -3.708   2.930  0.00  0.00    +0.118 HD
ENDBRANCH  20  22
ENDBRANCH  13  20
ENDBRANCH   1  13
TORSDOF 8
