REMARK  Name = ZINC35642269
REMARK  13 active torsions:
REMARK  status: ('A' for Active; 'I' for Inactive)
REMARK    1  A    between atoms: C_1  and  C_2
REMARK    2  A    between atoms: C_2  and  O_3
REMARK    3  A    between atoms: O_3  and  C_4
REMARK    4  A    between atoms: C_4  and  C_6
REMARK    5  A    between atoms: C_7  and  C_25
REMARK    6  A    between atoms: N_8  and  C_24
REMARK    7  A    between atoms: C_12  and  C_14
REMARK    8  A    between atoms: C_17  and  O_22
REMARK    9  A    between atoms: C_18  and  O_20
REMARK   10  A    between atoms: O_20  and  C_21
REMARK   11  A    between atoms: O_22  and  C_23
REMARK   12  A    between atoms: C_25  and  N_26
REMARK   13  A    between atoms: C_32  and  C_34
REMARK                            x       y       z     vdW  Elec       q    Type
REMARK                         _______ _______ _______ _____ _____    ______ ____
ROOT
ATOM      1  C   UNL     1       1.641  -2.095  -2.814  0.00  0.00    +0.080 C 
ATOM      2  C   UNL     1       1.889  -3.404  -3.034  0.00  0.00    +0.041 C 
ATOM      3  N   UNL     1       2.594  -3.813  -4.131  0.00  0.00    -0.260 N 
ATOM      4  C   UNL     1       3.084  -2.976  -5.053  0.00  0.00    +0.307 C 
ATOM      5  O   UNL     1       3.699  -3.434  -5.996  0.00  0.00    -0.252 OA
ATOM      6  N   UNL     1       2.917  -1.641  -4.971  0.00  0.00    -0.288 N 
ATOM      7  C   UNL     1       2.165  -1.098  -3.827  0.00  0.00    +0.144 C 
ATOM      8  C   UNL     1       2.826  -5.249  -4.307  0.00  0.00    +0.139 C 
ATOM      9  H   UNL     1       3.281  -1.052  -5.650  0.00  0.00    +0.151 HD
ENDROOT
BRANCH   7  10
ATOM     10  C   UNL     1       0.991  -0.320  -4.364  0.00  0.00    -0.019 A 
ATOM     11  C   UNL     1       0.110  -0.922  -5.244  0.00  0.00    +0.009 A 
ATOM     12  C   UNL     1      -0.969  -0.213  -5.739  0.00  0.00    +0.050 A 
ATOM     13  C   UNL     1      -1.169   1.103  -5.354  0.00  0.00    +0.162 A 
ATOM     14  C   UNL     1      -0.282   1.708  -4.469  0.00  0.00    +0.162 A 
ATOM     15  C   UNL     1       0.795   0.991  -3.972  0.00  0.00    +0.055 A 
BRANCH  14  16
ATOM     16  O   UNL     1      -0.474   3.000  -4.088  0.00  0.00    -0.491 OA
ATOM     17  C   UNL     1       0.531   3.588  -3.260  0.00  0.00    +0.277 C 
ENDBRANCH  14  16
BRANCH  13  18
ATOM     18  O   UNL     1      -2.229   1.802  -5.841  0.00  0.00    -0.491 OA
ATOM     19  C   UNL     1      -3.097   1.117  -6.746  0.00  0.00    +0.277 C 
ENDBRANCH  13  18
ENDBRANCH   7  10
BRANCH   1  20
ATOM     20  C   UNL     1       0.911  -1.670  -1.679  0.00  0.00    +0.339 C 
ATOM     21  O   UNL     1      -0.268  -1.389  -1.784  0.00  0.00    -0.245 OA
BRANCH  20  22
ATOM     22  O   UNL     1       1.523  -1.576  -0.480  0.00  0.00    -0.462 OA
BRANCH  22  24
ATOM     23  C   UNL     1       1.579  -1.085   1.885  0.00  0.00    +0.048 C 
ATOM     24  C   UNL     1       0.701  -1.255   0.644  0.00  0.00    +0.229 C 
ENDBRANCH  22  24
ENDBRANCH  20  22
ENDBRANCH   1  20
BRANCH   2  25
ATOM     25  C   UNL     1       1.381  -4.430  -2.054  0.00  0.00    +0.136 C 
BRANCH  25  26
ATOM     26  N   UNL     1       0.385  -5.285  -2.713  0.00  0.00    -0.294 NA
ATOM     27  C   UNL     1      -0.812  -4.515  -3.076  0.00  0.00    +0.104 C 
ATOM     28  C   UNL     1      -1.745  -5.394  -3.917  0.00  0.00    +0.123 C 
ATOM     29  N   UNL     1      -2.006  -6.638  -3.178  0.00  0.00    -0.299 N 
ATOM     30  C   UNL     1      -0.856  -7.396  -2.662  0.00  0.00    +0.123 C 
ATOM     31  C   UNL     1       0.042  -6.439  -1.871  0.00  0.00    +0.104 C 
ATOM     32  C   UNL     1      -3.266  -7.074  -2.979  0.00  0.00    +0.219 C 
ATOM     33  O   UNL     1      -4.203  -6.436  -3.412  0.00  0.00    -0.275 OA
BRANCH  32  34
ATOM     34  C   UNL     1      -3.511  -8.352  -2.220  0.00  0.00    +0.075 C 
ATOM     35  C   UNL     1      -2.888  -9.543  -2.976  0.00  0.00    +0.013 C 
ATOM     36  C   UNL     1      -3.895 -10.700  -2.756  0.00  0.00    +0.001 C 
ATOM     37  C   UNL     1      -5.264  -9.981  -2.833  0.00  0.00    +0.001 C 
ATOM     38  C   UNL     1      -5.022  -8.630  -2.129  0.00  0.00    +0.013 C 
ENDBRANCH  32  34
ENDBRANCH  25  26
ENDBRANCH   2  25
TORSDOF 9
