REMARK  Name = ZINC36346383
REMARK  15 active torsions:
REMARK  status: ('A' for Active; 'I' for Inactive)
REMARK    1  A    between atoms: C_1  and  C_2
REMARK    2  A    between atoms: C_2  and  C_3
REMARK    3  A    between atoms: C_3  and  N_4
REMARK    4  A    between atoms: N_4  and  C_5
REMARK    5  A    between atoms: N_4  and  C_26
REMARK    6  A    between atoms: C_5  and  C_6
REMARK    7  A    between atoms: C_7  and  C_25
REMARK    8  A    between atoms: N_9  and  C_19
REMARK    9  A    between atoms: C_10  and  O_11
REMARK   10  A    between atoms: O_11  and  C_12
REMARK   11  A    between atoms: C_26  and  C_27
REMARK   12  A    between atoms: C_27  and  C_29
REMARK   13  A    between atoms: C_27  and  O_33
REMARK   14  A    between atoms: C_29  and  C_30
REMARK   15  A    between atoms: C_30  and  C_31
REMARK                            x       y       z     vdW  Elec       q    Type
REMARK                         _______ _______ _______ _____ _____    ______ ____
ROOT
ATOM      1  C   UNL     1       0.165  -1.924   3.292  0.00  0.00    +0.021 A 
ATOM      2  C   UNL     1       0.129  -0.711   3.986  0.00  0.00    +0.065 A 
ATOM      3  N   UNL     1      -1.021  -0.621   4.603  0.00  0.00    -0.168 NA
ATOM      4  N   UNL     1      -1.764  -1.775   4.324  0.00  0.00    -0.200 N 
ATOM      5  C   UNL     1      -1.015  -2.564   3.508  0.00  0.00    +0.225 A 
ATOM      6  C   UNL     1       1.230   0.318   4.019  0.00  0.00    +0.068 C 
ENDROOT
BRANCH   4   7
ATOM      7  C   UNL     1      -3.052  -2.063   4.797  0.00  0.00    +0.069 A 
ATOM      8  C   UNL     1      -3.986  -2.652   3.956  0.00  0.00    +0.028 A 
ATOM      9  C   UNL     1      -5.254  -2.935   4.425  0.00  0.00    +0.002 A 
ATOM     10  C   UNL     1      -5.593  -2.632   5.731  0.00  0.00    +0.000 A 
ATOM     11  C   UNL     1      -4.665  -2.046   6.571  0.00  0.00    +0.002 A 
ATOM     12  C   UNL     1      -3.393  -1.766   6.110  0.00  0.00    +0.028 A 
ENDBRANCH   4   7
BRANCH   1  13
ATOM     13  C   UNL     1       1.307  -2.430   2.448  0.00  0.00    -0.036 C 
BRANCH  13  14
ATOM     14  N   UNL     1       1.135  -1.968   1.064  0.00  0.00    +0.384 N 
ATOM     15  H   UNL     1       0.227  -2.252   0.725  0.00  0.00    -0.081 HD
BRANCH  14  16
ATOM     16  C   UNL     1       1.238  -0.503   1.020  0.00  0.00    -0.079 C 
BRANCH  16  18
ATOM     17  C   UNL     1       0.913   1.516  -0.414  0.00  0.00    +0.002 C 
ATOM     18  C   UNL     1       0.941  -0.013  -0.399  0.00  0.00    -0.022 C 
ENDBRANCH  16  18
ENDBRANCH  14  16
BRANCH  14  19
ATOM     19  C   UNL     1       2.180  -2.558   0.217  0.00  0.00    -0.047 C 
BRANCH  19  20
ATOM     20  C   UNL     1       1.975  -4.072   0.135  0.00  0.00    +0.098 C 
BRANCH  20  21
ATOM     21  O   UNL     1       0.731  -4.350  -0.510  0.00  0.00    -0.394 OA
ATOM     22  H   UNL     1       0.697  -4.072  -1.436  0.00  0.00    +0.210 HD
ENDBRANCH  20  21
BRANCH  20  23
ATOM     23  C   UNL     1       3.117  -4.699  -0.668  0.00  0.00    +0.033 C 
BRANCH  23  24
ATOM     24  C   UNL     1       2.981  -6.222  -0.645  0.00  0.00    +0.029 C 
BRANCH  24  25
ATOM     25  C   UNL     1       4.106  -6.839  -1.435  0.00  0.00    -0.034 C 
ATOM     26  C   UNL     1       4.883  -7.735  -0.879  0.00  0.00    +0.004 C 
ENDBRANCH  24  25
ENDBRANCH  23  24
ENDBRANCH  20  23
ENDBRANCH  19  20
ENDBRANCH  14  19
ENDBRANCH  13  14
ENDBRANCH   1  13
BRANCH   5  27
ATOM     27  O   UNL     1      -1.378  -3.771   3.004  0.00  0.00    -0.438 OA
BRANCH  27  28
ATOM     28  C   UNL     1      -1.173  -4.872   3.774  0.00  0.00    +0.133 A 
ATOM     29  C   UNL     1      -0.710  -4.733   5.075  0.00  0.00    +0.046 A 
ATOM     30  C   UNL     1      -0.502  -5.853   5.857  0.00  0.00    +0.006 A 
ATOM     31  C   UNL     1      -0.755  -7.112   5.345  0.00  0.00    +0.038 A 
ATOM     32  C   UNL     1      -1.216  -7.254   4.048  0.00  0.00    +0.127 A 
ATOM     33  C   UNL     1      -1.432  -6.135   3.263  0.00  0.00    +0.084 A 
ATOM     34  F   UNL     1      -1.462  -8.486   3.549  0.00  0.00    -0.205 F 
ENDBRANCH  27  28
ENDBRANCH   5  27
TORSDOF 13
