REMARK  Name = ZINC47133704
REMARK  6 active torsions:
REMARK  status: ('A' for Active; 'I' for Inactive)
REMARK    1  A    between atoms: C_6  and  C_7
REMARK    2  A    between atoms: N_11  and  C_15
REMARK    3  A    between atoms: C_15  and  C_16
REMARK    4  A    between atoms: C_16  and  C_17
REMARK    5  A    between atoms: C_17  and  C_18
REMARK    6  A    between atoms: C_22  and  C_26
REMARK                            x       y       z     vdW  Elec       q    Type
REMARK                         _______ _______ _______ _____ _____    ______ ____
ROOT
ATOM      1  C   UNL     1      -4.868  -6.828  -3.496  0.00  0.00    +0.218 C 
ATOM      2  O   UNL     1      -4.258  -6.218  -4.349  0.00  0.00    -0.275 OA
ATOM      3  N   UNL     1      -5.827  -7.706  -3.852  0.00  0.00    -0.266 N 
ATOM      4  C   UNL     1      -6.117  -7.914  -5.199  0.00  0.00    +0.197 A 
ATOM      5  C   UNL     1      -7.133  -8.831  -5.727  0.00  0.00    +0.156 A 
ATOM      6  N   UNL     1      -7.115  -8.755  -7.031  0.00  0.00    -0.047 NA
ATOM      7  O   UNL     1      -6.119  -7.817  -7.397  0.00  0.00    -0.240 OA
ATOM      8  N   UNL     1      -5.535  -7.324  -6.205  0.00  0.00    -0.033 NA
ATOM      9  H   UNL     1      -6.314  -8.194  -3.169  0.00  0.00    +0.156 HD
ENDROOT
BRANCH   5  10
ATOM     10  C   UNL     1      -8.028  -9.696  -4.919  0.00  0.00    +0.007 A 
ATOM     11  C   UNL     1      -7.571 -10.262  -3.730  0.00  0.00    +0.010 A 
ATOM     12  C   UNL     1      -8.411 -11.065  -2.991  0.00  0.00    +0.004 A 
ATOM     13  C   UNL     1      -9.710 -11.316  -3.418  0.00  0.00    -0.044 A 
ATOM     14  C   UNL     1     -10.169 -10.754  -4.590  0.00  0.00    -0.044 A 
ATOM     15  C   UNL     1      -9.330  -9.943  -5.339  0.00  0.00    +0.014 A 
ATOM     16  C   UNL     1     -11.569 -10.972  -5.099  0.00  0.00    +0.035 C 
ATOM     17  C   UNL     1     -12.205 -12.186  -4.424  0.00  0.00    +0.005 C 
ATOM     18  C   UNL     1     -12.043 -12.035  -2.907  0.00  0.00    +0.005 C 
ATOM     19  C   UNL     1     -10.566 -12.211  -2.559  0.00  0.00    +0.035 C 
ENDBRANCH   5  10
BRANCH   1  20
ATOM     20  C   UNL     1      -4.554  -6.603  -2.040  0.00  0.00    +0.098 C 
BRANCH  20  21
ATOM     21  C   UNL     1      -3.437  -5.565  -1.913  0.00  0.00    +0.029 C 
BRANCH  21  22
ATOM     22  C   UNL     1      -3.119  -5.337  -0.434  0.00  0.00    +0.115 C 
BRANCH  22  27
ATOM     23  C   UNL     1      -1.258  -0.759   0.011  0.00  0.00    +0.028 C 
ATOM     24  C   UNL     1      -1.240  -2.111  -0.099  0.00  0.00    +0.077 C 
ATOM     25  C   UNL     1      -2.364  -3.062  -0.220  0.00  0.00    +0.258 C 
ATOM     26  O   UNL     1      -3.521  -2.686  -0.233  0.00  0.00    -0.269 OA
ATOM     27  N   UNL     1      -2.049  -4.343  -0.313  0.00  0.00    -0.255 N 
ATOM     28  C   UNL     1      -0.765  -4.756  -0.298  0.00  0.00    +0.121 C 
ATOM     29  S   UNL     1      -0.161  -6.354  -0.406  0.00  0.00    -0.027 S 
ATOM     30  S   UNL     1       0.153  -3.232  -0.146  0.00  0.00    -0.061 S 
BRANCH  23  36
ATOM     31  C   UNL     1       1.190  -0.642  -0.410  0.00  0.00    +0.011 A 
ATOM     32  C   UNL     1       2.364   0.077  -0.473  0.00  0.00    +0.039 A 
ATOM     33  C   UNL     1       2.365   1.434  -0.186  0.00  0.00    +0.123 A 
ATOM     34  C   UNL     1       1.188   2.077   0.164  0.00  0.00    +0.039 A 
ATOM     35  C   UNL     1       0.006   1.371   0.230  0.00  0.00    +0.011 A 
ATOM     36  C   UNL     1      -0.003   0.001  -0.058  0.00  0.00    -0.024 A 
ATOM     37  F   UNL     1       3.520   2.133  -0.248  0.00  0.00    -0.205 F 
ENDBRANCH  23  36
ENDBRANCH  22  27
ENDBRANCH  21  22
ENDBRANCH  20  21
ENDBRANCH   1  20
TORSDOF 6
