REMARK  Name = ZINC67263399
REMARK  5 active torsions:
REMARK  status: ('A' for Active; 'I' for Inactive)
REMARK    1  A    between atoms: C_1  and  C_2
REMARK    2  A    between atoms: C_2  and  C_4
REMARK    3  A    between atoms: C_2  and  N_11
REMARK    4  A    between atoms: C_21  and  S_24
REMARK    5  A    between atoms: S_24  and  C_27
REMARK                            x       y       z     vdW  Elec       q    Type
REMARK                         _______ _______ _______ _____ _____    ______ ____
ROOT
ATOM      1  N   UNL     1       0.711  -0.489   1.189  0.00  0.00    -0.322 N 
ATOM      2  C   UNL     1       2.090  -0.603   1.173  0.00  0.00    +0.138 A 
ATOM      3  C   UNL     1       2.767  -1.071   2.303  0.00  0.00    +0.077 A 
ATOM      4  C   UNL     1       4.160  -1.200   2.325  0.00  0.00    +0.087 A 
ATOM      5  C   UNL     1       4.708  -1.680   3.516  0.00  0.00    +0.036 A 
ATOM      6  C   UNL     1       3.905  -1.989   4.559  0.00  0.00    +0.048 A 
ATOM      7  S   UNL     1       2.280  -1.615   3.920  0.00  0.00    -0.092 S 
ATOM      8  N   UNL     1       4.814  -0.829   1.146  0.00  0.00    -0.192 N 
ATOM      9  C   UNL     1       4.109  -0.377   0.067  0.00  0.00    +0.204 A 
ATOM     10  N   UNL     1       2.769  -0.274   0.088  0.00  0.00    -0.209 NA
ATOM     11  C   UNL     1       5.050  -0.103  -0.913  0.00  0.00    +0.249 A 
ATOM     12  N   UNL     1       6.254  -0.384  -0.429  0.00  0.00    -0.108 NA
ATOM     13  N   UNL     1       6.164  -0.814   0.781  0.00  0.00    -0.057 NA
ATOM     14  H   UNL     1       0.213  -0.731   1.986  0.00  0.00    +0.148 HD
ENDROOT
BRANCH  11  15
ATOM     15  S   UNL     1       4.707   0.511  -2.528  0.00  0.00    +0.047 S 
ATOM     16  O   UNL     1       5.800   0.126  -3.350  0.00  0.00    -0.163 OA
ATOM     17  O   UNL     1       3.366   0.147  -2.825  0.00  0.00    -0.163 OA
BRANCH  15  18
ATOM     18  C   UNL     1       4.742   2.271  -2.435  0.00  0.00    +0.096 A 
ATOM     19  C   UNL     1       3.587   2.970  -2.140  0.00  0.00    +0.029 A 
ATOM     20  C   UNL     1       3.614   4.350  -2.066  0.00  0.00    +0.022 A 
ATOM     21  C   UNL     1       4.798   5.031  -2.288  0.00  0.00    +0.041 A 
ATOM     22  C   UNL     1       5.954   4.330  -2.583  0.00  0.00    +0.022 A 
ATOM     23  C   UNL     1       5.927   2.950  -2.651  0.00  0.00    +0.029 A 
ATOM     24 CL   UNL     1       4.832   6.764  -2.196  0.00  0.00    -0.084 Cl
ENDBRANCH  15  18
ENDBRANCH  11  15
BRANCH   1  26
ATOM     25  C   UNL     1      -0.019   1.526   0.010  0.00  0.00    +0.033 C 
ATOM     26  C   UNL     1       0.002  -0.004   0.002  0.00  0.00    +0.099 C 
BRANCH  26  27
ATOM     27  C   UNL     1      -1.412  -0.526   0.013  0.00  0.00    -0.027 A 
ATOM     28  C   UNL     1      -2.122  -0.571   1.198  0.00  0.00    +0.008 A 
ATOM     29  C   UNL     1      -3.419  -1.048   1.209  0.00  0.00    +0.038 A 
ATOM     30  C   UNL     1      -4.006  -1.482   0.032  0.00  0.00    +0.123 A 
ATOM     31  C   UNL     1      -3.294  -1.437  -1.154  0.00  0.00    +0.038 A 
ATOM     32  C   UNL     1      -1.999  -0.954  -1.163  0.00  0.00    +0.008 A 
ATOM     33  F   UNL     1      -5.274  -1.950   0.042  0.00  0.00    -0.205 F 
ENDBRANCH  26  27
ENDBRANCH   1  26
TORSDOF 4
