REMARK  Name = ZINC11024086
REMARK  9 active torsions:
REMARK  status: ('A' for Active; 'I' for Inactive)
REMARK    1  A    between atoms: C_1  and  C_2
REMARK    2  A    between atoms: C_2  and  O_3
REMARK    3  A    between atoms: O_3  and  C_4
REMARK    4  A    between atoms: C_4  and  C_6
REMARK    5  A    between atoms: C_7  and  C_35
REMARK    6  A    between atoms: C_8  and  C_25
REMARK    7  A    between atoms: C_10  and  N_11
REMARK    8  A    between atoms: C_12  and  C_14
REMARK    9  A    between atoms: C_25  and  C_26
REMARK                            x       y       z     vdW  Elec       q    Type
REMARK                         _______ _______ _______ _____ _____    ______ ____
ROOT
ATOM      1  C   UNL     1       1.930   4.843   3.552  0.00  0.00    +0.091 A 
ATOM      2  C   UNL     1       2.205   4.378   2.213  0.00  0.00    -0.024 A 
ATOM      3  C   UNL     1       1.148   4.090   1.433  0.00  0.00    -0.000 A 
ATOM      4  S   UNL     1      -0.245   4.429   2.490  0.00  0.00    -0.077 S 
ATOM      5  C   UNL     1       0.591   4.942   3.916  0.00  0.00    +0.087 A 
ATOM      6  C   UNL     1       3.617   4.224   1.709  0.00  0.00    +0.045 C 
ENDROOT
BRANCH   5   7
ATOM      7  N   UNL     1       0.056   5.351   5.127  0.00  0.00    -0.275 N 
ATOM      8  C   UNL     1      -1.280   5.382   5.297  0.00  0.00    +0.255 C 
ATOM      9  O   UNL     1      -2.017   5.051   4.387  0.00  0.00    -0.270 OA
ATOM     10  H   UNL     1       0.644   5.615   5.852  0.00  0.00    +0.156 HD
BRANCH   8  11
ATOM     11  C   UNL     1      -1.849   5.817   6.583  0.00  0.00    +0.119 A 
ATOM     12  C   UNL     1      -1.035   6.186   7.616  0.00  0.00    +0.212 A 
ATOM     13  O   UNL     1      -1.511   6.590   8.792  0.00  0.00    -0.462 OA
ATOM     14  C   UNL     1      -2.826   6.662   9.077  0.00  0.00    +0.138 A 
ATOM     15  C   UNL     1      -3.255   7.088  10.329  0.00  0.00    +0.047 A 
ATOM     16  C   UNL     1      -4.603   7.157  10.610  0.00  0.00    +0.004 A 
ATOM     17  C   UNL     1      -5.545   6.806   9.655  0.00  0.00    +0.001 A 
ATOM     18  C   UNL     1      -5.142   6.381   8.407  0.00  0.00    +0.015 A 
ATOM     19  C   UNL     1      -3.782   6.307   8.111  0.00  0.00    +0.065 A 
ATOM     20  C   UNL     1      -3.309   5.857   6.787  0.00  0.00    +0.205 A 
ATOM     21  O   UNL     1      -4.087   5.536   5.906  0.00  0.00    -0.286 OA
ENDBRANCH   8  11
ENDBRANCH   5   7
BRANCH   1  22
ATOM     22  C   UNL     1       3.007   5.189   4.482  0.00  0.00    +0.342 C 
ATOM     23  O   UNL     1       3.475   4.338   5.214  0.00  0.00    -0.245 OA
BRANCH  22  24
ATOM     24  O   UNL     1       3.479   6.452   4.527  0.00  0.00    -0.461 OA
BRANCH  24  26
ATOM     25  C   UNL     1       4.949   8.196   5.380  0.00  0.00    +0.048 C 
ATOM     26  C   UNL     1       4.547   6.723   5.472  0.00  0.00    +0.229 C 
ENDBRANCH  24  26
ENDBRANCH  22  24
ENDBRANCH   1  22
BRANCH   3  27
ATOM     27  C   UNL     1       1.143   3.595   0.010  0.00  0.00    +0.078 C 
BRANCH  27  28
ATOM     28  C   UNL     1       1.169   2.089   0.002  0.00  0.00    -0.039 A 
ATOM     29  C   UNL     1      -0.017   1.378   0.010  0.00  0.00    +0.008 A 
ATOM     30  C   UNL     1       0.002  -0.004   0.002  0.00  0.00    +0.050 A 
ATOM     31  C   UNL     1       1.211  -0.681  -0.013  0.00  0.00    +0.166 A 
ATOM     32  C   UNL     1       2.405   0.035  -0.021  0.00  0.00    +0.166 A 
ATOM     33  C   UNL     1       2.379   1.420  -0.012  0.00  0.00    +0.053 A 
ATOM     34  O   UNL     1       3.444  -0.851  -0.036  0.00  0.00    -0.453 OA
ATOM     35  C   UNL     1       2.873  -2.106  -0.450  0.00  0.00    +0.466 C 
ATOM     36  O   UNL     1       1.501  -2.015  -0.024  0.00  0.00    -0.453 OA
ENDBRANCH  27  28
ENDBRANCH   3  27
TORSDOF 7
