REMARK  Name = ZINC33347567
REMARK  4 active torsions:
REMARK  status: ('A' for Active; 'I' for Inactive)
REMARK    1  A    between atoms: C_1  and  C_2
REMARK    2  A    between atoms: C_7  and  C_8
REMARK    3  A    between atoms: C_11  and  C_13
REMARK    4  A    between atoms: N_19  and  C_20
REMARK                            x       y       z     vdW  Elec       q    Type
REMARK                         _______ _______ _______ _____ _____    ______ ____
ROOT
ATOM      1  C   UNL     1       1.146   2.557   4.715  0.00  0.00    +0.066 C 
ATOM      2  C   UNL     1       2.144   3.258   4.103  0.00  0.00    +0.081 C 
ATOM      3  C   UNL     1       2.769   4.530   4.497  0.00  0.00    +0.257 C 
ATOM      4  O   UNL     1       2.418   5.127   5.499  0.00  0.00    -0.269 OA
ATOM      5  N   UNL     1       3.729   4.997   3.716  0.00  0.00    -0.260 N 
ATOM      6  C   UNL     1       4.112   4.307   2.587  0.00  0.00    +0.166 C 
ATOM      7  N   UNL     1       5.038   4.624   1.710  0.00  0.00    -0.224 NA
ATOM      8  S   UNL     1       3.049   2.873   2.610  0.00  0.00    -0.049 S 
ATOM      9  H   UNL     1       4.167   5.832   3.941  0.00  0.00    +0.157 HD
ENDROOT
BRANCH   7  10
ATOM     10  C   UNL     1       5.844   5.709   1.927  0.00  0.00    +0.085 A 
ATOM     11  C   UNL     1       6.480   5.874   3.159  0.00  0.00    +0.029 A 
ATOM     12  C   UNL     1       7.291   6.969   3.372  0.00  0.00    +0.002 A 
ATOM     13  C   UNL     1       7.475   7.904   2.368  0.00  0.00    +0.002 A 
ATOM     14  C   UNL     1       6.849   7.747   1.144  0.00  0.00    +0.022 A 
ATOM     15  C   UNL     1       6.038   6.653   0.915  0.00  0.00    +0.066 A 
ATOM     16 CL   UNL     1       5.258   6.455  -0.623  0.00  0.00    -0.081 Cl
ENDBRANCH   7  10
BRANCH   1  20
ATOM     17  C   UNL     1       0.499  -0.391   2.817  0.00  0.00    +0.136 A 
ATOM     18  C   UNL     1      -0.419  -0.563   3.814  0.00  0.00    +0.050 A 
ATOM     19  C   UNL     1      -0.303   0.531   4.675  0.00  0.00    +0.050 A 
ATOM     20  C   UNL     1       0.696   1.339   4.161  0.00  0.00    +0.130 A 
ATOM     21  O   UNL     1       1.168   0.755   3.039  0.00  0.00    -0.455 OA
BRANCH  17  28
ATOM     22  C   UNL     1       0.579   0.651   0.119  0.00  0.00    +0.044 C 
ATOM     23  C   UNL     1       0.764  -0.822   0.379  0.00  0.00    -0.040 A 
ATOM     24  C   UNL     1       0.979  -1.687  -0.673  0.00  0.00    +0.005 A 
ATOM     25  C   UNL     1       1.149  -3.040  -0.437  0.00  0.00    +0.020 A 
ATOM     26  C   UNL     1       1.105  -3.535   0.856  0.00  0.00    +0.042 A 
ATOM     27  C   UNL     1       0.890  -2.680   1.918  0.00  0.00    +0.031 A 
ATOM     28  C   UNL     1       0.723  -1.312   1.686  0.00  0.00    +0.022 A 
ATOM     29 CL   UNL     1       1.319  -5.234   1.141  0.00  0.00    -0.084 Cl
ENDBRANCH  17  28
ENDBRANCH   1  20
TORSDOF 3
