REMARK  Name = ZINC13208048
REMARK  5 active torsions:
REMARK  status: ('A' for Active; 'I' for Inactive)
REMARK    1  A    between atoms: C_1  and  C_2
REMARK    2  A    between atoms: C_5  and  C_8
REMARK    3  A    between atoms: C_8  and  C_10
REMARK    4  A    between atoms: C_15  and  C_17
REMARK    5  A    between atoms: C_26  and  C_29
REMARK                            x       y       z     vdW  Elec       q    Type
REMARK                         _______ _______ _______ _____ _____    ______ ____
ROOT
ATOM      1  C   UNL     1       1.313  -2.685  -1.435  0.00  0.00    +0.077 C 
ATOM      2  C   UNL     1       0.207  -3.442  -1.630  0.00  0.00    +0.250 C 
ATOM      3  C   UNL     1      -0.615  -3.425  -0.402  0.00  0.00    +0.293 C 
ATOM      4  O   UNL     1      -1.671  -4.011  -0.262  0.00  0.00    -0.266 OA
ATOM      5  N   UNL     1      -0.022  -2.667   0.537  0.00  0.00    -0.235 N 
ATOM      6  C   UNL     1       1.227  -2.143  -0.027  0.00  0.00    +0.154 C 
ATOM      7  C   UNL     1      -0.508  -2.422   1.821  0.00  0.00    +0.172 A 
ATOM      8  C   UNL     1       0.053  -1.553   2.794  0.00  0.00    +0.091 A 
ATOM      9  C   UNL     1      -0.781  -1.666   3.852  0.00  0.00    +0.136 A 
ATOM     10  O   UNL     1      -1.733  -2.542   3.498  0.00  0.00    -0.358 OA
ATOM     11  N   UNL     1      -1.569  -2.951   2.372  0.00  0.00    -0.063 NA
ATOM     12  C   UNL     1      -0.661  -0.952   5.174  0.00  0.00    +0.089 C 
ATOM     13  O   UNL     1      -0.097  -4.107  -2.768  0.00  0.00    -0.282 OA
ENDROOT
BRANCH   6  14
ATOM     14  C   UNL     1       1.192  -0.637  -0.053  0.00  0.00    +0.013 A 
ATOM     15  C   UNL     1      -0.020   0.027  -0.069  0.00  0.00    +0.008 A 
ATOM     16  C   UNL     1      -0.052   1.408  -0.093  0.00  0.00    +0.001 A 
ATOM     17  C   UNL     1       1.128   2.128  -0.101  0.00  0.00    +0.003 A 
ATOM     18  C   UNL     1       2.341   1.467  -0.085  0.00  0.00    +0.039 A 
ATOM     19  C   UNL     1       2.375   0.083  -0.060  0.00  0.00    +0.129 A 
ATOM     20  F   UNL     1       3.561  -0.564  -0.044  0.00  0.00    -0.205 F 
ENDBRANCH   6  14
BRANCH   1  21
ATOM     21  C   UNL     1       2.386  -2.439  -2.403  0.00  0.00    +0.195 C 
ATOM     22  O   UNL     1       2.156  -1.809  -3.418  0.00  0.00    -0.287 OA
BRANCH  21  27
ATOM     23  C   UNL     1       7.683  -4.453  -1.400  0.00  0.00    +0.044 C 
ATOM     24  C   UNL     1       6.296  -3.925  -1.663  0.00  0.00    -0.050 A 
ATOM     25  C   UNL     1       6.064  -3.112  -2.758  0.00  0.00    +0.004 A 
ATOM     26  C   UNL     1       4.797  -2.626  -3.004  0.00  0.00    +0.012 A 
ATOM     27  C   UNL     1       3.747  -2.957  -2.145  0.00  0.00    +0.022 A 
ATOM     28  C   UNL     1       3.988  -3.774  -1.039  0.00  0.00    +0.012 A 
ATOM     29  C   UNL     1       5.259  -4.257  -0.808  0.00  0.00    +0.004 A 
ENDBRANCH  21  27
ENDBRANCH   1  21
TORSDOF 3
