REMARK  Name = ZINC06474711
REMARK  9 active torsions:
REMARK  status: ('A' for Active; 'I' for Inactive)
REMARK    1  A    between atoms: C_4  and  N_7
REMARK    2  A    between atoms: C_8  and  C_26
REMARK    3  A    between atoms: C_11  and  S_12
REMARK    4  A    between atoms: S_12  and  C_13
REMARK    5  A    between atoms: C_13  and  C_14
REMARK    6  A    between atoms: N_16  and  C_17
REMARK    7  A    between atoms: C_20  and  N_23
REMARK    8  A    between atoms: C_26  and  O_27
REMARK    9  A    between atoms: O_27  and  C_28
REMARK                            x       y       z     vdW  Elec       q    Type
REMARK                         _______ _______ _______ _____ _____    ______ ____
ROOT
ATOM      1  N   UNL     1       6.629  -1.204  -1.173  0.00  0.00    -0.271 N 
ATOM      2  C   UNL     1       5.995  -0.717  -0.061  0.00  0.00    +0.176 A 
ATOM      3  N   UNL     1       6.631  -1.177   0.979  0.00  0.00    -0.130 NA
ATOM      4  N   UNL     1       7.610  -1.922   0.606  0.00  0.00    -0.122 NA
ATOM      5  C   UNL     1       7.659  -1.972  -0.705  0.00  0.00    +0.197 A 
ENDROOT
BRANCH   1   9
ATOM      6  C   UNL     1       5.629  -0.490  -5.157  0.00  0.00    +0.000 A 
ATOM      7  C   UNL     1       6.832  -0.031  -4.655  0.00  0.00    +0.002 A 
ATOM      8  C   UNL     1       7.167  -0.266  -3.336  0.00  0.00    +0.026 A 
ATOM      9  C   UNL     1       6.293  -0.964  -2.514  0.00  0.00    +0.050 A 
ATOM     10  C   UNL     1       5.087  -1.428  -3.022  0.00  0.00    +0.026 A 
ATOM     11  C   UNL     1       4.756  -1.186  -4.341  0.00  0.00    +0.002 A 
ENDBRANCH   1   9
BRANCH   5  12
ATOM     12  S   UNL     1       8.831  -2.860  -1.676  0.00  0.00    -0.076 S 
BRANCH  12  13
ATOM     13  C   UNL     1       9.833  -3.599  -0.362  0.00  0.00    +0.173 C 
BRANCH  13  14
ATOM     14  C   UNL     1      10.931  -4.429  -0.975  0.00  0.00    +0.227 C 
ATOM     15  O   UNL     1      11.027  -4.513  -2.181  0.00  0.00    -0.275 OA
ATOM     16  N   UNL     1      11.807  -5.079  -0.182  0.00  0.00    -0.285 N 
ATOM     17  H   UNL     1      11.772  -4.958   0.779  0.00  0.00    +0.155 HD
BRANCH  16  18
ATOM     18  C   UNL     1      12.766  -5.926  -0.747  0.00  0.00    +0.034 A 
ATOM     19  C   UNL     1      13.157  -7.079  -0.078  0.00  0.00    +0.025 A 
ATOM     20  C   UNL     1      14.100  -7.916  -0.641  0.00  0.00    +0.034 A 
ATOM     21  C   UNL     1      14.664  -7.602  -1.864  0.00  0.00    +0.126 A 
ATOM     22  C   UNL     1      14.281  -6.452  -2.530  0.00  0.00    +0.034 A 
ATOM     23  C   UNL     1      13.334  -5.614  -1.976  0.00  0.00    +0.025 A 
BRANCH  21  24
ATOM     24  N   UNL     1      15.678  -8.499  -2.462  0.00  0.00    +0.056 N 
ATOM     25  O   UNL     1      16.176  -8.223  -3.539  0.00  0.00    -0.126 OA
ATOM     26  O   UNL     1      16.016  -9.512  -1.876  0.00  0.00    -0.126 OA
ENDBRANCH  21  24
ENDBRANCH  16  18
ENDBRANCH  13  14
ENDBRANCH  12  13
ENDBRANCH   5  12
BRANCH   2  27
ATOM     27  C   UNL     1       4.790   0.187  -0.043  0.00  0.00    +0.305 C 
BRANCH  27  28
ATOM     28  O   UNL     1       3.601  -0.604  -0.027  0.00  0.00    -0.484 OA
BRANCH  28  29
ATOM     29  C   UNL     1       2.416   0.062  -0.010  0.00  0.00    +0.121 A 
ATOM     30  C   UNL     1       1.222  -0.644   0.006  0.00  0.00    +0.045 A 
ATOM     31  C   UNL     1       0.019   0.035   0.023  0.00  0.00    +0.004 A 
ATOM     32  C   UNL     1       0.005   1.418   0.024  0.00  0.00    +0.000 A 
ATOM     33  C   UNL     1       1.194   2.124   0.007  0.00  0.00    +0.004 A 
ATOM     34  C   UNL     1       2.399   1.449  -0.009  0.00  0.00    +0.045 A 
ENDBRANCH  28  29
ENDBRANCH  27  28
ENDBRANCH   2  27
TORSDOF 9
