REMARK  Name = ZINC20702368
REMARK  8 active torsions:
REMARK  status: ('A' for Active; 'I' for Inactive)
REMARK    1  A    between atoms: C_1  and  C_2
REMARK    2  A    between atoms: C_2  and  O_4
REMARK    3  A    between atoms: O_4  and  C_5
REMARK    4  A    between atoms: C_8  and  C_13
REMARK    5  A    between atoms: C_10  and  O_11
REMARK    6  A    between atoms: O_11  and  C_12
REMARK    7  A    between atoms: C_24  and  S_29
REMARK    8  A    between atoms: S_29  and  N_32
REMARK                            x       y       z     vdW  Elec       q    Type
REMARK                         _______ _______ _______ _____ _____    ______ ____
ROOT
ATOM      1  C   UNL     1      -0.531   7.756   0.016  0.00  0.00    +0.105 C 
ATOM      2  C   UNL     1      -0.420   8.270  -1.408  0.00  0.00    +0.029 C 
ATOM      3  C   UNL     1      -1.538   7.880  -2.383  0.00  0.00    +0.033 C 
ATOM      4  C   UNL     1      -0.792   7.872  -3.719  0.00  0.00    -0.030 C 
ATOM      5  C   UNL     1       0.498   7.636  -3.517  0.00  0.00    -0.023 C 
ATOM      6  C   UNL     1       0.722   7.435  -2.063  0.00  0.00    +0.049 C 
ATOM      7  C   UNL     1       1.993   7.815  -1.408  0.00  0.00    -0.018 A 
ATOM      8  C   UNL     1       3.190   7.860  -2.089  0.00  0.00    +0.034 A 
ATOM      9  C   UNL     1       4.354   8.210  -1.430  0.00  0.00    +0.109 A 
ATOM     10  C   UNL     1       4.320   8.515  -0.081  0.00  0.00    +0.030 A 
ATOM     11  C   UNL     1       3.126   8.477   0.608  0.00  0.00    +0.025 A 
ATOM     12  C   UNL     1       1.949   8.132  -0.046  0.00  0.00    +0.031 A 
ATOM     13  N   UNL     1       0.746   8.119   0.670  0.00  0.00    -0.336 N 
ATOM     14  H   UNL     1       0.761   8.385   1.738  0.00  0.00    +0.147 HD
ENDROOT
BRANCH   1  18
ATOM     15  C   UNL     1      -1.032   3.509   0.020  0.00  0.00    +0.173 A 
ATOM     16  C   UNL     1       0.238   4.060   0.086  0.00  0.00    +0.050 A 
ATOM     17  C   UNL     1       0.397   5.433   0.085  0.00  0.00    +0.009 A 
ATOM     18  C   UNL     1      -0.710   6.260   0.017  0.00  0.00    -0.023 A 
ATOM     19  C   UNL     1      -1.979   5.717  -0.049  0.00  0.00    +0.055 A 
ATOM     20  C   UNL     1      -2.145   4.341  -0.054  0.00  0.00    +0.163 A 
BRANCH  20  21
ATOM     21  O   UNL     1      -3.393   3.805  -0.125  0.00  0.00    -0.491 OA
ATOM     22  C   UNL     1      -4.488   4.720  -0.199  0.00  0.00    +0.277 C 
ENDBRANCH  20  21
BRANCH  15  23
ATOM     23  O   UNL     1      -1.190   2.158   0.021  0.00  0.00    -0.422 OA
BRANCH  23  25
ATOM     24  C   UNL     1      -1.355   0.051  -1.256  0.00  0.00    +0.136 C 
ATOM     25  C   UNL     1      -1.282   1.554  -1.175  0.00  0.00    +0.309 C 
ATOM     26  O   UNL     1      -1.311   2.216  -2.185  0.00  0.00    -0.251 OA
ENDBRANCH  23  25
ENDBRANCH  15  23
ENDBRANCH   1  18
BRANCH   9  27
ATOM     27  S   UNL     1       5.881   8.267  -2.308  0.00  0.00    +0.075 S 
ATOM     28  O   UNL     1       5.555   8.469  -3.676  0.00  0.00    -0.150 OA
ATOM     29  O   UNL     1       6.730   9.151  -1.589  0.00  0.00    -0.150 OA
BRANCH  27  30
ATOM     30  N   UNL     1       6.564   6.762  -2.201  0.00  0.00    -0.202 N 
ATOM     31  C   UNL     1       7.482   6.330  -1.143  0.00  0.00    +0.136 C 
ATOM     32  C   UNL     1       7.829   4.871  -1.483  0.00  0.00    +0.058 C 
ATOM     33  C   UNL     1       7.062   4.584  -2.754  0.00  0.00    -0.023 A 
ATOM     34  C   UNL     1       6.354   5.723  -3.108  0.00  0.00    +0.054 A 
ATOM     35  C   UNL     1       5.565   5.699  -4.260  0.00  0.00    +0.025 A 
ATOM     36  C   UNL     1       5.493   4.557  -5.030  0.00  0.00    +0.002 A 
ATOM     37  C   UNL     1       6.202   3.427  -4.667  0.00  0.00    +0.000 A 
ATOM     38  C   UNL     1       6.987   3.443  -3.528  0.00  0.00    +0.005 A 
ENDBRANCH  27  30
ENDBRANCH   9  27
TORSDOF 6
