REMARK  Name = ZINC05261932
REMARK  4 active torsions:
REMARK  status: ('A' for Active; 'I' for Inactive)
REMARK    1  A    between atoms: C_4  and  C_7
REMARK    2  A    between atoms: C_10  and  N_11
REMARK    3  A    between atoms: N_11  and  N_12
REMARK    4  A    between atoms: N_12  and  C_13
REMARK                            x       y       z     vdW  Elec       q    Type
REMARK                         _______ _______ _______ _____ _____    ______ ____
ROOT
ATOM      1  N   UNL     1       4.910  -4.650  -0.087  0.00  0.00    -0.271 N 
ATOM      2  H   UNL     1       3.945  -4.545  -0.077  0.00  0.00    +0.169 HD
ENDROOT
BRANCH   1   6
ATOM      3  C   UNL     1       3.695  -0.684  -0.038  0.00  0.00    +0.232 C 
ATOM      4  N   UNL     1       3.825  -1.981  -0.052  0.00  0.00    -0.204 NA
ATOM      5  C   UNL     1       5.156  -2.291  -0.066  0.00  0.00    +0.167 C 
ATOM      6  C   UNL     1       5.713  -3.553  -0.083  0.00  0.00    +0.122 C 
ATOM      7  C   UNL     1       5.853  -1.050  -0.060  0.00  0.00    +0.366 C 
ATOM      8  O   UNL     1       7.060  -0.888  -0.070  0.00  0.00    -0.243 OA
ATOM      9  O   UNL     1       4.905  -0.090  -0.048  0.00  0.00    -0.402 OA
BRANCH   3  13
ATOM     10  C   UNL     1      -0.017   1.379   0.010  0.00  0.00    +0.000 A 
ATOM     11  C   UNL     1       1.168   2.094   0.002  0.00  0.00    +0.001 A 
ATOM     12  C   UNL     1       2.377   1.430  -0.013  0.00  0.00    +0.013 A 
ATOM     13  C   UNL     1       2.404   0.034  -0.021  0.00  0.00    +0.037 A 
ATOM     14  C   UNL     1       1.204  -0.681  -0.013  0.00  0.00    +0.013 A 
ATOM     15  C   UNL     1       0.002  -0.004   0.002  0.00  0.00    +0.001 A 
ENDBRANCH   3  13
ENDBRANCH   1   6
BRANCH   1  16
ATOM     16  N   UNL     1       5.475  -5.932  -0.104  0.00  0.00    -0.267 N 
ATOM     17  H   UNL     1       6.439  -6.037  -0.114  0.00  0.00    +0.170 HD
BRANCH  16  18
ATOM     18  C   UNL     1       4.650  -7.058  -0.108  0.00  0.00    +0.045 A 
ATOM     19  C   UNL     1       3.259  -6.899  -0.100  0.00  0.00    +0.025 A 
ATOM     20  C   UNL     1       2.433  -7.978  -0.103  0.00  0.00    +0.010 A 
ATOM     21  C   UNL     1       2.974  -9.275  -0.115  0.00  0.00    -0.018 A 
ATOM     22  C   UNL     1       2.143 -10.409  -0.119  0.00  0.00    +0.008 A 
ATOM     23  C   UNL     1       2.699 -11.652  -0.131  0.00  0.00    +0.001 A 
ATOM     24  C   UNL     1       4.082 -11.820  -0.139  0.00  0.00    +0.001 A 
ATOM     25  C   UNL     1       4.918 -10.745  -0.135  0.00  0.00    +0.008 A 
ATOM     26  C   UNL     1       4.381  -9.446  -0.123  0.00  0.00    -0.016 A 
ATOM     27  C   UNL     1       5.213  -8.315  -0.125  0.00  0.00    +0.033 A 
ENDBRANCH  16  18
ENDBRANCH   1  16
TORSDOF 4
