REMARK  Name = ZINC58069312
REMARK  19 active torsions:
REMARK  status: ('A' for Active; 'I' for Inactive)
REMARK    1  A    between atoms: C_1  and  C_2
REMARK    2  A    between atoms: C_2  and  C_3
REMARK    3  A    between atoms: C_3  and  C_4
REMARK    4  A    between atoms: C_4  and  N_5
REMARK    5  A    between atoms: C_6  and  N_36
REMARK    6  A    between atoms: C_7  and  N_14
REMARK    7  A    between atoms: N_14  and  C_15
REMARK    8  A    between atoms: C_15  and  C_16
REMARK    9  A    between atoms: C_17  and  C_19
REMARK   10  A    between atoms: C_19  and  N_20
REMARK   11  A    between atoms: N_20  and  C_21
REMARK   12  A    between atoms: C_21  and  C_23
REMARK   13  A    between atoms: C_21  and  C_33
REMARK   14  A    between atoms: C_26  and  C_29
REMARK   15  A    between atoms: C_29  and  C_30
REMARK   16  A    between atoms: C_30  and  C_31
REMARK   17  A    between atoms: C_30  and  C_32
REMARK   18  A    between atoms: C_33  and  C_34
REMARK   19  A    between atoms: C_33  and  C_35
REMARK                            x       y       z     vdW  Elec       q    Type
REMARK                         _______ _______ _______ _____ _____    ______ ____
ROOT
ATOM      1  N   UNL     1       5.016  -3.010   3.515  0.00  0.00    -0.263 N 
ATOM      2  C   UNL     1       5.819  -2.605   2.508  0.00  0.00    +0.234 C 
ATOM      3  O   UNL     1       5.356  -1.981   1.576  0.00  0.00    -0.274 OA
ENDROOT
BRANCH   1   6
ATOM      4  N   UNL     1       1.852  -1.429   4.509  0.00  0.00    -0.280 N 
ATOM      5  C   UNL     1       3.180  -1.786   4.518  0.00  0.00    +0.127 A 
ATOM      6  C   UNL     1       3.659  -2.625   3.533  0.00  0.00    +0.140 A 
ATOM      7  C   UNL     1       2.770  -3.090   2.546  0.00  0.00    +0.277 A 
ATOM      8  O   UNL     1       3.167  -3.833   1.663  0.00  0.00    -0.266 OA
ATOM      9  N   UNL     1       1.478  -2.709   2.582  0.00  0.00    -0.273 N 
ATOM     10  H   UNL     1       0.865  -3.030   1.903  0.00  0.00    +0.173 HD
ATOM     11  C   UNL     1       1.028  -1.896   3.554  0.00  0.00    +0.331 A 
ATOM     12  O   UNL     1      -0.144  -1.572   3.566  0.00  0.00    -0.246 OA
BRANCH   5  13
ATOM     13  N   UNL     1       4.021  -1.313   5.497  0.00  0.00    -0.343 N 
ATOM     14  H   UNL     1       3.690  -0.685   6.159  0.00  0.00    +0.144 HD
ATOM     15  H   UNL     1       4.945  -1.607   5.527  0.00  0.00    +0.144 HD
ENDBRANCH   5  13
BRANCH   4  16
ATOM     16  C   UNL     1       1.330  -0.539   5.550  0.00  0.00    +0.128 C 
BRANCH  16  17
ATOM     17  C   UNL     1       0.841  -1.373   6.736  0.00  0.00    +0.021 C 
BRANCH  17  19
ATOM     18  C   UNL     1      -0.192  -1.277   9.008  0.00  0.00    +0.004 C 
ATOM     19  C   UNL     1       0.296  -0.443   7.822  0.00  0.00    -0.002 C 
ENDBRANCH  17  19
ENDBRANCH  16  17
ENDBRANCH   4  16
ENDBRANCH   1   6
BRANCH   1  20
ATOM     20  C   UNL     1       5.555  -3.848   4.589  0.00  0.00    +0.110 C 
ATOM     21  C   UNL     1       5.485  -5.318   4.172  0.00  0.00    +0.025 C 
ENDBRANCH   1  20
BRANCH   2  22
ATOM     22  C   UNL     1       7.290  -2.929   2.541  0.00  0.00    +0.178 C 
BRANCH  22  23
ATOM     23  N   UNL     1       7.939  -2.384   1.341  0.00  0.00    -0.301 NA
ATOM     24  H   UNL     1       7.463  -2.686   0.503  0.00  0.00    +0.123 HD
BRANCH  23  25
ATOM     25  C   UNL     1       9.361  -2.748   1.299  0.00  0.00    +0.087 C 
BRANCH  25  26
ATOM     26  C   UNL     1      10.151  -1.786   2.148  0.00  0.00    -0.030 A 
ATOM     27  C   UNL     1       9.838  -0.440   2.141  0.00  0.00    +0.005 A 
ATOM     28  C   UNL     1      10.562   0.443   2.920  0.00  0.00    +0.004 A 
ATOM     29  C   UNL     1      11.601  -0.021   3.705  0.00  0.00    -0.047 A 
ATOM     30  C   UNL     1      11.914  -1.367   3.713  0.00  0.00    +0.004 A 
ATOM     31  C   UNL     1      11.186  -2.251   2.938  0.00  0.00    +0.005 A 
BRANCH  29  32
ATOM     32  C   UNL     1      12.392   0.942   4.554  0.00  0.00    +0.038 C 
BRANCH  32  33
ATOM     33  C   UNL     1      11.740   1.060   5.933  0.00  0.00    -0.013 C 
ATOM     34  C   UNL     1      12.610   1.938   6.834  0.00  0.00    +0.007 C 
ATOM     35  C   UNL     1      10.354   1.692   5.790  0.00  0.00    +0.007 C 
ENDBRANCH  32  33
ENDBRANCH  29  32
ENDBRANCH  25  26
BRANCH  25  36
ATOM     36  C   UNL     1       9.862  -2.684  -0.145  0.00  0.00    +0.004 C 
ATOM     37  C   UNL     1      11.364  -2.973  -0.178  0.00  0.00    +0.009 C 
ATOM     38  C   UNL     1       9.124  -3.727  -0.988  0.00  0.00    +0.009 C 
ENDBRANCH  25  36
ENDBRANCH  23  25
ENDBRANCH  22  23
ENDBRANCH   2  22
TORSDOF 13
