REMARK  Name = ZINC40811530
REMARK  7 active torsions:
REMARK  status: ('A' for Active; 'I' for Inactive)
REMARK    1  A    between atoms: C_1  and  C_2
REMARK    2  A    between atoms: C_7  and  C_8
REMARK    3  A    between atoms: N_10  and  N_11
REMARK    4  A    between atoms: C_18  and  C_31
REMARK    5  A    between atoms: C_19  and  C_21
REMARK    6  A    between atoms: N_23  and  C_24
REMARK    7  A    between atoms: C_29  and  C_30
REMARK                            x       y       z     vdW  Elec       q    Type
REMARK                         _______ _______ _______ _____ _____    ______ ____
ROOT
ATOM      1  N   UNL     1       0.651   0.042   4.826  0.00  0.00    -0.184 NA
ATOM      2  C   UNL     1       0.836  -0.613   5.932  0.00  0.00    +0.070 C 
ATOM      3  C   UNL     1       0.962  -2.129   5.971  0.00  0.00    +0.058 C 
ATOM      4  C   UNL     1       0.158  -2.646   7.169  0.00  0.00    +0.014 C 
ATOM      5  C   UNL     1       0.762  -2.143   8.483  0.00  0.00    +0.075 C 
ATOM      6  C   UNL     1       0.907  -0.644   8.426  0.00  0.00    +0.115 A 
ATOM      7  C   UNL     1       0.944   0.061   7.245  0.00  0.00    +0.042 A 
ATOM      8  C   UNL     1       1.089   1.416   7.566  0.00  0.00    +0.009 A 
ATOM      9  C   UNL     1       1.141   1.482   8.931  0.00  0.00    +0.193 A 
ATOM     10  O   UNL     1       1.023   0.226   9.427  0.00  0.00    -0.454 OA
ATOM     11  C   UNL     1       1.170   2.571   6.601  0.00  0.00    +0.048 C 
ENDROOT
BRANCH   1  14
ATOM     12  C   UNL     1       0.364   0.031   2.463  0.00  0.00    +0.264 C 
ATOM     13  O   UNL     1       0.274   1.243   2.482  0.00  0.00    -0.268 OA
ATOM     14  N   UNL     1       0.555  -0.649   3.611  0.00  0.00    -0.203 N 
ATOM     15  H   UNL     1       0.627  -1.616   3.596  0.00  0.00    +0.178 HD
BRANCH  12  22
ATOM     16  C   UNL     1       0.088   1.513  -0.006  0.00  0.00    +0.044 C 
ATOM     17  C   UNL     1       0.130   0.007  -0.017  0.00  0.00    -0.038 A 
ATOM     18  C   UNL     1       0.042  -0.679  -1.210  0.00  0.00    +0.004 A 
ATOM     19  C   UNL     1       0.079  -2.062  -1.222  0.00  0.00    +0.000 A 
ATOM     20  C   UNL     1       0.205  -2.767  -0.037  0.00  0.00    +0.001 A 
ATOM     21  C   UNL     1       0.293  -2.093   1.163  0.00  0.00    +0.013 A 
ATOM     22  C   UNL     1       0.263  -0.698   1.181  0.00  0.00    +0.041 A 
ENDBRANCH  12  22
ENDBRANCH   1  14
BRANCH   9  23
ATOM     23  C   UNL     1       1.289   2.706   9.725  0.00  0.00    +0.284 C 
ATOM     24  O   UNL     1       1.377   3.785   9.168  0.00  0.00    -0.266 OA
ATOM     25  N   UNL     1       1.328   2.637  11.070  0.00  0.00    -0.279 N 
ATOM     26  H   UNL     1       1.333   1.773  11.511  0.00  0.00    +0.155 HD
BRANCH  25  27
ATOM     27  C   UNL     1       1.360   3.810  11.830  0.00  0.00    +0.037 A 
ATOM     28  C   UNL     1       2.024   4.932  11.351  0.00  0.00    +0.023 A 
ATOM     29  C   UNL     1       2.054   6.089  12.104  0.00  0.00    +0.002 A 
ATOM     30  C   UNL     1       1.424   6.131  13.334  0.00  0.00    +0.000 A 
ATOM     31  C   UNL     1       0.762   5.016  13.814  0.00  0.00    +0.005 A 
ATOM     32  C   UNL     1       0.724   3.857  13.064  0.00  0.00    -0.029 A 
ATOM     33  C   UNL     1      -0.002   2.644  13.585  0.00  0.00    +0.045 C 
ENDBRANCH  25  27
ENDBRANCH   9  23
TORSDOF 4
