REMARK  Name = ZINC15446318
REMARK  10 active torsions:
REMARK  status: ('A' for Active; 'I' for Inactive)
REMARK    1  A    between atoms: C_1  and  C_2
REMARK    2  A    between atoms: C_2  and  C_4
REMARK    3  A    between atoms: C_2  and  N_14
REMARK    4  A    between atoms: C_15  and  C_17
REMARK    5  A    between atoms: C_17  and  N_56
REMARK    6  A    between atoms: C_18  and  N_56
REMARK    7  A    between atoms: C_19  and  C_20
REMARK    8  A    between atoms: C_19  and  N_56
REMARK    9  A    between atoms: N_22  and  C_23
REMARK   10  A    between atoms: C_28  and  C_29
REMARK                            x       y       z     vdW  Elec       q    Type
REMARK                         _______ _______ _______ _____ _____    ______ ____
ROOT
ATOM      1  C   UNL     1      -8.423  -1.662   1.776  0.00  0.00    -0.095 C 
ATOM      2  N   UNL     1      -7.576  -1.205   2.898  0.00  0.00    +0.389 N 
ATOM      3  H   UNL     1      -7.064  -2.010   3.279  0.00  0.00    -0.081 HD
ENDROOT
BRANCH   2   4
ATOM      4  C   UNL     1      -6.604  -0.200   2.420  0.00  0.00    +0.019 C 
BRANCH   4   6
ATOM      5  N   UNL     1      -4.617  -0.163   0.947  0.00  0.00    -0.310 N 
ATOM      6  C   UNL     1      -5.619  -0.875   1.500  0.00  0.00    +0.197 C 
ATOM      7  O   UNL     1      -5.729  -2.058   1.258  0.00  0.00    -0.278 OA
ATOM      8  H   UNL     1      -4.529   0.783   1.141  0.00  0.00    +0.149 HD
BRANCH   5  10
ATOM      9  C   UNL     1      -4.227  -0.849  -1.368  0.00  0.00    +0.033 C 
ATOM     10  C   UNL     1      -3.660  -0.820   0.052  0.00  0.00    +0.100 C 
BRANCH  10  11
ATOM     11  C   UNL     1      -2.361  -0.056   0.059  0.00  0.00    -0.024 A 
ATOM     12  C   UNL     1      -2.373   1.327   0.072  0.00  0.00    +0.009 A 
ATOM     13  C   UNL     1      -1.184   2.030   0.074  0.00  0.00    +0.050 A 
ATOM     14  C   UNL     1       0.025   1.351   0.069  0.00  0.00    +0.162 A 
ATOM     15  C   UNL     1       0.038  -0.038   0.058  0.00  0.00    +0.162 A 
ATOM     16  C   UNL     1      -1.159  -0.739   0.052  0.00  0.00    +0.055 A 
ATOM     17  O   UNL     1       1.213  -0.724   0.054  0.00  0.00    -0.485 OA
ATOM     18  C   UNL     1       2.385   0.009  -0.319  0.00  0.00    +0.270 C 
ATOM     19  C   UNL     1       2.375   1.345   0.436  0.00  0.00    +0.270 C 
ATOM     20  O   UNL     1       1.188   2.058   0.070  0.00  0.00    -0.485 OA
ENDBRANCH  10  11
ENDBRANCH   5  10
ENDBRANCH   4   6
ENDBRANCH   2   4
BRANCH   2  21
ATOM     21  C   UNL     1      -8.420  -0.625   3.964  0.00  0.00    +0.019 C 
BRANCH  21  22
ATOM     22  C   UNL     1      -9.245  -1.723   4.583  0.00  0.00    +0.201 C 
ATOM     23  O   UNL     1      -9.152  -2.859   4.168  0.00  0.00    -0.278 OA
ATOM     24  N   UNL     1     -10.087  -1.444   5.597  0.00  0.00    -0.287 N 
ATOM     25  H   UNL     1     -10.114  -0.550   5.973  0.00  0.00    +0.155 HD
BRANCH  24  26
ATOM     26  C   UNL     1     -10.923  -2.443   6.109  0.00  0.00    +0.045 A 
ATOM     27  C   UNL     1     -10.481  -3.759   6.164  0.00  0.00    +0.024 A 
ATOM     28  C   UNL     1     -11.306  -4.742   6.674  0.00  0.00    +0.002 A 
ATOM     29  C   UNL     1     -12.575  -4.419   7.120  0.00  0.00    +0.001 A 
ATOM     30  C   UNL     1     -13.019  -3.111   7.062  0.00  0.00    +0.014 A 
ATOM     31  C   UNL     1     -12.197  -2.122   6.557  0.00  0.00    +0.076 A 
BRANCH  31  32
ATOM     32  C   UNL     1     -12.683  -0.697   6.493  0.00  0.00    +0.419 C 
ATOM     33  F   UNL     1     -13.986  -0.625   6.998  0.00  0.00    -0.166 F 
ATOM     34  F   UNL     1     -11.841   0.117   7.258  0.00  0.00    -0.166 F 
ATOM     35  F   UNL     1     -12.673  -0.260   5.164  0.00  0.00    -0.166 F 
ENDBRANCH  31  32
ENDBRANCH  24  26
ENDBRANCH  21  22
ENDBRANCH   2  21
TORSDOF 8
