REMARK  Name = ZINC36203113
REMARK  13 active torsions:
REMARK  status: ('A' for Active; 'I' for Inactive)
REMARK    1  A    between atoms: C_1  and  O_2
REMARK    2  A    between atoms: O_2  and  C_3
REMARK    3  A    between atoms: C_3  and  C_4
REMARK    4  A    between atoms: C_4  and  C_5
REMARK    5  A    between atoms: C_5  and  N_6
REMARK    6  A    between atoms: N_6  and  C_7
REMARK    7  A    between atoms: N_6  and  C_15
REMARK    8  A    between atoms: C_7  and  C_8
REMARK    9  A    between atoms: C_15  and  C_16
REMARK   10  A    between atoms: C_19  and  C_21
REMARK   11  A    between atoms: C_21  and  C_22
REMARK   12  A    between atoms: C_21  and  C_27
REMARK   13  A    between atoms: C_21  and  O_32
REMARK                            x       y       z     vdW  Elec       q    Type
REMARK                         _______ _______ _______ _____ _____    ______ ____
ROOT
ATOM      1  C   UNL     1      -1.472  -6.222   0.898  0.00  0.00    +0.089 A 
ATOM      2  C   UNL     1      -0.319  -6.673   0.371  0.00  0.00    +0.043 A 
ATOM      3  C   UNL     1      -0.402  -8.084   0.352  0.00  0.00    +0.048 A 
ATOM      4  C   UNL     1      -1.599  -8.412   0.869  0.00  0.00    +0.147 A 
ATOM      5  O   UNL     1      -2.241  -7.280   1.203  0.00  0.00    -0.463 OA
ENDROOT
BRANCH   1   6
ATOM      6  C   UNL     1      -1.835  -4.776   1.116  0.00  0.00    -0.003 C 
BRANCH   6   7
ATOM      7  N   UNL     1      -2.406  -4.224  -0.120  0.00  0.00    +0.387 N 
ATOM      8  H   UNL     1      -1.764  -4.375  -0.884  0.00  0.00    -0.081 HD
BRANCH   7   9
ATOM      9  C   UNL     1      -2.635  -2.782   0.049  0.00  0.00    -0.076 C 
BRANCH   9  10
ATOM     10  C   UNL     1      -1.292  -2.068   0.213  0.00  0.00    +0.009 C 
BRANCH  10  11
ATOM     11  C   UNL     1      -1.520  -0.556   0.253  0.00  0.00    +0.157 C 
BRANCH  11  13
ATOM     12  C   UNL     1      -0.368   1.536   0.457  0.00  0.00    +0.193 C 
ATOM     13  O   UNL     1      -0.266   0.111   0.407  0.00  0.00    -0.383 OA
ENDBRANCH  11  13
ENDBRANCH  10  11
ENDBRANCH   9  10
ENDBRANCH   7   9
BRANCH   7  14
ATOM     14  C   UNL     1      -3.681  -4.891  -0.411  0.00  0.00    -0.042 C 
BRANCH  14  15
ATOM     15  C   UNL     1      -4.206  -4.413  -1.741  0.00  0.00    -0.061 A 
ATOM     16  C   UNL     1      -5.032  -3.306  -1.800  0.00  0.00    +0.002 A 
ATOM     17  C   UNL     1      -5.514  -2.866  -3.018  0.00  0.00    +0.003 A 
ATOM     18  C   UNL     1      -5.172  -3.534  -4.179  0.00  0.00    +0.038 A 
ATOM     19  C   UNL     1      -4.345  -4.643  -4.121  0.00  0.00    +0.124 A 
ATOM     20  C   UNL     1      -3.858  -5.079  -2.901  0.00  0.00    +0.040 A 
ATOM     21  F   UNL     1      -4.010  -5.296  -5.255  0.00  0.00    -0.205 F 
ENDBRANCH  14  15
ENDBRANCH   7  14
ENDBRANCH   6   7
ENDBRANCH   1   6
BRANCH   4  22
ATOM     22  C   UNL     1      -2.130  -9.811   1.047  0.00  0.00    +0.186 C 
BRANCH  22  23
ATOM     23  C   UNL     1      -3.058  -9.849   2.234  0.00  0.00    +0.034 A 
ATOM     24  C   UNL     1      -3.315 -10.873   3.084  0.00  0.00    +0.015 A 
ATOM     25  C   UNL     1      -4.215 -10.677   4.115  0.00  0.00    +0.008 A 
ATOM     26  C   UNL     1      -4.813  -9.468   4.246  0.00  0.00    +0.045 A 
ATOM     27  S   UNL     1      -4.099  -8.555   2.888  0.00  0.00    -0.098 S 
ENDBRANCH  22  23
BRANCH  22  28
ATOM     28  C   UNL     1      -2.881 -10.226  -0.192  0.00  0.00    +0.034 A 
ATOM     29  C   UNL     1      -3.046 -11.465  -0.715  0.00  0.00    +0.015 A 
ATOM     30  C   UNL     1      -3.784 -11.610  -1.875  0.00  0.00    +0.008 A 
ATOM     31  C   UNL     1      -4.321 -10.509  -2.454  0.00  0.00    +0.045 A 
ATOM     32  S   UNL     1      -3.790  -9.213  -1.347  0.00  0.00    -0.098 S 
ENDBRANCH  22  28
BRANCH  22  33
ATOM     33  O   UNL     1      -1.040 -10.709   1.267  0.00  0.00    -0.371 OA
ATOM     34  H   UNL     1      -0.401 -10.736   0.541  0.00  0.00    +0.212 HD
ENDBRANCH  22  33
ENDBRANCH   4  22
TORSDOF 12
