REMARK  Name = ZINC09134533
REMARK  7 active torsions:
REMARK  status: ('A' for Active; 'I' for Inactive)
REMARK    1  A    between atoms: C_1  and  C_2
REMARK    2  A    between atoms: C_2  and  N_3
REMARK    3  A    between atoms: C_14  and  N_19
REMARK    4  A    between atoms: C_20  and  C_22
REMARK    5  A    between atoms: C_22  and  C_23
REMARK    6  A    between atoms: C_23  and  C_24
REMARK    7  A    between atoms: C_23  and  C_25
REMARK                            x       y       z     vdW  Elec       q    Type
REMARK                         _______ _______ _______ _____ _____    ______ ____
ROOT
ATOM      1  N   UNL     1       2.596   0.246  -1.112  0.00  0.00    -0.264 N 
ATOM      2  C   UNL     1       1.595  -0.483  -1.752  0.00  0.00    +0.079 A 
ATOM      3  C   UNL     1       1.885  -1.101  -2.964  0.00  0.00    +0.027 A 
ATOM      4  C   UNL     1       0.938  -1.892  -3.587  0.00  0.00    +0.002 A 
ATOM      5  C   UNL     1      -0.304  -2.071  -3.008  0.00  0.00    +0.004 A 
ATOM      6  C   UNL     1      -0.606  -1.447  -1.812  0.00  0.00    +0.048 A 
ATOM      7  C   UNL     1       0.335  -0.641  -1.187  0.00  0.00    +0.150 A 
ATOM      8  O   UNL     1       0.001  -0.016  -0.031  0.00  0.00    -0.453 OA
ATOM      9  C   UNL     1      -0.016   1.337  -0.016  0.00  0.00    +0.141 A 
ATOM     10  C   UNL     1      -1.210   2.004   0.224  0.00  0.00    +0.049 A 
ATOM     11  C   UNL     1      -1.250   3.383   0.212  0.00  0.00    +0.027 A 
ATOM     12  C   UNL     1      -0.096   4.116  -0.042  0.00  0.00    +0.034 A 
ATOM     13  C   UNL     1       1.103   3.464  -0.272  0.00  0.00    +0.040 A 
ATOM     14  C   UNL     1       1.153   2.067  -0.247  0.00  0.00    +0.081 A 
ATOM     15  C   UNL     1       2.437   1.379  -0.443  0.00  0.00    +0.255 C 
ATOM     16  O   UNL     1       3.428   1.888   0.045  0.00  0.00    -0.270 OA
ENDROOT
BRANCH  12  17
ATOM     17  N   UNL     1      -0.147   5.516  -0.066  0.00  0.00    -0.285 N 
ATOM     18  C   UNL     1       0.892   6.237   0.401  0.00  0.00    +0.217 C 
ATOM     19  O   UNL     1       1.904   5.676   0.765  0.00  0.00    -0.275 OA
ATOM     20  H   UNL     1      -0.930   5.967  -0.419  0.00  0.00    +0.155 HD
BRANCH  18  21
ATOM     21  C   UNL     1       0.797   7.739   0.471  0.00  0.00    +0.099 C 
BRANCH  21  22
ATOM     22  C   UNL     1       2.101   8.307   1.034  0.00  0.00    -0.008 C 
ATOM     23  C   UNL     1       2.053   9.836   0.989  0.00  0.00    +0.008 C 
ATOM     24  C   UNL     1       2.276   7.845   2.482  0.00  0.00    +0.008 C 
ENDBRANCH  21  22
ENDBRANCH  18  21
ENDBRANCH  12  17
BRANCH   1  26
ATOM     25  C   UNL     1       4.244  -1.125   0.067  0.00  0.00    +0.025 C 
ATOM     26  C   UNL     1       3.957  -0.294  -1.185  0.00  0.00    +0.111 C 
ENDBRANCH   1  26
TORSDOF 4
