REMARK  Name = ZINC42441042
REMARK  5 active torsions:
REMARK  status: ('A' for Active; 'I' for Inactive)
REMARK    1  A    between atoms: C_1  and  C_2
REMARK    2  A    between atoms: C_6  and  C_20
REMARK    3  A    between atoms: N_9  and  C_10
REMARK    4  A    between atoms: C_13  and  N_19
REMARK    5  A    between atoms: C_15  and  C_16
REMARK                            x       y       z     vdW  Elec       q    Type
REMARK                         _______ _______ _______ _____ _____    ______ ____
ROOT
ATOM      1  C   UNL     1       1.351   0.393   2.052  0.00  0.00    +0.042 A 
ATOM      2  C   UNL     1       0.666   0.946   3.126  0.00  0.00    +0.026 A 
ATOM      3  C   UNL     1       1.303   1.826   3.976  0.00  0.00    +0.024 A 
ATOM      4  C   UNL     1       2.636   2.167   3.764  0.00  0.00    +0.025 A 
ATOM      5  C   UNL     1       3.332   1.625   2.699  0.00  0.00    +0.037 A 
ATOM      6  C   UNL     1       2.696   0.728   1.836  0.00  0.00    +0.059 A 
ENDROOT
BRANCH   1  13
ATOM      7  C   UNL     1      -0.019   1.526   0.010  0.00  0.00    +0.028 C 
ATOM      8  C   UNL     1       0.002  -0.004   0.002  0.00  0.00    +0.070 C 
ATOM      9  C   UNL     1      -1.434  -0.537   0.020  0.00  0.00    +0.023 C 
ATOM     10  C   UNL     1      -1.406  -2.062   0.152  0.00  0.00    +0.016 C 
ATOM     11  C   UNL     1      -0.731  -2.449   1.469  0.00  0.00    +0.092 C 
ATOM     12  C   UNL     1       0.713  -1.938   1.468  0.00  0.00    +0.118 C 
ATOM     13  N   UNL     1       0.706  -0.494   1.195  0.00  0.00    -0.326 N 
BRANCH  11  14
ATOM     14  C   UNL     1      -0.733  -3.949   1.614  0.00  0.00    +0.215 C 
ATOM     15  O   UNL     1       0.315  -4.551   1.709  0.00  0.00    -0.276 OA
ATOM     16  N   UNL     1      -1.901  -4.622   1.637  0.00  0.00    -0.329 N 
ATOM     17  H   UNL     1      -2.740  -4.140   1.561  0.00  0.00    +0.145 HD
ATOM     18  H   UNL     1      -1.903  -5.587   1.730  0.00  0.00    +0.145 HD
ENDBRANCH  11  14
ENDBRANCH   1  13
BRANCH   6  19
ATOM     19  C   UNL     1       3.433   0.141   0.702  0.00  0.00    +0.243 C 
ATOM     20  O   UNL     1       2.875  -0.635  -0.049  0.00  0.00    -0.270 OA
ATOM     21  N   UNL     1       4.725   0.465   0.498  0.00  0.00    -0.325 N 
ATOM     22  H   UNL     1       5.171   1.084   1.098  0.00  0.00    +0.145 HD
ATOM     23  H   UNL     1       5.210   0.079  -0.248  0.00  0.00    +0.145 HD
ENDBRANCH   6  19
BRANCH   4  24
ATOM     24  N   UNL     1       3.274   3.061   4.633  0.00  0.00    -0.358 N 
ATOM     25  H   UNL     1       2.787   3.442   5.380  0.00  0.00    +0.142 HD
ATOM     26  H   UNL     1       4.203   3.300   4.487  0.00  0.00    +0.142 HD
ENDBRANCH   4  24
TORSDOF 4
