REMARK  Name = ZINC28058370
REMARK  4 active torsions:
REMARK  status: ('A' for Active; 'I' for Inactive)
REMARK    1  A    between atoms: C_1  and  O_2
REMARK    2  A    between atoms: O_2  and  C_3
REMARK    3  A    between atoms: C_8  and  C_9
REMARK    4  A    between atoms: C_20  and  C_22
REMARK                            x       y       z     vdW  Elec       q    Type
REMARK                         _______ _______ _______ _____ _____    ______ ____
ROOT
ATOM      1  C   UNL     1      -0.784   0.888  -2.463  0.00  0.00    +0.177 C 
ATOM      2  C   UNL     1      -0.763   1.665  -1.169  0.00  0.00    +0.026 C 
ATOM      3  C   UNL     1      -1.383   2.839  -1.032  0.00  0.00    +0.050 C 
ATOM      4  C   UNL     1      -1.324   3.519   0.284  0.00  0.00    +0.039 A 
ATOM      5  C   UNL     1      -1.638   4.865   0.420  0.00  0.00    +0.033 A 
ATOM      6  C   UNL     1      -1.569   5.458   1.668  0.00  0.00    +0.042 A 
ATOM      7  C   UNL     1      -1.189   4.715   2.774  0.00  0.00    +0.023 A 
ATOM      8  C   UNL     1      -0.875   3.374   2.645  0.00  0.00    +0.048 A 
ATOM      9  C   UNL     1      -0.940   2.770   1.404  0.00  0.00    +0.131 A 
ATOM     10  O   UNL     1      -0.639   1.457   1.235  0.00  0.00    -0.479 OA
ATOM     11  C   UNL     1      -0.013   1.086   0.008  0.00  0.00    +0.234 C 
ATOM     12 CL   UNL     1      -1.959   7.140   1.849  0.00  0.00    -0.084 Cl
ATOM     13  N   UNL     1      -2.075   3.447  -2.086  0.00  0.00    -0.282 N 
ATOM     14  C   UNL     1      -1.877   2.932  -3.357  0.00  0.00    +0.240 A 
ATOM     15  N   UNL     1      -1.266   1.734  -3.546  0.00  0.00    -0.201 N 
ATOM     16  N   UNL     1      -1.232   1.548  -4.928  0.00  0.00    -0.042 NA
ATOM     17  N   UNL     1      -1.798   2.586  -5.453  0.00  0.00    -0.021 NA
ATOM     18  N   UNL     1      -2.181   3.403  -4.532  0.00  0.00    -0.092 NA
ATOM     19  H   UNL     1      -2.744   4.297  -1.887  0.00  0.00    +0.155 HD
ENDROOT
BRANCH  11  20
ATOM     20  C   UNL     1       1.403   1.602  -0.003  0.00  0.00    -0.003 A 
ATOM     21  C   UNL     1       1.669   2.899   0.395  0.00  0.00    +0.009 A 
ATOM     22  C   UNL     1       2.968   3.371   0.391  0.00  0.00    +0.020 A 
ATOM     23  C   UNL     1       4.001   2.548  -0.022  0.00  0.00    +0.041 A 
ATOM     24  C   UNL     1       3.734   1.252  -0.426  0.00  0.00    +0.020 A 
ATOM     25  C   UNL     1       2.435   0.779  -0.416  0.00  0.00    +0.009 A 
ATOM     26 CL   UNL     1       5.632   3.143  -0.035  0.00  0.00    -0.084 Cl
ENDBRANCH  11  20
BRANCH   1  32
ATOM     27  C   UNL     1      -1.195  -1.585  -2.482  0.00  0.00    +0.126 A 
ATOM     28  C   UNL     1      -2.036  -2.680  -2.345  0.00  0.00    +0.046 A 
ATOM     29  C   UNL     1      -3.371  -2.490  -2.043  0.00  0.00    +0.004 A 
ATOM     30  C   UNL     1      -3.868  -1.210  -1.877  0.00  0.00    +0.001 A 
ATOM     31  C   UNL     1      -3.030  -0.118  -2.008  0.00  0.00    +0.009 A 
ATOM     32  C   UNL     1      -1.696  -0.303  -2.315  0.00  0.00    +0.023 A 
BRANCH  27  34
ATOM     33  C   UNL     1       0.565  -3.118  -2.938  0.00  0.00    +0.277 C 
ATOM     34  O   UNL     1       0.118  -1.769  -2.780  0.00  0.00    -0.495 OA
ENDBRANCH  27  34
ENDBRANCH   1  32
TORSDOF 3
