REMARK  Name = ZINC44848913
REMARK  11 active torsions:
REMARK  status: ('A' for Active; 'I' for Inactive)
REMARK    1  A    between atoms: C_1  and  C_2
REMARK    2  A    between atoms: C_2  and  C_3
REMARK    3  A    between atoms: C_3  and  C_5
REMARK    4  A    between atoms: C_3  and  N_21
REMARK    5  A    between atoms: N_7  and  C_8
REMARK    6  A    between atoms: C_8  and  C_9
REMARK    7  A    between atoms: C_14  and  N_15
REMARK    8  A    between atoms: C_19  and  C_20
REMARK    9  A    between atoms: N_21  and  C_22
REMARK   10  A    between atoms: N_21  and  S_29
REMARK   11  A    between atoms: S_29  and  C_32
REMARK                            x       y       z     vdW  Elec       q    Type
REMARK                         _______ _______ _______ _____ _____    ______ ____
ROOT
ATOM      1  C   UNL     1      -2.204  -2.512   0.212  0.00  0.00    +0.236 C 
ATOM      2  O   UNL     1      -2.581  -2.887   1.302  0.00  0.00    -0.274 OA
ATOM      3  N   UNL     1      -2.058  -3.399  -0.792  0.00  0.00    -0.310 N 
ATOM      4  H   UNL     1      -1.756  -3.099  -1.663  0.00  0.00    +0.149 HD
ENDROOT
BRANCH   1   5
ATOM      5  C   UNL     1      -1.899  -1.054  -0.019  0.00  0.00    +0.183 C 
BRANCH   5   7
ATOM      6  C   UNL     1      -0.069   0.638  -0.188  0.00  0.00    +0.006 C 
ATOM      7  C   UNL     1      -0.403  -0.808   0.183  0.00  0.00    +0.030 C 
ENDBRANCH   5   7
BRANCH   5   8
ATOM      8  N   UNL     1      -2.661  -0.239   0.931  0.00  0.00    -0.196 N 
BRANCH   8   9
ATOM      9  C   UNL     1      -2.483  -0.419   2.305  0.00  0.00    +0.052 A 
ATOM     10  C   UNL     1      -3.515  -0.932   3.079  0.00  0.00    +0.026 A 
ATOM     11  C   UNL     1      -3.336  -1.109   4.437  0.00  0.00    +0.022 A 
ATOM     12  C   UNL     1      -2.130  -0.775   5.027  0.00  0.00    +0.041 A 
ATOM     13  C   UNL     1      -1.099  -0.263   4.258  0.00  0.00    +0.022 A 
ATOM     14  C   UNL     1      -1.271  -0.090   2.899  0.00  0.00    +0.026 A 
ATOM     15 CL   UNL     1      -1.909  -0.997   6.734  0.00  0.00    -0.084 Cl
ENDBRANCH   8   9
BRANCH   8  16
ATOM     16  S   UNL     1      -3.732   0.895   0.376  0.00  0.00    +0.043 S 
ATOM     17  O   UNL     1      -3.912   1.788   1.466  0.00  0.00    -0.155 OA
ATOM     18  O   UNL     1      -3.176   1.350  -0.850  0.00  0.00    -0.155 OA
ATOM     19  C   UNL     1      -5.264  -0.025   0.063  0.00  0.00    +0.218 C 
ENDBRANCH   8  16
ENDBRANCH   5   8
ENDBRANCH   1   5
BRANCH   3  20
ATOM     20  C   UNL     1      -2.354  -4.816  -0.567  0.00  0.00    +0.141 C 
BRANCH  20  21
ATOM     21  C   UNL     1      -2.111  -5.588  -1.838  0.00  0.00    -0.006 A 
ATOM     22  C   UNL     1      -3.173  -5.930  -2.652  0.00  0.00    +0.007 A 
ATOM     23  C   UNL     1      -2.951  -6.639  -3.819  0.00  0.00    +0.000 A 
ATOM     24  C   UNL     1      -1.666  -7.007  -4.174  0.00  0.00    +0.002 A 
ATOM     25  C   UNL     1      -0.601  -6.667  -3.364  0.00  0.00    +0.026 A 
ATOM     26  C   UNL     1      -0.820  -5.950  -2.195  0.00  0.00    +0.052 A 
BRANCH  26  27
ATOM     27  N   UNL     1       0.261  -5.599  -1.373  0.00  0.00    -0.305 N 
ATOM     28  C   UNL     1       1.281  -4.741  -1.691  0.00  0.00    +0.110 A 
ATOM     29  C   UNL     1       2.098  -4.692  -0.621  0.00  0.00    +0.102 A 
ATOM     30  N   UNL     1       1.594  -5.496   0.327  0.00  0.00    -0.350 N 
ATOM     31  C   UNL     1       0.491  -6.041  -0.109  0.00  0.00    +0.088 A 
ATOM     32  C   UNL     1      -0.379  -7.001   0.660  0.00  0.00    +0.084 C 
ATOM     33  H   UNL     1       1.986  -5.646   1.201  0.00  0.00    +0.166 HD
ENDBRANCH  26  27
ENDBRANCH  20  21
ENDBRANCH   3  20
TORSDOF 8
