REMARK  Name = ZINC49522156
REMARK  9 active torsions:
REMARK  status: ('A' for Active; 'I' for Inactive)
REMARK    1  A    between atoms: C_1  and  C_2
REMARK    2  A    between atoms: C_5  and  C_7
REMARK    3  A    between atoms: C_7  and  C_9
REMARK    4  A    between atoms: C_7  and  O_34
REMARK    5  A    between atoms: C_9  and  N_10
REMARK    6  A    between atoms: C_11  and  C_13
REMARK    7  A    between atoms: N_15  and  C_16
REMARK    8  A    between atoms: N_22  and  S_26
REMARK    9  A    between atoms: S_26  and  C_29
REMARK                            x       y       z     vdW  Elec       q    Type
REMARK                         _______ _______ _______ _____ _____    ______ ____
ROOT
ATOM      1  C   UNL     1       3.058  -7.490   3.171  0.00  0.00    +0.303 C 
ATOM      2  O   UNL     1       3.009  -8.375   2.341  0.00  0.00    -0.265 OA
ATOM      3  N   UNL     1       4.120  -7.396   3.994  0.00  0.00    -0.278 N 
ATOM      4  H   UNL     1       4.191  -6.651   4.611  0.00  0.00    +0.155 HD
ENDROOT
BRANCH   3   5
ATOM      5  C   UNL     1       5.120  -8.371   3.959  0.00  0.00    +0.036 A 
ATOM      6  C   UNL     1       5.475  -8.964   2.753  0.00  0.00    +0.024 A 
ATOM      7  C   UNL     1       6.461  -9.928   2.720  0.00  0.00    +0.007 A 
ATOM      8  C   UNL     1       7.105 -10.313   3.885  0.00  0.00    -0.025 A 
ATOM      9  C   UNL     1       6.756  -9.722   5.090  0.00  0.00    +0.056 A 
ATOM     10  C   UNL     1       5.766  -8.748   5.128  0.00  0.00    +0.048 A 
ATOM     11  N   UNL     1       7.397 -10.086   6.280  0.00  0.00    -0.202 N 
ATOM     12  C   UNL     1       8.223 -11.301   6.299  0.00  0.00    +0.132 C 
ATOM     13  C   UNL     1       9.087 -11.300   5.031  0.00  0.00    +0.025 C 
ATOM     14  C   UNL     1       8.172 -11.374   3.809  0.00  0.00    +0.038 C 
BRANCH  11  15
ATOM     15  S   UNL     1       7.228  -9.162   7.643  0.00  0.00    +0.081 S 
ATOM     16  O   UNL     1       8.264  -9.556   8.533  0.00  0.00    -0.149 OA
ATOM     17  O   UNL     1       7.069  -7.819   7.207  0.00  0.00    -0.149 OA
BRANCH  15  18
ATOM     18  C   UNL     1       5.708  -9.627   8.403  0.00  0.00    +0.146 A 
ATOM     19  C   UNL     1       5.478 -10.584   9.336  0.00  0.00    +0.036 A 
ATOM     20  C   UNL     1       4.188 -10.776   9.794  0.00  0.00    +0.010 A 
ATOM     21  C   UNL     1       3.191 -10.002   9.298  0.00  0.00    +0.047 A 
ATOM     22  S   UNL     1       4.073  -8.957   8.150  0.00  0.00    -0.077 S 
ENDBRANCH  15  18
ENDBRANCH  11  15
ENDBRANCH   3   5
BRANCH   1  24
ATOM     23  N   UNL     1       0.877  -6.600   2.455  0.00  0.00    -0.305 N 
ATOM     24  C   UNL     1       1.940  -6.506   3.278  0.00  0.00    +0.299 C 
ATOM     25  O   UNL     1       1.988  -5.621   4.108  0.00  0.00    -0.265 OA
ATOM     26  H   UNL     1       0.838  -7.307   1.792  0.00  0.00    +0.149 HD
BRANCH  23  27
ATOM     27  C   UNL     1      -0.220  -5.634   2.560  0.00  0.00    +0.144 C 
BRANCH  27  28
ATOM     28  C   UNL     1      -1.291  -5.963   1.519  0.00  0.00    +0.197 C 
BRANCH  28  33
ATOM     29  C   UNL     1      -4.044  -1.783   0.894  0.00  0.00    +0.086 C 
ATOM     30  C   UNL     1      -3.616  -3.152   1.356  0.00  0.00    +0.102 A 
ATOM     31  C   UNL     1      -4.324  -3.969   2.156  0.00  0.00    +0.045 A 
ATOM     32  C   UNL     1      -3.553  -5.141   2.332  0.00  0.00    +0.047 A 
ATOM     33  C   UNL     1      -2.419  -4.970   1.628  0.00  0.00    +0.135 A 
ATOM     34  O   UNL     1      -2.466  -3.766   1.035  0.00  0.00    -0.462 OA
ENDBRANCH  28  33
BRANCH  28  35
ATOM     35  O   UNL     1      -0.721  -5.895   0.211  0.00  0.00    -0.383 OA
ATOM     36  H   UNL     1      -0.360  -5.027  -0.016  0.00  0.00    +0.210 HD
ENDBRANCH  28  35
ENDBRANCH  27  28
ENDBRANCH  23  27
ENDBRANCH   1  24
TORSDOF 8
