REMARK  Name = ZINC41586759
REMARK  4 active torsions:
REMARK  status: ('A' for Active; 'I' for Inactive)
REMARK    1  A    between atoms: C_1  and  C_2
REMARK    2  A    between atoms: C_10  and  C_11
REMARK    3  A    between atoms: N_21  and  C_24
REMARK    4  A    between atoms: C_24  and  C_25
REMARK                            x       y       z     vdW  Elec       q    Type
REMARK                         _______ _______ _______ _____ _____    ______ ____
ROOT
ATOM      1  C   UNL     1       0.074   1.497   0.006  0.00  0.00    +0.051 C 
ATOM      2  C   UNL     1       0.088  -0.010   0.000  0.00  0.00    +0.034 A 
ATOM      3  C   UNL     1       0.109  -0.697  -1.206  0.00  0.00    +0.133 A 
ATOM      4  C   UNL     1       0.124  -2.088  -1.224  0.00  0.00    +0.010 A 
ATOM      5  C   UNL     1       0.114  -2.789  -0.049  0.00  0.00    +0.024 A 
ATOM      6  C   UNL     1       0.092  -2.111   1.169  0.00  0.00    +0.068 A 
ATOM      7  C   UNL     1       0.085  -0.707   1.201  0.00  0.00    +0.146 A 
ATOM      8  O   UNL     1       0.073  -0.280   2.482  0.00  0.00    -0.451 OA
ATOM      9  C   UNL     1       0.074  -1.313   3.357  0.00  0.00    +0.176 C 
ATOM     10  C   UNL     1       0.062  -1.217   4.711  0.00  0.00    +0.058 C 
ATOM     11  C   UNL     1       0.077  -2.558   2.574  0.00  0.00    +0.231 C 
ATOM     12  O   UNL     1       0.080  -3.703   2.993  0.00  0.00    -0.283 OA
ATOM     13  C   UNL     1       0.154  -2.842  -2.529  0.00  0.00    +0.126 C 
ATOM     14  N   UNL     1      -0.252  -1.949  -3.623  0.00  0.00    -0.262 NA
ATOM     15  C   UNL     1       0.501  -0.686  -3.553  0.00  0.00    +0.319 C 
ATOM     16  O   UNL     1       0.114   0.011  -2.366  0.00  0.00    -0.476 OA
ENDROOT
BRANCH  10  17
ATOM     17  C   UNL     1       0.163   0.099   5.355  0.00  0.00    -0.021 A 
ATOM     18  C   UNL     1       0.285   0.194   6.746  0.00  0.00    +0.011 A 
ATOM     19  C   UNL     1       0.379   1.432   7.344  0.00  0.00    +0.039 A 
ATOM     20  C   UNL     1       0.353   2.583   6.570  0.00  0.00    +0.123 A 
ATOM     21  C   UNL     1       0.231   2.496   5.191  0.00  0.00    +0.039 A 
ATOM     22  C   UNL     1       0.142   1.265   4.580  0.00  0.00    +0.011 A 
ATOM     23  F   UNL     1       0.446   3.793   7.162  0.00  0.00    -0.205 F 
ENDBRANCH  10  17
BRANCH  14  24
ATOM     24  C   UNL     1      -0.069  -2.599  -4.928  0.00  0.00    +0.123 C 
BRANCH  24  25
ATOM     25  C   UNL     1      -0.717  -1.762  -6.001  0.00  0.00    -0.033 A 
ATOM     26  C   UNL     1      -2.042  -1.971  -6.335  0.00  0.00    +0.006 A 
ATOM     27  C   UNL     1      -2.637  -1.204  -7.319  0.00  0.00    +0.020 A 
ATOM     28  C   UNL     1      -1.906  -0.226  -7.969  0.00  0.00    +0.041 A 
ATOM     29  C   UNL     1      -0.580  -0.016  -7.634  0.00  0.00    +0.020 A 
ATOM     30  C   UNL     1       0.012  -0.780  -6.646  0.00  0.00    +0.006 A 
ATOM     31 CL   UNL     1      -2.652   0.738  -9.205  0.00  0.00    -0.084 Cl
ENDBRANCH  24  25
ENDBRANCH  14  24
TORSDOF 3
