REMARK  Name = ZINC03005572
REMARK  12 active torsions:
REMARK  status: ('A' for Active; 'I' for Inactive)
REMARK    1  A    between atoms: C_1  and  C_2
REMARK    2  A    between atoms: C_2  and  O_3
REMARK    3  A    between atoms: O_3  and  C_4
REMARK    4  A    between atoms: C_4  and  C_6
REMARK    5  A    between atoms: C_6  and  C_8
REMARK    6  A    between atoms: C_6  and  N_9
REMARK    7  A    between atoms: C_13  and  C_14
REMARK    8  A    between atoms: C_16  and  O_25
REMARK    9  A    between atoms: C_17  and  O_21
REMARK   10  A    between atoms: O_21  and  C_22
REMARK   11  A    between atoms: C_22  and  C_23
REMARK   12  A    between atoms: O_25  and  C_26
REMARK                            x       y       z     vdW  Elec       q    Type
REMARK                         _______ _______ _______ _____ _____    ______ ____
ROOT
ATOM      1  N   UNL     1       3.966  -4.620  -0.369  0.00  0.00    -0.215 N 
ATOM      2  C   UNL     1       2.699  -4.256  -0.271  0.00  0.00    +0.261 C 
ATOM      3  O   UNL     1       1.796  -5.071  -0.286  0.00  0.00    -0.269 OA
ATOM      4  C   UNL     1       2.435  -2.809  -0.139  0.00  0.00    +0.080 C 
ATOM      5  C   UNL     1       1.253  -2.152  -0.022  0.00  0.00    +0.028 C 
ATOM      6  S   UNL     1       4.100  -2.159  -0.185  0.00  0.00    -0.026 S 
ATOM      7  C   UNL     1       4.964  -3.713  -0.351  0.00  0.00    +0.287 C 
ATOM      8  O   UNL     1       6.162  -3.906  -0.433  0.00  0.00    -0.262 OA
ENDROOT
BRANCH   5   9
ATOM      9  C   UNL     1       1.238  -0.717   0.287  0.00  0.00    -0.019 A 
ATOM     10  C   UNL     1       0.037   0.002   0.228  0.00  0.00    +0.057 A 
ATOM     11  C   UNL     1       0.029   1.351   0.519  0.00  0.00    +0.163 A 
ATOM     12  C   UNL     1       1.215   1.997   0.870  0.00  0.00    +0.177 A 
ATOM     13  C   UNL     1       2.406   1.286   0.929  0.00  0.00    +0.064 A 
ATOM     14  C   UNL     1       2.424  -0.062   0.640  0.00  0.00    +0.027 A 
ATOM     15 BR   UNL     1       4.009   2.169   1.406  0.00  0.00    -0.046 Br
BRANCH  11  16
ATOM     16  O   UNL     1      -1.134   2.053   0.457  0.00  0.00    -0.491 OA
ATOM     17  C   UNL     1      -2.309   1.330   0.085  0.00  0.00    +0.277 C 
ENDBRANCH  11  16
BRANCH  12  18
ATOM     18  O   UNL     1       1.204   3.325   1.155  0.00  0.00    -0.476 OA
BRANCH  18  19
ATOM     19  C   UNL     1       0.980   3.694   2.517  0.00  0.00    +0.354 C 
BRANCH  19  20
ATOM     20  C   UNL     1       1.002   5.196   2.641  0.00  0.00    +0.393 C 
ATOM     21  O   UNL     1       1.190   5.880   1.663  0.00  0.00    -0.243 OA
ATOM     22  O   UNL     1       0.812   5.774   3.837  0.00  0.00    -0.243 OA
ENDBRANCH  19  20
ENDBRANCH  18  19
ENDBRANCH  12  18
ENDBRANCH   5   9
BRANCH   1  23
ATOM     23  C   UNL     1       4.294  -6.042  -0.502  0.00  0.00    +0.190 C 
ATOM     24  C   UNL     1       5.042  -6.272  -1.817  0.00  0.00    +0.040 C 
BRANCH  23  25
ATOM     25  C   UNL     1       5.165  -6.466   0.652  0.00  0.00    +0.328 C 
ATOM     26  O   UNL     1       5.479  -5.664   1.499  0.00  0.00    -0.249 OA
BRANCH  25  27
ATOM     27  O   UNL     1       5.591  -7.736   0.740  0.00  0.00    -0.464 OA
BRANCH  27  29
ATOM     28  C   UNL     1       6.811  -9.553   1.808  0.00  0.00    +0.048 C 
ATOM     29  C   UNL     1       6.426  -8.074   1.879  0.00  0.00    +0.229 C 
ENDBRANCH  27  29
ENDBRANCH  25  27
ENDBRANCH  23  25
ENDBRANCH   1  23
TORSDOF 9
