REMARK  Name = ZINC39709490
REMARK  8 active torsions:
REMARK  status: ('A' for Active; 'I' for Inactive)
REMARK    1  A    between atoms: C_1  and  C_2
REMARK    2  A    between atoms: C_5  and  O_26
REMARK    3  A    between atoms: C_6  and  C_8
REMARK    4  A    between atoms: C_8  and  C_10
REMARK    5  A    between atoms: C_8  and  C_18
REMARK    6  A    between atoms: C_13  and  O_17
REMARK    7  A    between atoms: C_19  and  C_25
REMARK    8  A    between atoms: C_22  and  O_24
REMARK                            x       y       z     vdW  Elec       q    Type
REMARK                         _______ _______ _______ _____ _____    ______ ____
ROOT
ATOM      1  C   UNL     1      -0.040  -0.332  -2.528  0.00  0.00    +0.088 C 
ENDROOT
BRANCH   1   7
ATOM      2  C   UNL     1       2.357  -1.486  -0.883  0.00  0.00    +0.065 C 
ATOM      3  C   UNL     1       0.918  -1.433  -0.437  0.00  0.00    +0.041 A 
ATOM      4  N   UNL     1       0.436  -1.870   0.745  0.00  0.00    -0.278 N 
ATOM      5  N   UNL     1      -0.945  -1.638   0.762  0.00  0.00    -0.136 NA
ATOM      6  C   UNL     1      -1.280  -1.079  -0.376  0.00  0.00    +0.236 A 
ATOM      7  C   UNL     1      -0.119  -0.934  -1.149  0.00  0.00    +0.047 A 
ATOM      8  H   UNL     1       0.955  -2.275   1.458  0.00  0.00    +0.189 HD
BRANCH   6  10
ATOM      9  H   UNL     1      -2.788   0.177  -0.427  0.00  0.00    +0.294 HD
ATOM     10  O   UNL     1      -2.535  -0.702  -0.741  0.00  0.00    -0.491 OA
ENDBRANCH   6  10
ENDBRANCH   1   7
BRANCH   1  11
ATOM     11  C   UNL     1       0.999  -1.065  -3.337  0.00  0.00    -0.034 A 
ATOM     12  C   UNL     1       0.924  -2.439  -3.474  0.00  0.00    +0.008 A 
ATOM     13  C   UNL     1       1.876  -3.113  -4.215  0.00  0.00    +0.047 A 
ATOM     14  C   UNL     1       2.906  -2.411  -4.823  0.00  0.00    +0.131 A 
ATOM     15  C   UNL     1       2.979  -1.032  -4.684  0.00  0.00    +0.060 A 
ATOM     16  C   UNL     1       2.021  -0.361  -3.946  0.00  0.00    +0.023 A 
ATOM     17 BR   UNL     1       4.382  -0.070  -5.510  0.00  0.00    -0.047 Br
BRANCH  14  18
ATOM     18  O   UNL     1       3.843  -3.072  -5.552  0.00  0.00    -0.506 OA
ATOM     19  H   UNL     1       3.620  -3.165  -6.488  0.00  0.00    +0.292 HD
ENDBRANCH  14  18
ENDBRANCH   1  11
BRANCH   1  20
ATOM     20  C   UNL     1      -1.381  -0.452  -3.205  0.00  0.00    +0.017 C 
ATOM     21  C   UNL     1      -2.217   0.528  -3.555  0.00  0.00    +0.065 C 
ATOM     22  N   UNL     1      -3.325   0.027  -4.143  0.00  0.00    -0.156 NA
ATOM     23  N   UNL     1      -3.344  -1.202  -4.237  0.00  0.00    -0.151 NA
ATOM     24  C   UNL     1      -2.092  -1.716  -3.655  0.00  0.00    +0.284 C 
ATOM     25  C   UNL     1      -1.958   1.995  -3.325  0.00  0.00    +0.067 C 
BRANCH  24  26
ATOM     26  O   UNL     1      -2.368  -2.565  -2.539  0.00  0.00    -0.366 OA
ATOM     27  H   UNL     1      -2.752  -3.420  -2.780  0.00  0.00    +0.212 HD
ENDBRANCH  24  26
ENDBRANCH   1  20
TORSDOF 6
