REMARK  Name = ZINC33293123
REMARK  9 active torsions:
REMARK  status: ('A' for Active; 'I' for Inactive)
REMARK    1  A    between atoms: C_1  and  C_2
REMARK    2  A    between atoms: C_5  and  C_8
REMARK    3  A    between atoms: C_10  and  C_13
REMARK    4  A    between atoms: N_18  and  C_20
REMARK    5  A    between atoms: C_20  and  C_21
REMARK    6  A    between atoms: N_23  and  C_24
REMARK    7  A    between atoms: C_29  and  C_30
REMARK    8  A    between atoms: C_30  and  O_32
REMARK    9  A    between atoms: O_32  and  C_33
REMARK                            x       y       z     vdW  Elec       q    Type
REMARK                         _______ _______ _______ _____ _____    ______ ____
ROOT
ATOM      1  C   UNL     1       3.877  -4.203   1.369  0.00  0.00    +0.056 A 
ATOM      2  C   UNL     1       3.862  -4.966   0.177  0.00  0.00    +0.020 A 
ATOM      3  C   UNL     1       3.942  -4.323  -1.019  0.00  0.00    +0.071 A 
ATOM      4  C   UNL     1       4.038  -2.919  -1.046  0.00  0.00    +0.252 A 
ATOM      5  O   UNL     1       4.110  -2.338  -2.117  0.00  0.00    -0.268 OA
ATOM      6  N   UNL     1       4.052  -2.214   0.099  0.00  0.00    -0.306 N 
ATOM      7  C   UNL     1       3.979  -2.830   1.295  0.00  0.00    +0.103 A 
ENDROOT
BRANCH   1  10
ATOM      8  C   UNL     1       3.647  -6.313   4.238  0.00  0.00    +0.202 A 
ATOM      9  N   UNL     1       3.692  -6.173   2.897  0.00  0.00    -0.187 NA
ATOM     10  C   UNL     1       3.792  -4.873   2.682  0.00  0.00    +0.260 A 
ATOM     11  O   UNL     1       3.796  -4.279   3.885  0.00  0.00    -0.332 OA
ATOM     12  N   UNL     1       3.712  -5.115   4.759  0.00  0.00    -0.056 NA
BRANCH   8  17
ATOM     13  C   UNL     1       3.223 -11.274   7.135  0.00  0.00    +0.044 C 
ATOM     14  C   UNL     1       3.334  -9.976   6.377  0.00  0.00    -0.050 A 
ATOM     15  C   UNL     1       3.393  -8.778   7.066  0.00  0.00    +0.004 A 
ATOM     16  C   UNL     1       3.495  -7.587   6.377  0.00  0.00    +0.012 A 
ATOM     17  C   UNL     1       3.538  -7.592   4.985  0.00  0.00    +0.022 A 
ATOM     18  C   UNL     1       3.472  -8.800   4.295  0.00  0.00    +0.012 A 
ATOM     19  C   UNL     1       3.376  -9.987   4.995  0.00  0.00    +0.004 A 
ENDBRANCH   8  17
ENDBRANCH   1  10
BRANCH   6  20
ATOM     20  C   UNL     1       4.153  -0.753   0.045  0.00  0.00    +0.220 C 
BRANCH  20  21
ATOM     21  C   UNL     1       2.771  -0.155  -0.016  0.00  0.00    +0.237 C 
ATOM     22  O   UNL     1       1.797  -0.878  -0.015  0.00  0.00    -0.274 OA
ATOM     23  N   UNL     1       2.617   1.182  -0.072  0.00  0.00    -0.283 N 
ATOM     24  H   UNL     1       3.499   1.834  -0.166  0.00  0.00    +0.155 HD
BRANCH  23  25
ATOM     25  C   UNL     1       1.342   1.740  -0.011  0.00  0.00    +0.048 A 
ATOM     26  C   UNL     1       0.308   1.051   0.608  0.00  0.00    +0.025 A 
ATOM     27  C   UNL     1      -0.956   1.602   0.663  0.00  0.00    +0.022 A 
ATOM     28  C   UNL     1      -1.201   2.850   0.110  0.00  0.00    +0.042 A 
ATOM     29  C   UNL     1      -0.187   3.549  -0.509  0.00  0.00    +0.036 A 
ATOM     30  C   UNL     1       1.097   3.001  -0.576  0.00  0.00    +0.081 A 
ATOM     31 CL   UNL     1      -2.796   3.533   0.192  0.00  0.00    -0.084 Cl
BRANCH  30  32
ATOM     32  C   UNL     1       2.186   3.742  -1.236  0.00  0.00    +0.341 C 
ATOM     33  O   UNL     1       3.276   3.224  -1.377  0.00  0.00    -0.245 OA
BRANCH  32  34
ATOM     34  O   UNL     1       1.974   4.996  -1.683  0.00  0.00    -0.464 OA
ATOM     35  C   UNL     1       3.092   5.666  -2.323  0.00  0.00    +0.280 C 
ENDBRANCH  32  34
ENDBRANCH  30  32
ENDBRANCH  23  25
ENDBRANCH  20  21
ENDBRANCH   6  20
TORSDOF 7
