REMARK  Name = ZINC24788092
REMARK  8 active torsions:
REMARK  status: ('A' for Active; 'I' for Inactive)
REMARK    1  A    between atoms: C_1  and  C_2
REMARK    2  A    between atoms: C_15  and  C_17
REMARK    3  A    between atoms: C_17  and  N_18
REMARK    4  A    between atoms: C_23  and  O_36
REMARK    5  A    between atoms: C_24  and  O_34
REMARK    6  A    between atoms: C_27  and  C_29
REMARK    7  A    between atoms: O_34  and  C_35
REMARK    8  A    between atoms: O_36  and  C_37
REMARK                            x       y       z     vdW  Elec       q    Type
REMARK                         _______ _______ _______ _____ _____    ______ ____
ROOT
ATOM      1  N   UNL     1       1.219  -0.659   0.977  0.00  0.00    +0.393 N 
ATOM      2  C   UNL     1       1.450  -2.108   1.085  0.00  0.00    -0.072 C 
ATOM      3  C   UNL     1       2.196  -2.574  -0.166  0.00  0.00    +0.017 C 
ATOM      4  C   UNL     1       1.493  -2.074  -1.401  0.00  0.00    -0.043 A 
ATOM      5  C   UNL     1       1.796  -2.667  -2.619  0.00  0.00    +0.053 A 
ATOM      6  C   UNL     1       1.178  -2.238  -3.779  0.00  0.00    +0.162 A 
ATOM      7  C   UNL     1       0.246  -1.205  -3.722  0.00  0.00    +0.162 A 
ATOM      8  C   UNL     1      -0.053  -0.618  -2.506  0.00  0.00    +0.052 A 
ATOM      9  C   UNL     1       0.569  -1.052  -1.344  0.00  0.00    -0.049 A 
ATOM     10  C   UNL     1       0.205  -0.382  -0.045  0.00  0.00    +0.001 C 
ATOM     11  H   UNL     1       2.158  -0.175   0.672  0.00  0.00    -0.080 HD
ENDROOT
BRANCH  10  12
ATOM     12  C   UNL     1       0.111   1.106  -0.262  0.00  0.00    -0.019 A 
ATOM     13  C   UNL     1      -0.989   1.872  -0.465  0.00  0.00    +0.010 A 
ATOM     14  C   UNL     1      -0.834   3.234  -0.639  0.00  0.00    +0.008 A 
ATOM     15  C   UNL     1       0.413   3.763  -0.613  0.00  0.00    +0.045 A 
ATOM     16  S   UNL     1       1.421   2.317  -0.328  0.00  0.00    -0.103 S 
ENDBRANCH  10  12
BRANCH   7  17
ATOM     17  O   UNL     1      -0.366  -0.774  -4.858  0.00  0.00    -0.491 OA
ATOM     18  C   UNL     1      -1.310   0.290  -4.722  0.00  0.00    +0.277 C 
ENDBRANCH   7  17
BRANCH   6  19
ATOM     19  O   UNL     1       1.479  -2.822  -4.970  0.00  0.00    -0.491 OA
ATOM     20  C   UNL     1       2.444  -3.875  -4.950  0.00  0.00    +0.277 C 
ENDBRANCH   6  19
BRANCH   1  21
ATOM     21  C   UNL     1       0.827  -0.091   2.274  0.00  0.00    +0.020 C 
BRANCH  21  35
ATOM     22  C   UNL     1      -1.687  -2.274   5.493  0.00  0.00    +0.029 C 
ATOM     23  C   UNL     1      -2.092  -1.178   4.505  0.00  0.00    +0.087 C 
ATOM     24  C   UNL     1      -2.994  -0.165   5.213  0.00  0.00    +0.118 C 
ATOM     25  C   UNL     1      -3.082   1.103   4.406  0.00  0.00    +0.219 C 
ATOM     26  O   UNL     1      -4.087   1.343   3.771  0.00  0.00    -0.275 OA
ATOM     27  N   UNL     1      -2.050   1.976   4.385  0.00  0.00    -0.284 N 
ATOM     28  C   UNL     1      -0.850   1.675   5.039  0.00  0.00    +0.055 A 
ATOM     29  C   UNL     1      -0.251   2.592   5.886  0.00  0.00    +0.025 A 
ATOM     30  C   UNL     1       0.951   2.282   6.495  0.00  0.00    +0.002 A 
ATOM     31  C   UNL     1       1.556   1.061   6.261  0.00  0.00    +0.002 A 
ATOM     32  C   UNL     1       0.957   0.134   5.427  0.00  0.00    +0.025 A 
ATOM     33  C   UNL     1      -0.251   0.427   4.826  0.00  0.00    +0.058 A 
ATOM     34  N   UNL     1      -0.892  -0.508   4.003  0.00  0.00    -0.268 N 
ATOM     35  C   UNL     1      -0.410  -0.790   2.776  0.00  0.00    +0.204 C 
ATOM     36  O   UNL     1      -0.972  -1.606   2.076  0.00  0.00    -0.277 OA
ATOM     37  H   UNL     1      -2.150   2.932   3.850  0.00  0.00    +0.155 HD
ENDBRANCH  21  35
ENDBRANCH   1  21
TORSDOF 5
