REMARK  Name = ZINC38659303
REMARK  13 active torsions:
REMARK  status: ('A' for Active; 'I' for Inactive)
REMARK    1  A    between atoms: C_1  and  C_2
REMARK    2  A    between atoms: C_5  and  C_7
REMARK    3  A    between atoms: C_12  and  O_21
REMARK    4  A    between atoms: C_16  and  N_20
REMARK    5  A    between atoms: C_17  and  C_18
REMARK    6  A    between atoms: O_21  and  C_22
REMARK    7  A    between atoms: C_22  and  C_24
REMARK    8  A    between atoms: C_24  and  O_25
REMARK    9  A    between atoms: O_25  and  C_26
REMARK   10  A    between atoms: C_29  and  C_32
REMARK   11  A    between atoms: C_32  and  C_33
REMARK   12  A    between atoms: C_32  and  C_34
REMARK   13  A    between atoms: C_32  and  C_35
REMARK                            x       y       z     vdW  Elec       q    Type
REMARK                         _______ _______ _______ _____ _____    ______ ____
ROOT
ATOM      1  C   UNL     1       1.722  -3.273   0.002  0.00  0.00    +0.134 C 
ATOM      2  C   UNL     1       2.558  -3.227  -1.250  0.00  0.00    +0.011 A 
ATOM      3  C   UNL     1       2.848  -2.004  -1.830  0.00  0.00    +0.012 A 
ATOM      4  C   UNL     1       3.614  -1.942  -2.977  0.00  0.00    +0.047 A 
ATOM      5  C   UNL     1       4.095  -3.110  -3.553  0.00  0.00    +0.135 A 
ATOM      6  C   UNL     1       3.807  -4.335  -2.975  0.00  0.00    +0.093 A 
ATOM      7  C   UNL     1       3.037  -4.395  -1.820  0.00  0.00    +0.138 A 
ATOM      8  O   UNL     1       2.763  -5.603  -1.267  0.00  0.00    -0.441 OA
ATOM      9  C   UNL     1       1.736  -5.730  -0.411  0.00  0.00    +0.199 C 
ATOM     10  C   UNL     1       1.199  -4.664   0.222  0.00  0.00    +0.101 C 
ENDROOT
BRANCH   1  15
ATOM     11  C   UNL     1       5.405  -3.234   3.447  0.00  0.00    +0.086 C 
ATOM     12  C   UNL     1       4.167  -2.847   2.680  0.00  0.00    +0.102 A 
ATOM     13  C   UNL     1       3.364  -1.804   2.957  0.00  0.00    +0.044 A 
ATOM     14  C   UNL     1       2.332  -1.815   1.991  0.00  0.00    +0.046 A 
ATOM     15  C   UNL     1       2.566  -2.864   1.181  0.00  0.00    +0.118 A 
ATOM     16  O   UNL     1       3.683  -3.482   1.600  0.00  0.00    -0.464 OA
ENDBRANCH   1  15
BRANCH   9  17
ATOM     17  N   UNL     1       1.217  -6.978  -0.174  0.00  0.00    -0.328 N 
ATOM     18  H   UNL     1       1.593  -7.753  -0.621  0.00  0.00    +0.145 HD
ATOM     19  H   UNL     1       0.475  -7.086   0.442  0.00  0.00    +0.145 HD
ENDBRANCH   9  17
BRANCH  10  20
ATOM     20  C   UNL     1       0.105  -4.868   1.124  0.00  0.00    +0.101 C 
ATOM     21  N   UNL     1      -0.762  -5.029   1.839  0.00  0.00    -0.191 NA
ENDBRANCH  10  20
BRANCH   5  22
ATOM     22  O   UNL     1       4.848  -3.051  -4.683  0.00  0.00    -0.423 OA
BRANCH  22  23
ATOM     23  C   UNL     1       4.313  -3.517  -5.823  0.00  0.00    +0.350 C 
ATOM     24  O   UNL     1       3.159  -3.875  -5.846  0.00  0.00    -0.247 OA
BRANCH  23  25
ATOM     25  C   UNL     1       5.151  -3.594  -7.073  0.00  0.00    +0.349 C 
BRANCH  25  26
ATOM     26  O   UNL     1       4.363  -4.119  -8.143  0.00  0.00    -0.481 OA
BRANCH  26  27
ATOM     27  C   UNL     1       4.973  -4.254  -9.350  0.00  0.00    +0.121 A 
ATOM     28  C   UNL     1       6.304  -3.894  -9.499  0.00  0.00    +0.046 A 
ATOM     29  C   UNL     1       6.923  -4.032 -10.727  0.00  0.00    +0.008 A 
ATOM     30  C   UNL     1       6.215  -4.529 -11.806  0.00  0.00    -0.042 A 
ATOM     31  C   UNL     1       4.888  -4.888 -11.660  0.00  0.00    +0.008 A 
ATOM     32  C   UNL     1       4.267  -4.758 -10.433  0.00  0.00    +0.046 A 
BRANCH  30  33
ATOM     33  C   UNL     1       6.892  -4.679 -13.145  0.00  0.00    -0.013 C 
ATOM     34  C   UNL     1       8.081  -5.632 -13.011  0.00  0.00    +0.015 C 
ATOM     35  C   UNL     1       5.896  -5.245 -14.159  0.00  0.00    +0.015 C 
ATOM     36  C   UNL     1       7.385  -3.312 -13.623  0.00  0.00    +0.015 C 
ENDBRANCH  30  33
ENDBRANCH  26  27
ENDBRANCH  25  26
ENDBRANCH  23  25
ENDBRANCH  22  23
ENDBRANCH   5  22
TORSDOF 9
