REMARK  Name = ZINC39663905
REMARK  10 active torsions:
REMARK  status: ('A' for Active; 'I' for Inactive)
REMARK    1  A    between atoms: C_1  and  N_2
REMARK    2  A    between atoms: N_2  and  C_3
REMARK    3  A    between atoms: N_2  and  C_4
REMARK    4  A    between atoms: C_4  and  C_6
REMARK    5  A    between atoms: C_4  and  C_32
REMARK    6  A    between atoms: C_6  and  N_7
REMARK    7  A    between atoms: C_8  and  C_10
REMARK    8  A    between atoms: C_21  and  C_23
REMARK    9  A    between atoms: C_35  and  O_38
REMARK   10  A    between atoms: O_38  and  C_39
REMARK                            x       y       z     vdW  Elec       q    Type
REMARK                         _______ _______ _______ _____ _____    ______ ____
ROOT
ATOM      1  C   UNL     1      -2.626   3.816  -1.798  0.00  0.00    +0.100 C 
ATOM      2  C   UNL     1      -1.167   4.275  -2.018  0.00  0.00    +0.121 C 
ATOM      3  N   UNL     1      -1.106   4.656  -3.448  0.00  0.00    -0.296 N 
ATOM      4  C   UNL     1      -2.399   5.336  -3.704  0.00  0.00    +0.115 C 
ATOM      5  C   UNL     1      -3.432   4.518  -2.904  0.00  0.00    -0.004 C 
ATOM      6  C   UNL     1      -4.478   5.444  -2.290  0.00  0.00    -0.010 C 
ATOM      7  C   UNL     1      -5.304   6.085  -3.408  0.00  0.00    -0.082 C 
ATOM      8  N   UNL     1      -5.956   5.036  -4.201  0.00  0.00    +0.379 N 
ATOM      9  C   UNL     1      -4.942   4.207  -4.863  0.00  0.00    -0.082 C 
ATOM     10  C   UNL     1      -4.100   3.486  -3.807  0.00  0.00    -0.010 C 
ATOM     11  C   UNL     1      -0.102   4.435  -4.320  0.00  0.00    +0.248 C 
ATOM     12  O   UNL     1       0.863   3.777  -3.982  0.00  0.00    -0.270 OA
ATOM     13  H   UNL     1      -6.518   4.457  -3.594  0.00  0.00    -0.086 HD
ATOM     14  H   UNL     1      -6.548   5.462  -4.898  0.00  0.00    -0.086 HD
ENDROOT
BRANCH  11  15
ATOM     15  C   UNL     1      -0.174   4.989  -5.678  0.00  0.00    +0.052 A 
ATOM     16  C   UNL     1      -0.759   6.192  -5.914  0.00  0.00    +0.059 A 
ATOM     17  S   UNL     1      -0.625   6.437  -7.567  0.00  0.00    -0.096 S 
ATOM     18  C   UNL     1       0.217   4.951  -8.037  0.00  0.00    +0.020 A 
ATOM     19  C   UNL     1       0.388   4.264  -6.820  0.00  0.00    +0.001 A 
ATOM     20  C   UNL     1       1.045   3.020  -6.868  0.00  0.00    +0.010 A 
ATOM     21  C   UNL     1       1.499   2.520  -8.063  0.00  0.00    +0.001 A 
ATOM     22  C   UNL     1       1.323   3.219  -9.248  0.00  0.00    +0.001 A 
ATOM     23  C   UNL     1       0.672   4.437  -9.233  0.00  0.00    +0.015 A 
ENDBRANCH  11  15
BRANCH   1  25
ATOM     24  N   UNL     1      -3.774   1.664  -1.390  0.00  0.00    -0.316 N 
ATOM     25  C   UNL     1      -2.733   2.320  -1.940  0.00  0.00    +0.218 C 
ATOM     26  O   UNL     1      -1.882   1.706  -2.548  0.00  0.00    -0.275 OA
ATOM     27  H   UNL     1      -4.455   2.154  -0.904  0.00  0.00    +0.149 HD
BRANCH  24  28
ATOM     28  C   UNL     1      -3.878   0.209  -1.528  0.00  0.00    +0.093 C 
BRANCH  28  29
ATOM     29  C   UNL     1      -5.073  -0.296  -0.717  0.00  0.00    -0.021 C 
BRANCH  29  30
ATOM     30  C   UNL     1      -6.348   0.245  -1.310  0.00  0.00    -0.059 A 
ATOM     31  C   UNL     1      -6.901  -0.358  -2.425  0.00  0.00    +0.005 A 
ATOM     32  C   UNL     1      -8.069   0.137  -2.971  0.00  0.00    +0.046 A 
ATOM     33  C   UNL     1      -8.689   1.239  -2.399  0.00  0.00    +0.120 A 
ATOM     34  C   UNL     1      -8.132   1.841  -1.280  0.00  0.00    +0.046 A 
ATOM     35  C   UNL     1      -6.966   1.340  -0.735  0.00  0.00    +0.005 A 
BRANCH  33  36
ATOM     36  O   UNL     1      -9.838   1.727  -2.935  0.00  0.00    -0.495 OA
ATOM     37  C   UNL     1     -10.421   2.864  -2.294  0.00  0.00    +0.277 C 
ENDBRANCH  33  36
ENDBRANCH  29  30
BRANCH  29  39
ATOM     38  C   UNL     1      -3.906  -2.293  -0.081  0.00  0.00    -0.096 C 
ATOM     39  N   UNL     1      -5.102  -1.765  -0.750  0.00  0.00    +0.382 N 
ATOM     40  C   UNL     1      -6.304  -2.247  -0.058  0.00  0.00    -0.096 C 
ATOM     41  H   UNL     1      -5.117  -2.079  -1.709  0.00  0.00    -0.082 HD
ENDBRANCH  29  39
ENDBRANCH  28  29
ENDBRANCH  24  28
ENDBRANCH   1  25
TORSDOF 7
