REMARK  Name = ZINC38891796
REMARK  9 active torsions:
REMARK  status: ('A' for Active; 'I' for Inactive)
REMARK    1  A    between atoms: C_1  and  C_2
REMARK    2  A    between atoms: C_5  and  C_8
REMARK    3  A    between atoms: C_10  and  C_13
REMARK    4  A    between atoms: C_13  and  N_14
REMARK    5  A    between atoms: C_18  and  C_21
REMARK    6  A    between atoms: N_23  and  C_24
REMARK    7  A    between atoms: C_27  and  C_36
REMARK    8  A    between atoms: C_27  and  C_37
REMARK    9  A    between atoms: C_33  and  C_35
REMARK                            x       y       z     vdW  Elec       q    Type
REMARK                         _______ _______ _______ _____ _____    ______ ____
ROOT
ATOM      1  N   UNL     1      -1.278  -7.884   1.946  0.00  0.00    +0.386 N 
ATOM      2  C   UNL     1      -1.949  -6.806   2.683  0.00  0.00    -0.078 C 
ATOM      3  C   UNL     1      -3.410  -7.187   2.932  0.00  0.00    -0.018 C 
ATOM      4  C   UNL     1      -3.463  -8.478   3.753  0.00  0.00    +0.009 C 
ATOM      5  C   UNL     1      -2.696  -9.576   3.010  0.00  0.00    +0.058 C 
ATOM      6  C   UNL     1      -1.262  -9.107   2.758  0.00  0.00    -0.065 C 
ATOM      7  H   UNL     1      -1.774  -8.059   1.085  0.00  0.00    -0.081 HD
ENDROOT
BRANCH   5   8
ATOM      8  C   UNL     1      -2.678 -10.831   3.844  0.00  0.00    +0.215 C 
ATOM      9  O   UNL     1      -1.620 -11.306   4.200  0.00  0.00    -0.276 OA
ATOM     10  N   UNL     1      -3.836 -11.424   4.195  0.00  0.00    -0.308 N 
ATOM     11  H   UNL     1      -4.681 -11.043   3.911  0.00  0.00    +0.149 HD
BRANCH  10  12
ATOM     12  C   UNL     1      -3.818 -12.643   5.007  0.00  0.00    +0.110 C 
ATOM     13  C   UNL     1      -5.099 -13.442   4.755  0.00  0.00    +0.074 C 
ATOM     14  C   UNL     1      -5.197 -14.544   5.817  0.00  0.00    +0.107 C 
ATOM     15  O   UNL     1      -5.348 -13.925   7.095  0.00  0.00    -0.486 OA
ATOM     16  C   UNL     1      -4.486 -12.927   7.423  0.00  0.00    +0.126 A 
ATOM     17  C   UNL     1      -3.729 -12.274   6.466  0.00  0.00    +0.015 A 
ATOM     18  C   UNL     1      -2.868 -11.259   6.845  0.00  0.00    +0.009 A 
ATOM     19  C   UNL     1      -2.759 -10.897   8.174  0.00  0.00    +0.004 A 
ATOM     20  C   UNL     1      -3.512 -11.549   9.132  0.00  0.00    -0.047 A 
ATOM     21  C   UNL     1      -4.371 -12.561   8.760  0.00  0.00    +0.049 A 
ATOM     22  C   UNL     1      -3.393 -11.157  10.582  0.00  0.00    +0.044 C 
ATOM     23  C   UNL     1      -3.922 -15.390   5.801  0.00  0.00    +0.055 C 
ATOM     24  C   UNL     1      -6.409 -15.432   5.529  0.00  0.00    +0.055 C 
ENDBRANCH  10  12
ENDBRANCH   5   8
BRANCH   1  25
ATOM     25  C   UNL     1       0.102  -7.482   1.642  0.00  0.00    +0.022 C 
BRANCH  25  28
ATOM     26  C   UNL     1       0.059  -4.256  -0.021  0.00  0.00    +0.202 A 
ATOM     27  N   UNL     1       0.070  -5.047   1.067  0.00  0.00    -0.193 NA
ATOM     28  C   UNL     1       0.086  -6.299   0.708  0.00  0.00    +0.211 A 
ATOM     29  O   UNL     1       0.086  -6.357  -0.630  0.00  0.00    -0.340 OA
ATOM     30  N   UNL     1       0.064  -5.015  -1.090  0.00  0.00    -0.056 NA
BRANCH  26  35
ATOM     31  C   UNL     1      -0.018   1.503   0.010  0.00  0.00    +0.044 C 
ATOM     32  C   UNL     1       0.002  -0.004   0.002  0.00  0.00    -0.050 A 
ATOM     33  C   UNL     1       0.006  -0.686  -1.201  0.00  0.00    +0.004 A 
ATOM     34  C   UNL     1       0.024  -2.067  -1.214  0.00  0.00    +0.012 A 
ATOM     35  C   UNL     1       0.040  -2.772  -0.013  0.00  0.00    +0.022 A 
ATOM     36  C   UNL     1       0.036  -2.080   1.196  0.00  0.00    +0.012 A 
ATOM     37  C   UNL     1       0.023  -0.700   1.198  0.00  0.00    +0.004 A 
ENDBRANCH  26  35
ENDBRANCH  25  28
ENDBRANCH   1  25
TORSDOF 5
