REMARK  Name = ZINC58386187
REMARK  7 active torsions:
REMARK  status: ('A' for Active; 'I' for Inactive)
REMARK    1  A    between atoms: C_1  and  C_2
REMARK    2  A    between atoms: C_4  and  C_29
REMARK    3  A    between atoms: C_6  and  C_8
REMARK    4  A    between atoms: C_8  and  C_12
REMARK    5  A    between atoms: N_14  and  C_15
REMARK    6  A    between atoms: C_15  and  C_16
REMARK    7  A    between atoms: C_15  and  C_17
REMARK                            x       y       z     vdW  Elec       q    Type
REMARK                         _______ _______ _______ _____ _____    ______ ____
ROOT
ATOM      1  C   UNL     1      -1.054  -3.862   2.586  0.00  0.00    +0.224 C 
ATOM      2  O   UNL     1      -1.816  -3.841   3.529  0.00  0.00    -0.275 OA
ATOM      3  N   UNL     1      -1.188  -4.804   1.631  0.00  0.00    -0.308 N 
ATOM      4  H   UNL     1      -0.531  -4.872   0.921  0.00  0.00    +0.149 HD
ENDROOT
BRANCH   1   5
ATOM      5  C   UNL     1       0.045  -2.835   2.481  0.00  0.00    +0.072 C 
ATOM      6  C   UNL     1       1.448  -3.403   2.750  0.00  0.00    +0.021 C 
ATOM      7  C   UNL     1       1.211  -3.075   4.234  0.00  0.00    +0.003 C 
ATOM      8  C   UNL     1       0.226  -1.995   3.756  0.00  0.00    +0.021 C 
BRANCH   5  14
ATOM      9  C   UNL     1       1.651  -1.807  -2.146  0.00  0.00    +0.044 C 
ATOM     10  C   UNL     1       0.727  -1.519  -0.991  0.00  0.00    -0.050 A 
ATOM     11  C   UNL     1      -0.201  -0.499  -1.086  0.00  0.00    +0.006 A 
ATOM     12  C   UNL     1      -1.049  -0.234  -0.027  0.00  0.00    -0.050 A 
ATOM     13  C   UNL     1      -0.970  -0.991   1.127  0.00  0.00    +0.008 A 
ATOM     14  C   UNL     1      -0.043  -2.011   1.222  0.00  0.00    -0.032 A 
ATOM     15  C   UNL     1       0.803  -2.279   0.161  0.00  0.00    +0.008 A 
ATOM     16  C   UNL     1      -2.060   0.878  -0.131  0.00  0.00    +0.044 C 
ENDBRANCH   5  14
ENDBRANCH   1   5
BRANCH   3  17
ATOM     17  C   UNL     1      -2.328  -5.724   1.666  0.00  0.00    +0.100 C 
ATOM     18  C   UNL     1      -2.001  -6.907   2.580  0.00  0.00    +0.033 C 
BRANCH  17  19
ATOM     19  C   UNL     1      -2.609  -6.228   0.274  0.00  0.00    -0.025 A 
ATOM     20  C   UNL     1      -1.559  -6.552  -0.568  0.00  0.00    +0.007 A 
ATOM     21  C   UNL     1      -1.806  -7.015  -1.845  0.00  0.00    +0.028 A 
ATOM     22  C   UNL     1      -3.113  -7.156  -2.286  0.00  0.00    +0.067 A 
ATOM     23  C   UNL     1      -4.173  -6.829  -1.438  0.00  0.00    +0.067 A 
ATOM     24  C   UNL     1      -3.914  -6.371  -0.155  0.00  0.00    +0.033 A 
ATOM     25  N   UNL     1      -5.346  -7.071  -2.148  0.00  0.00    -0.306 N 
ATOM     26  H   UNL     1      -6.248  -6.936  -1.817  0.00  0.00    +0.170 HD
ATOM     27  C   UNL     1      -5.016  -7.524  -3.372  0.00  0.00    +0.325 A 
ATOM     28  O   UNL     1      -5.808  -7.830  -4.243  0.00  0.00    -0.247 OA
ATOM     29  N   UNL     1      -3.676  -7.586  -3.486  0.00  0.00    -0.306 N 
ATOM     30  H   UNL     1      -3.186  -7.880  -4.269  0.00  0.00    +0.170 HD
ENDBRANCH  17  19
ENDBRANCH   3  17
TORSDOF 4
