REMARK  Name = ZINC20369608
REMARK  4 active torsions:
REMARK  status: ('A' for Active; 'I' for Inactive)
REMARK    1  A    between atoms: C_1  and  C_2
REMARK    2  A    between atoms: C_5  and  C_8
REMARK    3  A    between atoms: C_9  and  C_25
REMARK    4  A    between atoms: C_17  and  C_19
REMARK                            x       y       z     vdW  Elec       q    Type
REMARK                         _______ _______ _______ _____ _____    ______ ____
ROOT
ATOM      1  C   UNL     1       0.061  -4.255  -0.021  0.00  0.00    +0.007 A 
ATOM      2  C   UNL     1      -0.987  -4.957  -0.518  0.00  0.00    -0.003 A 
ATOM      3  S   UNL     1      -0.486  -6.654  -0.304  0.00  0.00    -0.073 S 
ATOM      4  C   UNL     1       1.103  -6.385   0.439  0.00  0.00    +0.117 A 
ATOM      5  C   UNL     1       1.210  -4.984   0.499  0.00  0.00    +0.080 A 
ATOM      6  C   UNL     1       2.423  -4.476   1.063  0.00  0.00    +0.261 A 
ATOM      7  O   UNL     1       2.603  -3.274   1.161  0.00  0.00    -0.267 OA
ATOM      8  N   UNL     1       3.363  -5.341   1.486  0.00  0.00    -0.306 N 
ATOM      9  H   UNL     1       4.186  -5.001   1.870  0.00  0.00    +0.170 HD
ATOM     10  C   UNL     1       3.177  -6.692   1.385  0.00  0.00    +0.144 A 
ATOM     11  N   UNL     1       2.066  -7.185   0.879  0.00  0.00    -0.222 NA
ATOM     12  C   UNL     1      -2.269  -4.428  -1.109  0.00  0.00    +0.052 C 
ENDROOT
BRANCH   1  17
ATOM     13  C   UNL     1      -0.018   1.503   0.010  0.00  0.00    +0.044 C 
ATOM     14  C   UNL     1       0.002  -0.004   0.002  0.00  0.00    -0.050 A 
ATOM     15  C   UNL     1       0.006  -0.686  -1.201  0.00  0.00    +0.004 A 
ATOM     16  C   UNL     1       0.025  -2.066  -1.215  0.00  0.00    +0.009 A 
ATOM     17  C   UNL     1       0.041  -2.772  -0.013  0.00  0.00    -0.016 A 
ATOM     18  C   UNL     1       0.037  -2.079   1.196  0.00  0.00    +0.009 A 
ATOM     19  C   UNL     1       0.023  -0.699   1.198  0.00  0.00    +0.004 A 
ENDBRANCH   1  17
BRANCH  10  20
ATOM     20  C   UNL     1       4.232  -7.611   1.860  0.00  0.00    +0.035 A 
ATOM     21  C   UNL     1       4.066  -8.998   1.761  0.00  0.00    +0.014 A 
ATOM     22  C   UNL     1       5.083  -9.815   2.220  0.00  0.00    +0.020 A 
ATOM     23  C   UNL     1       6.222  -9.241   2.758  0.00  0.00    +0.111 A 
ATOM     24  N   UNL     1       6.351  -7.930   2.838  0.00  0.00    -0.263 NA
ATOM     25  C   UNL     1       5.413  -7.111   2.410  0.00  0.00    +0.122 A 
ENDBRANCH  10  20
TORSDOF 2
