REMARK  Name = ZINC02652687
REMARK  13 active torsions:
REMARK  status: ('A' for Active; 'I' for Inactive)
REMARK    1  A    between atoms: C_1  and  C_2
REMARK    2  A    between atoms: C_2  and  C_4
REMARK    3  A    between atoms: C_2  and  O_11
REMARK    4  A    between atoms: O_11  and  C_12
REMARK    5  A    between atoms: C_12  and  C_13
REMARK    6  A    between atoms: C_13  and  C_15
REMARK    7  A    between atoms: C_13  and  O_27
REMARK    8  A    between atoms: C_15  and  N_16
REMARK    9  A    between atoms: N_16  and  C_17
REMARK   10  A    between atoms: C_19  and  C_25
REMARK   11  A    between atoms: C_19  and  C_26
REMARK   12  A    between atoms: C_21  and  C_23
REMARK   13  A    between atoms: C_21  and  C_24
REMARK                            x       y       z     vdW  Elec       q    Type
REMARK                         _______ _______ _______ _____ _____    ______ ____
ROOT
ATOM      1  C   UNL     1      -0.802  -1.616  -5.004  0.00  0.00    -0.048 C 
ENDROOT
BRANCH   1   2
ATOM      2  N   UNL     1       0.038  -2.184  -6.066  0.00  0.00    +0.383 N 
ATOM      3  H   UNL     1       0.775  -1.535  -6.296  0.00  0.00    -0.085 HD
ATOM      4  H   UNL     1       0.442  -3.052  -5.748  0.00  0.00    -0.085 HD
BRANCH   2   5
ATOM      5  C   UNL     1      -0.785  -2.435  -7.261  0.00  0.00    -0.074 C 
ATOM      6  C   UNL     1      -1.255  -1.098  -7.837  0.00  0.00    -0.029 C 
ATOM      7  C   UNL     1      -2.102  -1.341  -9.086  0.00  0.00    -0.075 C 
ATOM      8  N   UNL     1      -1.406  -2.158 -10.069  0.00  0.00    +0.386 N 
ATOM      9  C   UNL     1      -0.737  -3.360  -9.598  0.00  0.00    -0.075 C 
ATOM     10  C   UNL     1       0.064  -3.140  -8.319  0.00  0.00    -0.029 C 
ATOM     11  C   UNL     1      -1.722  -4.517  -9.405  0.00  0.00    -0.010 C 
ATOM     12  C   UNL     1       0.262  -3.796 -10.695  0.00  0.00    -0.010 C 
ATOM     13  C   UNL     1      -2.373   0.038  -9.732  0.00  0.00    -0.010 C 
ATOM     14  C   UNL     1      -3.456  -1.935  -8.700  0.00  0.00    -0.010 C 
ATOM     15  H   UNL     1      -2.074  -2.425 -10.796  0.00  0.00    -0.084 HD
ATOM     16  H   UNL     1      -0.715  -1.570 -10.543  0.00  0.00    -0.084 HD
ENDBRANCH   2   5
ENDBRANCH   1   2
BRANCH   1  17
ATOM     17  C   UNL     1       0.053  -1.355  -3.762  0.00  0.00    +0.123 C 
BRANCH  17  18
ATOM     18  O   UNL     1       1.024  -0.349  -4.055  0.00  0.00    -0.391 OA
ATOM     19  H   UNL     1       0.644   0.499  -4.323  0.00  0.00    +0.210 HD
ENDBRANCH  17  18
BRANCH  17  20
ATOM     20  C   UNL     1      -0.843  -0.880  -2.616  0.00  0.00    +0.190 C 
BRANCH  20  21
ATOM     21  O   UNL     1      -0.064  -0.749  -1.426  0.00  0.00    -0.370 OA
BRANCH  21  23
ATOM     22  C   UNL     1      -0.786   1.220  -0.225  0.00  0.00    +0.043 C 
ATOM     23  C   UNL     1      -0.810  -0.308  -0.289  0.00  0.00    +0.145 C 
BRANCH  23  24
ATOM     24  C   UNL     1      -0.194  -0.874   0.965  0.00  0.00    -0.019 A 
ATOM     25  C   UNL     1       1.181  -0.929   1.095  0.00  0.00    +0.007 A 
ATOM     26  C   UNL     1       1.746  -1.448   2.245  0.00  0.00    +0.020 A 
ATOM     27  C   UNL     1       0.935  -1.911   3.266  0.00  0.00    +0.041 A 
ATOM     28  C   UNL     1      -0.441  -1.854   3.135  0.00  0.00    +0.020 A 
ATOM     29  C   UNL     1      -1.005  -1.331   1.987  0.00  0.00    +0.007 A 
ATOM     30 CL   UNL     1       1.644  -2.562   4.711  0.00  0.00    -0.084 Cl
ENDBRANCH  23  24
ENDBRANCH  21  23
ENDBRANCH  20  21
ENDBRANCH  17  20
ENDBRANCH   1  17
TORSDOF 8
