REMARK  Name = ZINC18182778
REMARK  7 active torsions:
REMARK  status: ('A' for Active; 'I' for Inactive)
REMARK    1  A    between atoms: C_1  and  O_2
REMARK    2  A    between atoms: O_2  and  C_3
REMARK    3  A    between atoms: C_5  and  C_11
REMARK    4  A    between atoms: C_8  and  O_9
REMARK    5  A    between atoms: N_19  and  C_22
REMARK    6  A    between atoms: C_22  and  C_23
REMARK    7  A    between atoms: N_30  and  C_31
REMARK                            x       y       z     vdW  Elec       q    Type
REMARK                         _______ _______ _______ _____ _____    ______ ____
ROOT
ATOM      1  C   UNL     1       2.401   0.380  -4.231  0.00  0.00    +0.157 C 
ATOM      2  C   UNL     1       3.939   0.430  -4.083  0.00  0.00    +0.145 C 
ATOM      3  C   UNL     1       4.431  -0.685  -5.046  0.00  0.00    +0.249 C 
ATOM      4  C   UNL     1       5.078  -1.687  -4.114  0.00  0.00    +0.254 C 
ATOM      5  O   UNL     1       5.622  -2.714  -4.459  0.00  0.00    -0.272 OA
ATOM      6  N   UNL     1       4.958  -1.262  -2.851  0.00  0.00    -0.235 N 
ATOM      7  C   UNL     1       4.327  -0.070  -2.711  0.00  0.00    +0.231 C 
ATOM      8  O   UNL     1       4.103   0.503  -1.667  0.00  0.00    -0.275 OA
ATOM      9  O   UNL     1       3.240  -1.258  -5.615  0.00  0.00    -0.257 OA
ATOM     10  N   UNL     1       2.217  -0.265  -5.553  0.00  0.00    -0.244 N 
ENDROOT
BRANCH   1  13
ATOM     11  C   UNL     1       0.606  -0.608  -1.056  0.00  0.00    +0.163 A 
ATOM     12  C   UNL     1       1.173   0.159  -2.062  0.00  0.00    +0.055 A 
ATOM     13  C   UNL     1       1.786  -0.455  -3.138  0.00  0.00    -0.017 A 
ATOM     14  C   UNL     1       1.836  -1.835  -3.214  0.00  0.00    +0.025 A 
ATOM     15  C   UNL     1       1.273  -2.606  -2.213  0.00  0.00    +0.063 A 
ATOM     16  C   UNL     1       0.662  -1.996  -1.129  0.00  0.00    +0.173 A 
ATOM     17 BR   UNL     1       1.342  -4.493  -2.321  0.00  0.00    -0.046 Br
BRANCH  11  19
ATOM     18  C   UNL     1      -0.017   1.425   0.010  0.00  0.00    +0.277 C 
ATOM     19  O   UNL     1       0.002  -0.004   0.002  0.00  0.00    -0.491 OA
ENDBRANCH  11  19
BRANCH  16  20
ATOM     20  O   UNL     1       0.112  -2.752  -0.141  0.00  0.00    -0.503 OA
ATOM     21  H   UNL     1      -0.816  -2.979  -0.290  0.00  0.00    +0.292 HD
ENDBRANCH  16  20
ENDBRANCH   1  13
BRANCH  10  22
ATOM     22  C   UNL     1       1.263   0.040  -6.527  0.00  0.00    +0.065 A 
ATOM     23  C   UNL     1       0.346   1.060  -6.309  0.00  0.00    +0.028 A 
ATOM     24  C   UNL     1      -0.595   1.359  -7.274  0.00  0.00    +0.002 A 
ATOM     25  C   UNL     1      -0.626   0.644  -8.457  0.00  0.00    +0.000 A 
ATOM     26  C   UNL     1       0.286  -0.372  -8.678  0.00  0.00    +0.002 A 
ATOM     27  C   UNL     1       1.233  -0.673  -7.720  0.00  0.00    +0.028 A 
ENDBRANCH  10  22
BRANCH   6  28
ATOM     28  C   UNL     1       5.474  -2.019  -1.708  0.00  0.00    +0.151 C 
BRANCH  28  29
ATOM     29  C   UNL     1       6.893  -1.598  -1.426  0.00  0.00    -0.030 A 
ATOM     30  C   UNL     1       7.943  -2.252  -2.044  0.00  0.00    +0.005 A 
ATOM     31  C   UNL     1       9.245  -1.866  -1.785  0.00  0.00    +0.000 A 
ATOM     32  C   UNL     1       9.497  -0.827  -0.909  0.00  0.00    +0.000 A 
ATOM     33  C   UNL     1       8.447  -0.173  -0.292  0.00  0.00    +0.000 A 
ATOM     34  C   UNL     1       7.145  -0.556  -0.554  0.00  0.00    +0.005 A 
ENDBRANCH  28  29
ENDBRANCH   6  28
TORSDOF 6
