REMARK  Name = ZINC12712521
REMARK  12 active torsions:
REMARK  status: ('A' for Active; 'I' for Inactive)
REMARK    1  A    between atoms: C_1  and  C_2
REMARK    2  A    between atoms: C_5  and  C_8
REMARK    3  A    between atoms: C_8  and  C_10
REMARK    4  A    between atoms: C_8  and  N_18
REMARK    5  A    between atoms: N_12  and  C_13
REMARK    6  A    between atoms: C_13  and  C_14
REMARK    7  A    between atoms: C_14  and  C_15
REMARK    8  A    between atoms: C_15  and  C_16
REMARK    9  A    between atoms: C_15  and  C_17
REMARK   10  A    between atoms: N_18  and  C_19
REMARK   11  A    between atoms: C_28  and  C_30
REMARK   12  A    between atoms: C_30  and  N_31
REMARK                            x       y       z     vdW  Elec       q    Type
REMARK                         _______ _______ _______ _____ _____    ______ ____
ROOT
ATOM      1  N   UNL     1      -5.488   3.053  -1.714  0.00  0.00    -0.254 N 
ATOM      2  C   UNL     1      -4.188   2.862  -1.412  0.00  0.00    +0.242 C 
ATOM      3  O   UNL     1      -3.328   3.187  -2.203  0.00  0.00    -0.273 OA
ENDROOT
BRANCH   1   4
ATOM      4  C   UNL     1      -6.475   2.779  -0.762  0.00  0.00    +0.038 A 
ATOM      5  C   UNL     1      -6.595   3.579   0.367  0.00  0.00    +0.024 A 
ATOM      6  C   UNL     1      -7.574   3.307   1.301  0.00  0.00    +0.006 A 
ATOM      7  C   UNL     1      -8.431   2.233   1.123  0.00  0.00    -0.044 A 
ATOM      8  C   UNL     1      -8.311   1.432   0.003  0.00  0.00    -0.042 A 
ATOM      9  C   UNL     1      -7.334   1.704  -0.939  0.00  0.00    +0.027 A 
ATOM     10  C   UNL     1      -9.355   0.337   0.043  0.00  0.00    +0.036 C 
ATOM     11  C   UNL     1      -9.837   0.291   1.508  0.00  0.00    +0.009 C 
ATOM     12  C   UNL     1      -9.565   1.731   1.992  0.00  0.00    +0.036 C 
ENDBRANCH   1   4
BRANCH   1  13
ATOM     13  C   UNL     1      -5.866   3.547  -3.041  0.00  0.00    +0.197 C 
BRANCH  13  18
ATOM     14  C   UNL     1     -11.624   3.511  -3.536  0.00  0.00    +0.044 C 
ATOM     15  C   UNL     1     -10.122   3.521  -3.407  0.00  0.00    -0.050 A 
ATOM     16  C   UNL     1      -9.350   2.759  -4.264  0.00  0.00    +0.004 A 
ATOM     17  C   UNL     1      -7.973   2.768  -4.146  0.00  0.00    +0.006 A 
ATOM     18  C   UNL     1      -7.368   3.538  -3.170  0.00  0.00    -0.018 A 
ATOM     19  C   UNL     1      -8.140   4.295  -2.310  0.00  0.00    +0.006 A 
ATOM     20  C   UNL     1      -9.517   4.291  -2.432  0.00  0.00    +0.004 A 
ENDBRANCH  13  18
BRANCH  13  21
ATOM     21  C   UNL     1      -5.355   4.953  -3.217  0.00  0.00    +0.238 C 
ATOM     22  O   UNL     1      -4.736   5.490  -2.324  0.00  0.00    -0.273 OA
ATOM     23  N   UNL     1      -5.587   5.614  -4.369  0.00  0.00    -0.313 N 
ATOM     24  H   UNL     1      -6.082   5.185  -5.084  0.00  0.00    +0.149 HD
BRANCH  23  25
ATOM     25  C   UNL     1      -5.090   6.982  -4.541  0.00  0.00    +0.104 C 
BRANCH  25  26
ATOM     26  C   UNL     1      -5.485   7.498  -5.926  0.00  0.00    +0.022 C 
BRANCH  26  27
ATOM     27  C   UNL     1      -4.966   8.926  -6.106  0.00  0.00    -0.016 C 
ATOM     28  C   UNL     1      -5.252   9.396  -7.533  0.00  0.00    +0.007 C 
ATOM     29  C   UNL     1      -5.670   9.853  -5.112  0.00  0.00    +0.007 C 
ENDBRANCH  26  27
ENDBRANCH  25  26
ENDBRANCH  23  25
ENDBRANCH  13  21
ENDBRANCH   1  13
BRANCH   2  30
ATOM     30  C   UNL     1      -3.804   2.245  -0.092  0.00  0.00    +0.242 C 
BRANCH  30  31
ATOM     31  N   UNL     1      -2.357   2.022  -0.059  0.00  0.00    -0.235 N 
ATOM     32  C   UNL     1      -1.690   0.891  -0.468  0.00  0.00    +0.090 A 
ATOM     33  C   UNL     1      -2.092  -0.326  -1.009  0.00  0.00    +0.029 A 
ATOM     34  C   UNL     1      -1.158  -1.275  -1.315  0.00  0.00    +0.002 A 
ATOM     35  C   UNL     1       0.193  -1.033  -1.099  0.00  0.00    +0.002 A 
ATOM     36  C   UNL     1       0.613   0.154  -0.574  0.00  0.00    +0.032 A 
ATOM     37  C   UNL     1      -0.325   1.143  -0.247  0.00  0.00    +0.113 A 
ATOM     38  N   UNL     1      -0.216   2.381   0.273  0.00  0.00    -0.129 NA
ATOM     39  N   UNL     1      -1.379   2.919   0.394  0.00  0.00    -0.064 NA
ENDBRANCH  30  31
ENDBRANCH   2  30
TORSDOF 9
