REMARK  Name = ZINC40919859
REMARK  14 active torsions:
REMARK  status: ('A' for Active; 'I' for Inactive)
REMARK    1  A    between atoms: C_1  and  C_2
REMARK    2  A    between atoms: C_2  and  C_3
REMARK    3  A    between atoms: C_3  and  O_4
REMARK    4  A    between atoms: O_4  and  C_5
REMARK    5  A    between atoms: C_5  and  C_7
REMARK    6  A    between atoms: C_8  and  C_35
REMARK    7  A    between atoms: C_15  and  C_17
REMARK    8  A    between atoms: C_20  and  O_26
REMARK    9  A    between atoms: C_21  and  O_23
REMARK   10  A    between atoms: O_23  and  C_24
REMARK   11  A    between atoms: C_24  and  C_25
REMARK   12  A    between atoms: O_26  and  C_27
REMARK   13  A    between atoms: C_27  and  C_28
REMARK   14  A    between atoms: C_32  and  C_34
REMARK                            x       y       z     vdW  Elec       q    Type
REMARK                         _______ _______ _______ _____ _____    ______ ____
ROOT
ATOM      1  C   UNL     1      -1.031  -4.860  -1.810  0.00  0.00    -0.015 A 
ATOM      2  C   UNL     1      -1.891  -5.452  -2.716  0.00  0.00    +0.010 A 
ATOM      3  C   UNL     1      -1.551  -5.518  -4.054  0.00  0.00    +0.050 A 
ATOM      4  C   UNL     1      -0.346  -4.991  -4.490  0.00  0.00    +0.162 A 
ATOM      5  C   UNL     1       0.519  -4.395  -3.578  0.00  0.00    +0.162 A 
ATOM      6  C   UNL     1       0.170  -4.327  -2.239  0.00  0.00    +0.055 A 
ENDROOT
BRANCH   1  15
ATOM      7  C   UNL     1      -2.692  -4.019  -0.201  0.00  0.00    +0.082 C 
ATOM      8  C   UNL     1      -3.862  -4.597   0.112  0.00  0.00    +0.020 C 
ATOM      9  N   UNL     1      -3.975  -5.946   0.337  0.00  0.00    -0.286 N 
ATOM     10  C   UNL     1      -2.801  -6.669   0.485  0.00  0.00    +0.240 A 
ATOM     11  N   UNL     1      -2.594  -7.884   0.907  0.00  0.00    -0.092 NA
ATOM     12  N   UNL     1      -1.333  -8.155   0.889  0.00  0.00    -0.021 NA
ATOM     13  N   UNL     1      -0.660  -7.139   0.455  0.00  0.00    -0.042 NA
ATOM     14  N   UNL     1      -1.589  -6.139   0.174  0.00  0.00    -0.201 N 
ATOM     15  C   UNL     1      -1.407  -4.790  -0.352  0.00  0.00    +0.181 C 
ATOM     16  C   UNL     1      -5.093  -3.735   0.220  0.00  0.00    +0.061 C 
ATOM     17  H   UNL     1      -4.843  -6.377   0.391  0.00  0.00    +0.155 HD
BRANCH   7  18
ATOM     18  C   UNL     1      -2.665  -2.621  -0.404  0.00  0.00    +0.339 C 
ATOM     19  O   UNL     1      -2.179  -1.892   0.442  0.00  0.00    -0.245 OA
BRANCH  18  20
ATOM     20  O   UNL     1      -3.179  -2.093  -1.535  0.00  0.00    -0.461 OA
BRANCH  20  21
ATOM     21  C   UNL     1      -3.118  -0.672  -1.674  0.00  0.00    +0.232 C 
BRANCH  21  23
ATOM     22  C   UNL     1      -3.678   1.259  -3.157  0.00  0.00    +0.007 C 
ATOM     23  C   UNL     1      -3.743  -0.263  -3.009  0.00  0.00    +0.038 C 
ENDBRANCH  21  23
ENDBRANCH  20  21
ENDBRANCH  18  20
ENDBRANCH   7  18
ENDBRANCH   1  15
BRANCH   5  24
ATOM     24  O   UNL     1       1.703  -3.876  -4.000  0.00  0.00    -0.489 OA
BRANCH  24  25
ATOM     25  C   UNL     1       2.541  -3.279  -3.008  0.00  0.00    +0.226 C 
ATOM     26  C   UNL     1       3.819  -2.755  -3.667  0.00  0.00    +0.048 C 
ENDBRANCH  24  25
ENDBRANCH   5  24
BRANCH   4  27
ATOM     27  O   UNL     1      -0.009  -5.056  -5.806  0.00  0.00    -0.484 OA
BRANCH  27  28
ATOM     28  C   UNL     1      -0.946  -5.682  -6.685  0.00  0.00    +0.264 C 
BRANCH  28  29
ATOM     29  C   UNL     1      -0.406  -5.662  -8.092  0.00  0.00    -0.010 A 
ATOM     30  C   UNL     1      -0.684  -4.593  -8.923  0.00  0.00    +0.007 A 
ATOM     31  C   UNL     1      -0.189  -4.574 -10.213  0.00  0.00    +0.001 A 
ATOM     32  C   UNL     1       0.585  -5.623 -10.673  0.00  0.00    +0.003 A 
ATOM     33  C   UNL     1       0.863  -6.691  -9.841  0.00  0.00    -0.050 A 
ATOM     34  C   UNL     1       0.372  -6.709  -8.549  0.00  0.00    +0.010 A 
ATOM     35  C   UNL     1       1.706  -7.836 -10.342  0.00  0.00    +0.044 C 
ENDBRANCH  28  29
ENDBRANCH  27  28
ENDBRANCH   4  27
TORSDOF 10
