REMARK  Name = ZINC08894031
REMARK  8 active torsions:
REMARK  status: ('A' for Active; 'I' for Inactive)
REMARK    1  A    between atoms: C_1  and  C_2
REMARK    2  A    between atoms: N_7  and  C_10
REMARK    3  A    between atoms: C_10  and  C_12
REMARK    4  A    between atoms: C_10  and  C_13
REMARK    5  A    between atoms: N_15  and  C_16
REMARK    6  A    between atoms: C_25  and  C_26
REMARK    7  A    between atoms: C_26  and  O_28
REMARK    8  A    between atoms: O_28  and  C_29
REMARK                            x       y       z     vdW  Elec       q    Type
REMARK                         _______ _______ _______ _____ _____    ______ ____
ROOT
ATOM      1  C   UNL     1      -2.273   0.400  -6.139  0.00  0.00    +0.046 C 
ATOM      2  C   UNL     1      -0.788   0.202  -5.973  0.00  0.00    -0.015 A 
ATOM      3  C   UNL     1      -0.018  -0.253  -7.045  0.00  0.00    +0.076 A 
ATOM      4  C   UNL     1       1.364  -0.406  -6.788  0.00  0.00    +0.116 A 
ATOM      5  N   UNL     1       2.206  -0.830  -7.722  0.00  0.00    -0.230 NA
ATOM      6  C   UNL     1       1.800  -1.128  -8.926  0.00  0.00    +0.204 A 
ATOM      7  N   UNL     1       0.498  -1.021  -9.290  0.00  0.00    -0.287 N 
ATOM      8  C   UNL     1      -0.441  -0.600  -8.420  0.00  0.00    +0.263 A 
ATOM      9  O   UNL     1      -1.608  -0.508  -8.757  0.00  0.00    -0.267 OA
ATOM     10  S   UNL     1       1.522   0.090  -5.092  0.00  0.00    -0.062 S 
ATOM     11  C   UNL     1      -0.193   0.467  -4.773  0.00  0.00    +0.102 A 
ENDROOT
BRANCH   7  12
ATOM     12  C   UNL     1       0.104  -1.370 -10.658  0.00  0.00    +0.174 C 
ATOM     13  C   UNL     1       0.850  -0.473 -11.648  0.00  0.00    +0.041 C 
BRANCH  12  14
ATOM     14  C   UNL     1       0.450  -2.812 -10.927  0.00  0.00    +0.240 C 
ATOM     15  O   UNL     1       0.974  -3.482 -10.062  0.00  0.00    -0.273 OA
ATOM     16  N   UNL     1       0.177  -3.357 -12.129  0.00  0.00    -0.283 N 
ATOM     17  H   UNL     1      -0.313  -2.847 -12.793  0.00  0.00    +0.155 HD
BRANCH  16  18
ATOM     18  C   UNL     1       0.601  -4.659 -12.419  0.00  0.00    +0.053 A 
ATOM     19  C   UNL     1       1.692  -5.200 -11.752  0.00  0.00    +0.044 A 
ATOM     20  C   UNL     1       2.109  -6.486 -12.041  0.00  0.00    +0.043 A 
ATOM     21  C   UNL     1       1.439  -7.234 -12.994  0.00  0.00    +0.021 A 
ATOM     22  C   UNL     1       0.353  -6.698 -13.660  0.00  0.00    +0.023 A 
ATOM     23  C   UNL     1      -0.072  -5.415 -13.372  0.00  0.00    +0.062 A 
ATOM     24 CL   UNL     1      -1.441  -4.745 -14.203  0.00  0.00    -0.082 Cl
ATOM     25 CL   UNL     1       3.472  -7.164 -11.208  0.00  0.00    -0.083 Cl
ENDBRANCH  16  18
ENDBRANCH  12  14
ENDBRANCH   7  12
BRANCH  11  26
ATOM     26  C   UNL     1      -0.808   0.947  -3.534  0.00  0.00    +0.346 C 
ATOM     27  O   UNL     1      -2.005   1.161  -3.492  0.00  0.00    -0.244 OA
BRANCH  26  28
ATOM     28  O   UNL     1      -0.048   1.153  -2.439  0.00  0.00    -0.458 OA
BRANCH  28  29
ATOM     29  C   UNL     1      -0.725   1.630  -1.246  0.00  0.00    +0.177 C 
ATOM     30  C   UNL     1       0.010   1.121  -0.004  0.00  0.00    +0.044 C 
ATOM     31  C   UNL     1      -0.704   1.623   1.252  0.00  0.00    +0.004 C 
ATOM     32  C   UNL     1      -0.713   3.153   1.256  0.00  0.00    +0.000 C 
ATOM     33  C   UNL     1      -1.448   3.662   0.015  0.00  0.00    +0.004 C 
ATOM     34  C   UNL     1      -0.734   3.160  -1.242  0.00  0.00    +0.044 C 
ENDBRANCH  28  29
ENDBRANCH  26  28
ENDBRANCH  11  26
TORSDOF 6
