REMARK  Name = ZINC63941364
REMARK  8 active torsions:
REMARK  status: ('A' for Active; 'I' for Inactive)
REMARK    1  A    between atoms: C_4  and  C_7
REMARK    2  A    between atoms: C_7  and  N_8
REMARK    3  A    between atoms: C_9  and  C_11
REMARK    4  A    between atoms: C_16  and  N_17
REMARK    5  A    between atoms: C_18  and  C_20
REMARK    6  A    between atoms: N_25  and  C_27
REMARK    7  A    between atoms: C_27  and  C_28
REMARK    8  A    between atoms: C_28  and  C_29
REMARK                            x       y       z     vdW  Elec       q    Type
REMARK                         _______ _______ _______ _____ _____    ______ ____
ROOT
ATOM      1  N   UNL     1       7.717  -3.158   2.207  0.00  0.00    -0.285 N 
ATOM      2  C   UNL     1       8.758  -3.963   2.496  0.00  0.00    +0.222 C 
ATOM      3  O   UNL     1       8.969  -4.293   3.644  0.00  0.00    -0.275 OA
ATOM      4  H   UNL     1       7.502  -2.956   1.283  0.00  0.00    +0.155 HD
ENDROOT
BRANCH   1  10
ATOM      5  C   UNL     1       5.571  -2.425   3.060  0.00  0.00    +0.058 A 
ATOM      6  C   UNL     1       4.811  -1.885   4.101  0.00  0.00    +0.015 A 
ATOM      7  C   UNL     1       5.420  -1.539   5.288  0.00  0.00    +0.001 A 
ATOM      8  C   UNL     1       6.783  -1.723   5.455  0.00  0.00    +0.002 A 
ATOM      9  C   UNL     1       7.546  -2.255   4.436  0.00  0.00    +0.024 A 
ATOM     10  C   UNL     1       6.949  -2.615   3.235  0.00  0.00    +0.046 A 
BRANCH   5  12
ATOM     11  N   UNL     1       3.587  -2.709   1.658  0.00  0.00    -0.307 N 
ATOM     12  C   UNL     1       4.926  -2.799   1.787  0.00  0.00    +0.246 C 
ATOM     13  O   UNL     1       5.601  -3.188   0.854  0.00  0.00    -0.270 OA
ATOM     14  H   UNL     1       3.048  -2.398   2.402  0.00  0.00    +0.149 HD
BRANCH  11  15
ATOM     15  C   UNL     1       2.946  -3.080   0.394  0.00  0.00    +0.139 C 
BRANCH  15  19
ATOM     16  C   UNL     1      -1.278  -2.541   0.725  0.00  0.00    +0.000 A 
ATOM     17  C   UNL     1      -0.481  -1.501   0.284  0.00  0.00    +0.000 A 
ATOM     18  C   UNL     1       0.886  -1.675   0.177  0.00  0.00    +0.005 A 
ATOM     19  C   UNL     1       1.456  -2.890   0.511  0.00  0.00    -0.030 A 
ATOM     20  C   UNL     1       0.659  -3.929   0.953  0.00  0.00    +0.005 A 
ATOM     21  C   UNL     1      -0.708  -3.756   1.059  0.00  0.00    +0.000 A 
ENDBRANCH  15  19
ENDBRANCH  11  15
ENDBRANCH   5  12
ENDBRANCH   1  10
BRANCH   2  22
ATOM     22  C   UNL     1       9.660  -4.455   1.393  0.00  0.00    +0.101 C 
ATOM     23  C   UNL     1      10.415  -3.279   0.731  0.00  0.00    +0.110 C 
ATOM     24  C   UNL     1      11.786  -3.841   0.429  0.00  0.00    +0.216 C 
ATOM     25  O   UNL     1      12.588  -3.345  -0.333  0.00  0.00    -0.276 OA
ATOM     26  N   UNL     1      11.986  -4.972   1.128  0.00  0.00    -0.300 N 
ATOM     27  C   UNL     1      10.823  -5.295   1.964  0.00  0.00    +0.121 C 
BRANCH  26  28
ATOM     28  C   UNL     1      13.208  -5.778   1.064  0.00  0.00    +0.112 C 
BRANCH  28  29
ATOM     29  C   UNL     1      14.197  -5.290   2.124  0.00  0.00    +0.052 C 
BRANCH  29  30
ATOM     30  C   UNL     1      15.454  -6.120   2.057  0.00  0.00    -0.040 C 
ATOM     31  C   UNL     1      16.590  -5.822   1.387  0.00  0.00    +0.002 A 
ATOM     32  C   UNL     1      16.980  -4.682   0.550  0.00  0.00    +0.048 A 
ATOM     33  C   UNL     1      18.217  -4.665  -0.002  0.00  0.00    +0.124 A 
ATOM     34  C   UNL     1      19.132  -5.709   0.207  0.00  0.00    +0.040 A 
ATOM     35  C   UNL     1      18.844  -6.790   0.963  0.00  0.00    +0.029 A 
ATOM     36  C   UNL     1      17.573  -6.910   1.591  0.00  0.00    +0.043 A 
ATOM     37  N   UNL     1      17.064  -7.844   2.358  0.00  0.00    -0.380 N 
ATOM     38  C   UNL     1      15.702  -7.450   2.733  0.00  0.00    +0.144 C 
ATOM     39  F   UNL     1      18.579  -3.617  -0.773  0.00  0.00    -0.205 F 
ATOM     40  H   UNL     1      17.515  -8.657   2.635  0.00  0.00    +0.160 HD
ENDBRANCH  29  30
ENDBRANCH  28  29
ENDBRANCH  26  28
ENDBRANCH   2  22
TORSDOF 8
