REMARK  Name = ZINC39781341
REMARK  8 active torsions:
REMARK  status: ('A' for Active; 'I' for Inactive)
REMARK    1  A    between atoms: C_1  and  C_2
REMARK    2  A    between atoms: C_2  and  C_3
REMARK    3  A    between atoms: C_3  and  C_4
REMARK    4  A    between atoms: C_6  and  C_10
REMARK    5  A    between atoms: C_10  and  C_12
REMARK    6  A    between atoms: C_10  and  S_13
REMARK    7  A    between atoms: S_13  and  C_14
REMARK    8  A    between atoms: C_19  and  C_24
REMARK                            x       y       z     vdW  Elec       q    Type
REMARK                         _______ _______ _______ _____ _____    ______ ____
ROOT
ATOM      1  C   UNL     1      -0.745  -5.484   5.414  0.00  0.00    +0.182 C 
ATOM      2  N   UNL     1       0.491  -5.910   5.607  0.00  0.00    -0.151 NA
ATOM      3  C   UNL     1       0.891  -6.459   6.754  0.00  0.00    +0.272 C 
ATOM      4  O   UNL     1       2.041  -6.841   6.899  0.00  0.00    -0.268 OA
ATOM      5  C   UNL     1      -0.107  -6.591   7.856  0.00  0.00    +0.075 C 
ATOM      6  C   UNL     1       0.075  -7.118   9.109  0.00  0.00    -0.015 C 
ATOM      7  C   UNL     1      -1.120  -7.127  10.034  0.00  0.00    +0.112 C 
ATOM      8  S   UNL     1      -2.418  -6.360   8.985  0.00  0.00    -0.100 S 
ATOM      9  C   UNL     1      -1.448  -6.083   7.524  0.00  0.00    +0.112 C 
ATOM     10  N   UNL     1      -1.693  -5.562   6.346  0.00  0.00    -0.217 NA
ENDROOT
BRANCH   6  11
ATOM     11  C   UNL     1       1.371  -7.648   9.532  0.00  0.00    -0.020 A 
ATOM     12  C   UNL     1       1.913  -8.777   8.898  0.00  0.00    +0.011 A 
ATOM     13  C   UNL     1       3.132  -9.269   9.302  0.00  0.00    +0.039 A 
ATOM     14  C   UNL     1       3.827  -8.653  10.334  0.00  0.00    +0.123 A 
ATOM     15  C   UNL     1       3.298  -7.537  10.967  0.00  0.00    +0.039 A 
ATOM     16  C   UNL     1       2.082  -7.027  10.570  0.00  0.00    +0.011 A 
ATOM     17  F   UNL     1       5.024  -9.143  10.725  0.00  0.00    -0.205 F 
ENDBRANCH   6  11
BRANCH   1  18
ATOM     18  S   UNL     1      -1.156  -4.776   3.854  0.00  0.00    -0.081 S 
BRANCH  18  19
ATOM     19  C   UNL     1       0.390  -4.867   2.909  0.00  0.00    +0.103 C 
ATOM     20  C   UNL     1       0.758  -6.333   2.675  0.00  0.00    +0.024 C 
BRANCH  19  23
ATOM     21  C   UNL     1       0.762  -2.018   1.233  0.00  0.00    +0.103 C 
ATOM     22  N   UNL     1      -0.148  -2.755   1.767  0.00  0.00    -0.346 N 
ATOM     23  C   UNL     1       0.206  -4.165   1.562  0.00  0.00    +0.256 C 
ATOM     24  O   UNL     1       1.446  -4.141   0.838  0.00  0.00    -0.247 OA
ATOM     25  N   UNL     1       1.745  -2.767   0.655  0.00  0.00    -0.252 N 
ATOM     26  H   UNL     1       2.524  -2.416   0.194  0.00  0.00    +0.195 HD
ATOM     27  H   UNL     1      -0.938  -2.432   2.228  0.00  0.00    +0.163 HD
BRANCH  21  28
ATOM     28  C   UNL     1       0.742  -0.511   1.242  0.00  0.00    +0.073 C 
BRANCH  28  30
ATOM     29  C   UNL     1      -0.019   1.526   0.010  0.00  0.00    +0.004 C 
ATOM     30  C   UNL     1       0.002  -0.004   0.002  0.00  0.00    +0.004 C 
ENDBRANCH  28  30
ENDBRANCH  21  28
ENDBRANCH  19  23
ENDBRANCH  18  19
ENDBRANCH   1  18
TORSDOF 6
