REMARK  Name = ZINC22429744
REMARK  11 active torsions:
REMARK  status: ('A' for Active; 'I' for Inactive)
REMARK    1  A    between atoms: C_1  and  C_2
REMARK    2  A    between atoms: C_2  and  C_4
REMARK    3  A    between atoms: C_2  and  N_12
REMARK    4  A    between atoms: C_7  and  O_10
REMARK    5  A    between atoms: O_10  and  C_11
REMARK    6  A    between atoms: C_13  and  C_15
REMARK    7  A    between atoms: C_15  and  N_16
REMARK    8  A    between atoms: N_16  and  C_17
REMARK    9  A    between atoms: N_16  and  S_26
REMARK   10  A    between atoms: C_21  and  N_23
REMARK   11  A    between atoms: S_26  and  C_29
REMARK                            x       y       z     vdW  Elec       q    Type
REMARK                         _______ _______ _______ _____ _____    ______ ____
ROOT
ATOM      1  N   UNL     1       2.401   1.063  -0.025  0.00  0.00    -0.194 N 
ENDROOT
BRANCH   1   2
ATOM      2  C   UNL     1       2.877   0.546   1.182  0.00  0.00    +0.054 A 
ATOM      3  C   UNL     1       4.215   0.196   1.310  0.00  0.00    +0.025 A 
ATOM      4  C   UNL     1       4.684  -0.311   2.505  0.00  0.00    +0.004 A 
ATOM      5  C   UNL     1       3.820  -0.480   3.572  0.00  0.00    +0.033 A 
ATOM      6  C   UNL     1       2.486  -0.138   3.447  0.00  0.00    +0.128 A 
ATOM      7  C   UNL     1       2.012   0.375   2.255  0.00  0.00    +0.057 A 
BRANCH   6   8
ATOM      8  N   UNL     1       1.565  -0.321   4.591  0.00  0.00    +0.056 N 
ATOM      9  O   UNL     1       0.390  -0.020   4.482  0.00  0.00    -0.126 OA
ATOM     10  O   UNL     1       1.983  -0.773   5.643  0.00  0.00    -0.126 OA
ENDBRANCH   6   8
ENDBRANCH   1   2
BRANCH   1  11
ATOM     11  S   UNL     1       2.565   0.190  -1.422  0.00  0.00    +0.075 S 
ATOM     12  O   UNL     1       2.816  -1.153  -1.035  0.00  0.00    -0.150 OA
ATOM     13  O   UNL     1       1.473   0.551  -2.257  0.00  0.00    -0.150 OA
BRANCH  11  14
ATOM     14  C   UNL     1       4.024   0.763  -2.226  0.00  0.00    +0.109 A 
ATOM     15  C   UNL     1       3.972   1.879  -3.041  0.00  0.00    +0.029 A 
ATOM     16  C   UNL     1       5.118   2.332  -3.667  0.00  0.00    +0.002 A 
ATOM     17  C   UNL     1       6.314   1.662  -3.488  0.00  0.00    +0.000 A 
ATOM     18  C   UNL     1       6.365   0.543  -2.678  0.00  0.00    +0.002 A 
ATOM     19  C   UNL     1       5.220   0.094  -2.047  0.00  0.00    +0.029 A 
ENDBRANCH  11  14
ENDBRANCH   1  11
BRANCH   1  20
ATOM     20  C   UNL     1       1.756   2.379  -0.054  0.00  0.00    +0.227 C 
BRANCH  20  22
ATOM     21  N   UNL     1      -0.502   3.316   0.321  0.00  0.00    -0.307 N 
ATOM     22  C   UNL     1       0.297   2.231   0.292  0.00  0.00    +0.233 C 
ATOM     23  O   UNL     1      -0.160   1.135   0.538  0.00  0.00    -0.274 OA
ATOM     24  H   UNL     1      -0.088   4.310   0.098  0.00  0.00    +0.149 HD
BRANCH  21  26
ATOM     25  C   UNL     1      -2.096   3.183   2.172  0.00  0.00    +0.033 C 
ATOM     26  C   UNL     1      -1.922   3.171   0.652  0.00  0.00    +0.100 C 
BRANCH  26  27
ATOM     27  C   UNL     1      -2.697   4.314   0.048  0.00  0.00    -0.027 A 
ATOM     28  C   UNL     1      -2.170   5.593   0.070  0.00  0.00    +0.009 A 
ATOM     29  C   UNL     1      -2.876   6.641  -0.487  0.00  0.00    +0.046 A 
ATOM     30  C   UNL     1      -4.120   6.413  -1.058  0.00  0.00    +0.120 A 
ATOM     31  C   UNL     1      -4.649   5.130  -1.074  0.00  0.00    +0.046 A 
ATOM     32  C   UNL     1      -3.936   4.084  -0.520  0.00  0.00    +0.009 A 
BRANCH  30  33
ATOM     33  O   UNL     1      -4.819   7.444  -1.602  0.00  0.00    -0.495 OA
ATOM     34  C   UNL     1      -4.213   8.737  -1.550  0.00  0.00    +0.277 C 
ENDBRANCH  30  33
ENDBRANCH  26  27
ENDBRANCH  21  26
ENDBRANCH  20  22
ENDBRANCH   1  20
TORSDOF 9
