REMARK  Name = ZINC38688983
REMARK  11 active torsions:
REMARK  status: ('A' for Active; 'I' for Inactive)
REMARK    1  A    between atoms: C_1  and  C_2
REMARK    2  A    between atoms: C_2  and  O_3
REMARK    3  A    between atoms: O_3  and  C_4
REMARK    4  A    between atoms: C_9  and  C_27
REMARK    5  A    between atoms: C_11  and  N_14
REMARK    6  A    between atoms: C_15  and  C_17
REMARK    7  A    between atoms: C_17  and  N_18
REMARK    8  A    between atoms: C_21  and  C_24
REMARK    9  A    between atoms: C_27  and  O_29
REMARK   10  A    between atoms: O_29  and  C_30
REMARK   11  A    between atoms: C_30  and  C_31
REMARK                            x       y       z     vdW  Elec       q    Type
REMARK                         _______ _______ _______ _____ _____    ______ ____
ROOT
ATOM      1  C   UNL     1      -0.114  -3.029   0.138  0.00  0.00    +0.121 A 
ATOM      2  C   UNL     1      -0.452  -4.282  -0.391  0.00  0.00    +0.047 A 
ATOM      3  C   UNL     1       0.001  -5.435   0.158  0.00  0.00    +0.029 A 
ATOM      4  C   UNL     1       0.842  -5.393   1.301  0.00  0.00    +0.045 A 
ATOM      5  N   UNL     1       1.402  -6.355   2.007  0.00  0.00    -0.367 N 
ATOM      6  C   UNL     1       2.181  -5.757   3.096  0.00  0.00    +0.234 C 
ATOM      7  C   UNL     1       2.016  -4.261   2.954  0.00  0.00    +0.053 C 
ATOM      8  C   UNL     1       1.197  -4.075   1.855  0.00  0.00    +0.021 A 
ATOM      9  C   UNL     1       0.692  -2.910   1.226  0.00  0.00    +0.057 A 
ATOM     10  H   UNL     1       1.313  -7.305   1.834  0.00  0.00    +0.161 HD
ENDROOT
BRANCH   7  11
ATOM     11  N   UNL     1       2.561  -3.294   3.747  0.00  0.00    -0.288 N 
ATOM     12  C   UNL     1       3.220  -3.637   4.872  0.00  0.00    +0.200 C 
ATOM     13  O   UNL     1       3.413  -4.806   5.129  0.00  0.00    -0.278 OA
ATOM     14  H   UNL     1       2.475  -2.360   3.501  0.00  0.00    +0.155 HD
BRANCH  12  15
ATOM     15  C   UNL     1       3.716  -2.567   5.810  0.00  0.00    +0.019 C 
BRANCH  15  16
ATOM     16  N   UNL     1       4.395  -3.194   6.952  0.00  0.00    +0.385 N 
ATOM     17  C   UNL     1       3.426  -3.981   7.724  0.00  0.00    -0.077 C 
ATOM     18  C   UNL     1       4.144  -4.701   8.868  0.00  0.00    -0.006 C 
ATOM     19  C   UNL     1       4.806  -3.665   9.781  0.00  0.00    +0.071 C 
ATOM     20  C   UNL     1       5.759  -2.802   8.950  0.00  0.00    -0.006 C 
ATOM     21  C   UNL     1       4.981  -2.152   7.803  0.00  0.00    -0.077 C 
ATOM     22  H   UNL     1       5.126  -3.802   6.614  0.00  0.00    -0.081 HD
BRANCH  19  23
ATOM     23  C   UNL     1       5.580  -4.370  10.865  0.00  0.00    +0.213 C 
ATOM     24  O   UNL     1       5.601  -5.582  10.904  0.00  0.00    -0.276 OA
ATOM     25  N   UNL     1       6.248  -3.654  11.790  0.00  0.00    -0.329 N 
ATOM     26  H   UNL     1       6.231  -2.684  11.758  0.00  0.00    +0.145 HD
ATOM     27  H   UNL     1       6.747  -4.107  12.488  0.00  0.00    +0.145 HD
ENDBRANCH  19  23
ENDBRANCH  15  16
ENDBRANCH  12  15
ENDBRANCH   7  11
BRANCH   6  28
ATOM     28  C   UNL     1       3.634  -6.135   2.962  0.00  0.00    +0.336 C 
ATOM     29  O   UNL     1       4.157  -6.151   1.873  0.00  0.00    -0.248 OA
BRANCH  28  30
ATOM     30  O   UNL     1       4.347  -6.455   4.054  0.00  0.00    -0.463 OA
BRANCH  30  31
ATOM     31  C   UNL     1       5.719  -6.803   3.853  0.00  0.00    +0.229 C 
ATOM     32  C   UNL     1       6.363  -7.135   5.201  0.00  0.00    +0.048 C 
ENDBRANCH  30  31
ENDBRANCH  28  30
ENDBRANCH   6  28
BRANCH   1  33
ATOM     33  O   UNL     1      -0.598  -1.905  -0.456  0.00  0.00    -0.492 OA
BRANCH  33  35
ATOM     34  C   UNL     1      -1.884  -0.719  -2.123  0.00  0.00    +0.048 C 
ATOM     35  C   UNL     1      -1.440  -2.085  -1.596  0.00  0.00    +0.225 C 
ENDBRANCH  33  35
ENDBRANCH   1  33
TORSDOF 9
