REMARK  Name = ZINC09533399
REMARK  8 active torsions:
REMARK  status: ('A' for Active; 'I' for Inactive)
REMARK    1  A    between atoms: C_1  and  C_2
REMARK    2  A    between atoms: N_13  and  C_26
REMARK    3  A    between atoms: C_14  and  S_16
REMARK    4  A    between atoms: S_16  and  C_17
REMARK    5  A    between atoms: C_17  and  C_19
REMARK    6  A    between atoms: C_17  and  C_20
REMARK    7  A    between atoms: N_22  and  C_23
REMARK    8  A    between atoms: C_26  and  C_27
REMARK                            x       y       z     vdW  Elec       q    Type
REMARK                         _______ _______ _______ _____ _____    ______ ____
ROOT
ATOM      1  C   UNL     1       0.139   7.778  -0.054  0.00  0.00    +0.008 C 
ATOM      2  C   UNL     1       0.465   6.314  -0.353  0.00  0.00    -0.009 C 
ATOM      3  C   UNL     1       1.682   5.880   0.470  0.00  0.00    +0.008 C 
ATOM      4  C   UNL     1       2.164   4.508   0.000  0.00  0.00    +0.037 C 
ATOM      5  C   UNL     1       0.984   3.540   0.009  0.00  0.00    -0.023 A 
ATOM      6  C   UNL     1      -0.283   4.000   0.024  0.00  0.00    -0.004 A 
ATOM      7  S   UNL     1      -1.300   2.549   0.035  0.00  0.00    -0.073 S 
ATOM      8  C   UNL     1      -0.016   1.324   0.009  0.00  0.00    +0.117 A 
ATOM      9  C   UNL     1       1.163   2.087   0.002  0.00  0.00    +0.076 A 
ATOM     10  C   UNL     1       2.387   1.345  -0.011  0.00  0.00    +0.264 A 
ATOM     11  O   UNL     1       3.460   1.923  -0.017  0.00  0.00    -0.267 OA
ATOM     12  N   UNL     1       2.336   0.000  -0.018  0.00  0.00    -0.280 N 
ATOM     13  C   UNL     1       1.143  -0.663  -0.011  0.00  0.00    +0.174 A 
ATOM     14  N   UNL     1       0.002  -0.004   0.002  0.00  0.00    -0.216 NA
ATOM     15  C   UNL     1      -0.730   5.431   0.033  0.00  0.00    +0.046 C 
ENDROOT
BRANCH  13  16
ATOM     16  S   UNL     1       1.129  -2.425  -0.021  0.00  0.00    -0.075 S 
BRANCH  16  17
ATOM     17  C   UNL     1      -0.656  -2.725  -0.007  0.00  0.00    +0.137 C 
ATOM     18  C   UNL     1      -1.249  -2.215   1.308  0.00  0.00    +0.029 C 
BRANCH  17  19
ATOM     19  C   UNL     1      -0.918  -4.204  -0.136  0.00  0.00    +0.226 C 
ATOM     20  O   UNL     1      -0.076  -5.002   0.217  0.00  0.00    -0.275 OA
ATOM     21  N   UNL     1      -2.088  -4.639  -0.644  0.00  0.00    -0.312 N 
ATOM     22  H   UNL     1      -2.762  -4.000  -0.927  0.00  0.00    +0.149 HD
BRANCH  21  23
ATOM     23  C   UNL     1      -2.343  -6.076  -0.770  0.00  0.00    +0.073 C 
ATOM     24  C   UNL     1      -2.979  -6.569  -2.071  0.00  0.00    +0.024 C 
ATOM     25  C   UNL     1      -3.802  -6.536  -0.781  0.00  0.00    +0.024 C 
ENDBRANCH  21  23
ENDBRANCH  17  19
ENDBRANCH  16  17
ENDBRANCH  13  16
BRANCH  12  26
ATOM     26  C   UNL     1       3.584  -0.766  -0.031  0.00  0.00    +0.201 C 
BRANCH  26  27
ATOM     27  C   UNL     1       4.001  -1.022  -1.457  0.00  0.00    +0.125 A 
ATOM     28  C   UNL     1       4.785  -0.223  -2.203  0.00  0.00    +0.046 A 
ATOM     29  C   UNL     1       4.919  -0.844  -3.466  0.00  0.00    +0.041 A 
ATOM     30  C   UNL     1       4.202  -1.981  -3.419  0.00  0.00    +0.195 A 
ATOM     31  O   UNL     1       3.648  -2.084  -2.200  0.00  0.00    -0.466 OA
ENDBRANCH  26  27
ENDBRANCH  12  26
TORSDOF 6
