REMARK  Name = ZINC36051931
REMARK  13 active torsions:
REMARK  status: ('A' for Active; 'I' for Inactive)
REMARK    1  A    between atoms: C_1  and  C_2
REMARK    2  A    between atoms: C_2  and  C_3
REMARK    3  A    between atoms: C_2  and  C_4
REMARK    4  A    between atoms: C_4  and  C_5
REMARK    5  A    between atoms: N_7  and  C_8
REMARK    6  A    between atoms: N_7  and  C_15
REMARK    7  A    between atoms: C_8  and  C_9
REMARK    8  A    between atoms: C_15  and  C_16
REMARK    9  A    between atoms: C_16  and  N_18
REMARK   10  A    between atoms: C_21  and  C_31
REMARK   11  A    between atoms: N_23  and  C_24
REMARK   12  A    between atoms: C_34  and  O_37
REMARK   13  A    between atoms: O_37  and  C_38
REMARK                            x       y       z     vdW  Elec       q    Type
REMARK                         _______ _______ _______ _____ _____    ______ ____
ROOT
ATOM      1  N   UNL     1       4.082  -0.705   4.049  0.00  0.00    -0.145 NA
ATOM      2  C   UNL     1       5.099   0.152   4.149  0.00  0.00    +0.205 A 
ATOM      3  N   UNL     1       5.004   1.507   4.147  0.00  0.00    -0.326 N 
ATOM      4  C   UNL     1       6.287   2.024   4.271  0.00  0.00    +0.066 A 
ATOM      5  C   UNL     1       7.144   0.990   4.346  0.00  0.00    +0.120 A 
ATOM      6  N   UNL     1       6.412  -0.178   4.276  0.00  0.00    -0.287 N 
ATOM      7  H   UNL     1       4.185   2.022   4.073  0.00  0.00    +0.169 HD
ENDROOT
BRANCH   6   8
ATOM      8  C   UNL     1       6.932  -1.479   4.324  0.00  0.00    +0.049 A 
ATOM      9  C   UNL     1       6.080  -2.572   4.234  0.00  0.00    +0.029 A 
ATOM     10  C   UNL     1       6.595  -3.852   4.282  0.00  0.00    +0.040 A 
ATOM     11  C   UNL     1       7.959  -4.047   4.420  0.00  0.00    +0.124 A 
ATOM     12  C   UNL     1       8.810  -2.958   4.510  0.00  0.00    +0.040 A 
ATOM     13  C   UNL     1       8.300  -1.676   4.457  0.00  0.00    +0.029 A 
ATOM     14  F   UNL     1       8.460  -5.301   4.468  0.00  0.00    -0.205 F 
ENDBRANCH   6   8
BRANCH   4  15
ATOM     15  C   UNL     1       6.648   3.459   4.312  0.00  0.00    +0.000 A 
ATOM     16  C   UNL     1       7.984   3.841   4.434  0.00  0.00    +0.013 A 
ATOM     17  C   UNL     1       8.316   5.178   4.471  0.00  0.00    +0.046 A 
ATOM     18  C   UNL     1       7.323   6.145   4.389  0.00  0.00    +0.120 A 
ATOM     19  C   UNL     1       5.992   5.769   4.269  0.00  0.00    +0.046 A 
ATOM     20  C   UNL     1       5.653   4.433   4.223  0.00  0.00    +0.013 A 
BRANCH  18  21
ATOM     21  O   UNL     1       7.654   7.462   4.427  0.00  0.00    -0.495 OA
ATOM     22  C   UNL     1       6.582   8.403   4.338  0.00  0.00    +0.277 C 
ENDBRANCH  18  21
ENDBRANCH   4  15
BRANCH   1  23
ATOM     23  C   UNL     1       2.840  -0.250   3.929  0.00  0.00    +0.256 C 
ATOM     24  O   UNL     1       2.630   0.948   3.910  0.00  0.00    -0.272 OA
BRANCH  23  25
ATOM     25  C   UNL     1       1.691  -1.218   3.817  0.00  0.00    +0.205 C 
BRANCH  25  28
ATOM     26  C   UNL     1      -0.030  -0.130   2.478  0.00  0.00    +0.216 C 
ATOM     27  O   UNL     1      -1.069   0.487   2.378  0.00  0.00    -0.276 OA
ATOM     28  N   UNL     1       0.435  -0.473   3.696  0.00  0.00    -0.290 N 
BRANCH  26  29
ATOM     29  C   UNL     1       0.742  -0.511   1.242  0.00  0.00    +0.099 C 
BRANCH  29  31
ATOM     30  C   UNL     1      -0.019   1.526   0.010  0.00  0.00    +0.008 C 
ATOM     31  C   UNL     1       0.002  -0.004   0.002  0.00  0.00    -0.008 C 
ATOM     32  C   UNL     1       0.718  -0.497  -1.257  0.00  0.00    +0.008 C 
ENDBRANCH  29  31
ENDBRANCH  26  29
BRANCH  28  33
ATOM     33  C   UNL     1      -0.315  -0.103   4.898  0.00  0.00    +0.139 C 
BRANCH  33  34
ATOM     34  C   UNL     1      -1.306  -1.216   5.244  0.00  0.00    +0.136 C 
ATOM     35  C   UNL     1      -2.185  -0.782   6.438  0.00  0.00    +0.035 C 
ATOM     36  C   UNL     1      -2.304  -2.098   7.254  0.00  0.00    +0.031 C 
ATOM     37  C   UNL     1      -0.913  -2.731   6.997  0.00  0.00    +0.160 C 
ATOM     38  O   UNL     1      -0.594  -2.396   5.635  0.00  0.00    -0.375 OA
ENDBRANCH  33  34
ENDBRANCH  28  33
ENDBRANCH  25  28
ENDBRANCH  23  25
ENDBRANCH   1  23
TORSDOF 10
