REMARK  Name = ZINC13387913
REMARK  6 active torsions:
REMARK  status: ('A' for Active; 'I' for Inactive)
REMARK    1  A    between atoms: C_1  and  C_2
REMARK    2  A    between atoms: C_5  and  C_8
REMARK    3  A    between atoms: C_11  and  C_34
REMARK    4  A    between atoms: C_16  and  C_18
REMARK    5  A    between atoms: N_23  and  C_26
REMARK    6  A    between atoms: C_26  and  C_27
REMARK                            x       y       z     vdW  Elec       q    Type
REMARK                         _______ _______ _______ _____ _____    ______ ____
ROOT
ATOM      1  C   UNL     1       0.006  -4.247   0.003  0.00  0.00    +0.104 C 
ATOM      2  C   UNL     1       1.392  -4.897  -0.058  0.00  0.00    +0.063 C 
ATOM      3  C   UNL     1       1.251  -6.417  -0.208  0.00  0.00    +0.215 C 
ATOM      4  N   UNL     1       0.316  -6.908   0.808  0.00  0.00    -0.238 N 
ATOM      5  C   UNL     1      -0.582  -6.112   1.460  0.00  0.00    +0.119 A 
ATOM      6  C   UNL     1      -1.276  -6.880   2.322  0.00  0.00    +0.078 A 
ATOM      7  C   UNL     1      -0.793  -8.203   2.200  0.00  0.00    +0.149 A 
ATOM      8  N   UNL     1       0.163  -8.209   1.287  0.00  0.00    -0.164 NA
ATOM      9  N   UNL     1      -0.696  -4.741   1.204  0.00  0.00    -0.322 N 
ATOM     10  H   UNL     1      -1.202  -4.150   1.783  0.00  0.00    +0.148 HD
ENDROOT
BRANCH   7  11
ATOM     11  C   UNL     1      -1.273  -9.375   2.960  0.00  0.00    +0.267 C 
ATOM     12  O   UNL     1      -2.246  -9.275   3.681  0.00  0.00    -0.268 OA
ATOM     13  N   UNL     1      -0.631 -10.556   2.853  0.00  0.00    -0.294 N 
ATOM     14  C   UNL     1      -1.179 -11.771   3.475  0.00  0.00    +0.123 C 
ATOM     15  C   UNL     1      -0.078 -12.426   4.316  0.00  0.00    +0.103 C 
ATOM     16  N   UNL     1       1.111 -12.638   3.480  0.00  0.00    -0.295 NA
ATOM     17  C   UNL     1       1.664 -11.362   3.008  0.00  0.00    +0.103 C 
ATOM     18  C   UNL     1       0.632 -10.664   2.108  0.00  0.00    +0.123 C 
BRANCH  16  19
ATOM     19  C   UNL     1       2.127 -13.418   4.199  0.00  0.00    +0.119 C 
BRANCH  19  20
ATOM     20  C   UNL     1       3.219 -13.824   3.243  0.00  0.00    -0.033 A 
ATOM     21  C   UNL     1       3.121 -15.015   2.548  0.00  0.00    +0.005 A 
ATOM     22  C   UNL     1       4.122 -15.388   1.671  0.00  0.00    +0.000 A 
ATOM     23  C   UNL     1       5.221 -14.569   1.487  0.00  0.00    +0.000 A 
ATOM     24  C   UNL     1       5.318 -13.377   2.181  0.00  0.00    +0.000 A 
ATOM     25  C   UNL     1       4.315 -13.003   3.055  0.00  0.00    +0.005 A 
ENDBRANCH  19  20
ENDBRANCH  16  19
ENDBRANCH   7  11
BRANCH   1  30
ATOM     26  C   UNL     1       0.563   1.496   0.306  0.00  0.00    +0.044 C 
ATOM     27  C   UNL     1       0.418  -0.002   0.227  0.00  0.00    -0.050 A 
ATOM     28  C   UNL     1       0.116  -0.604  -0.980  0.00  0.00    +0.004 A 
ATOM     29  C   UNL     1      -0.017  -1.978  -1.053  0.00  0.00    +0.006 A 
ATOM     30  C   UNL     1       0.152  -2.750   0.082  0.00  0.00    -0.027 A 
ATOM     31  C   UNL     1       0.455  -2.147   1.288  0.00  0.00    +0.006 A 
ATOM     32  C   UNL     1       0.592  -0.774   1.360  0.00  0.00    +0.004 A 
ENDBRANCH   1  30
BRANCH   3  33
ATOM     33  C   UNL     1       2.616  -7.080  -0.016  0.00  0.00    +0.412 C 
ATOM     34  F   UNL     1       3.104  -6.782   1.261  0.00  0.00    -0.168 F 
ATOM     35  F   UNL     1       2.485  -8.466  -0.153  0.00  0.00    -0.168 F 
ATOM     36  F   UNL     1       3.508  -6.599  -0.980  0.00  0.00    -0.168 F 
ENDBRANCH   3  33
TORSDOF 5
