REMARK  Name = ZINC20113183
REMARK  9 active torsions:
REMARK  status: ('A' for Active; 'I' for Inactive)
REMARK    1  A    between atoms: C_1  and  C_2
REMARK    2  A    between atoms: C_6  and  C_30
REMARK    3  A    between atoms: C_7  and  O_8
REMARK    4  A    between atoms: O_8  and  C_9
REMARK    5  A    between atoms: C_9  and  C_11
REMARK    6  A    between atoms: C_9  and  C_12
REMARK    7  A    between atoms: N_14  and  C_15
REMARK    8  A    between atoms: C_19  and  C_21
REMARK    9  A    between atoms: C_26  and  C_29
REMARK                            x       y       z     vdW  Elec       q    Type
REMARK                         _______ _______ _______ _____ _____    ______ ____
ROOT
ATOM      1  C   UNL     1      -1.344   6.206  -0.887  0.00  0.00    +0.258 C 
ATOM      2  O   UNL     1      -1.846   5.521  -0.021  0.00  0.00    -0.271 OA
ATOM      3  N   UNL     1      -0.306   5.733  -1.604  0.00  0.00    -0.282 N 
ATOM      4  H   UNL     1       0.197   6.381  -2.337  0.00  0.00    +0.155 HD
ENDROOT
BRANCH   3   5
ATOM      5  C   UNL     1       0.133   4.418  -1.416  0.00  0.00    +0.034 A 
ATOM      6  C   UNL     1       1.480   4.108  -1.555  0.00  0.00    +0.023 A 
ATOM      7  C   UNL     1       1.918   2.810  -1.370  0.00  0.00    +0.003 A 
ATOM      8  C   UNL     1       1.020   1.813  -1.048  0.00  0.00    +0.013 A 
ATOM      9  C   UNL     1      -0.336   2.112  -0.912  0.00  0.00    +0.039 A 
ATOM     10  C   UNL     1      -0.777   3.423  -1.093  0.00  0.00    +0.036 A 
BRANCH   9  11
ATOM     11  C   UNL     1      -1.301   1.045  -0.573  0.00  0.00    +0.247 C 
ATOM     12  O   UNL     1      -2.189   1.261   0.230  0.00  0.00    -0.270 OA
ATOM     13  N   UNL     1      -1.198  -0.167  -1.153  0.00  0.00    -0.298 N 
ATOM     14  C   UNL     1      -0.079  -0.471  -2.055  0.00  0.00    +0.108 C 
ATOM     15  C   UNL     1      -0.635  -0.986  -3.382  0.00  0.00    +0.022 C 
ATOM     16  C   UNL     1      -1.568  -2.170  -3.115  0.00  0.00    -0.011 C 
ATOM     17  C   UNL     1      -2.740  -1.712  -2.243  0.00  0.00    +0.022 C 
ATOM     18  C   UNL     1      -2.204  -1.207  -0.900  0.00  0.00    +0.108 C 
ATOM     19  C   UNL     1      -2.102  -2.707  -4.445  0.00  0.00    +0.007 C 
ENDBRANCH   9  11
ENDBRANCH   3   5
BRANCH   1  20
ATOM     20  C   UNL     1      -1.882   7.587  -1.160  0.00  0.00    +0.256 C 
ATOM     21  C   UNL     1      -2.480   7.632  -2.568  0.00  0.00    +0.062 C 
BRANCH  20  22
ATOM     22  O   UNL     1      -2.895   7.902  -0.203  0.00  0.00    -0.479 OA
BRANCH  22  29
ATOM     23  C   UNL     1      -1.131   8.728   1.843  0.00  0.00    +0.047 C 
ATOM     24  C   UNL     1      -2.133   9.658   1.210  0.00  0.00    -0.007 A 
ATOM     25  C   UNL     1      -2.212  10.974   1.623  0.00  0.00    +0.022 A 
ATOM     26  C   UNL     1      -3.136  11.827   1.047  0.00  0.00    +0.019 A 
ATOM     27  C   UNL     1      -3.979  11.366   0.052  0.00  0.00    +0.022 A 
ATOM     28  C   UNL     1      -3.901  10.052  -0.368  0.00  0.00    -0.007 A 
ATOM     29  C   UNL     1      -2.974   9.195   0.209  0.00  0.00    +0.127 A 
ATOM     30  C   UNL     1      -4.819   9.550  -1.452  0.00  0.00    +0.047 C 
ATOM     31 BR   UNL     1      -3.247  13.626   1.619  0.00  0.00    -0.050 Br
ENDBRANCH  22  29
ENDBRANCH  20  22
ENDBRANCH   1  20
TORSDOF 5
