REMARK  Name = ZINC63807206
REMARK  8 active torsions:
REMARK  status: ('A' for Active; 'I' for Inactive)
REMARK    1  A    between atoms: C_1  and  C_2
REMARK    2  A    between atoms: C_2  and  C_3
REMARK    3  A    between atoms: C_2  and  C_4
REMARK    4  A    between atoms: C_9  and  C_13
REMARK    5  A    between atoms: C_13  and  S_14
REMARK    6  A    between atoms: S_14  and  C_15
REMARK    7  A    between atoms: C_15  and  C_16
REMARK    8  A    between atoms: N_18  and  C_19
REMARK                            x       y       z     vdW  Elec       q    Type
REMARK                         _______ _______ _______ _____ _____    ______ ____
ROOT
ATOM      1  S   UNL     1       5.686  -1.507   5.730  0.00  0.00    -0.144 S 
ENDROOT
BRANCH   1   2
ATOM      2  C   UNL     1       4.166  -2.373   6.210  0.00  0.00    +0.143 C 
BRANCH   2   8
ATOM      3  C   UNL     1       0.731  -0.503   1.223  0.00  0.00    -0.005 A 
ATOM      4  C   UNL     1       0.267  -1.294   2.204  0.00  0.00    +0.027 A 
ATOM      5  C   UNL     1       1.148  -1.656   3.298  0.00  0.00    +0.072 A 
ATOM      6  C   UNL     1       0.886  -2.476   4.444  0.00  0.00    +0.260 A 
ATOM      7  N   UNL     1       1.869  -2.677   5.340  0.00  0.00    -0.310 N 
ATOM      8  C   UNL     1       3.097  -2.120   5.179  0.00  0.00    +0.121 A 
ATOM      9  N   UNL     1       3.368  -1.368   4.145  0.00  0.00    -0.226 NA
ATOM     10  C   UNL     1       2.448  -1.123   3.217  0.00  0.00    +0.116 A 
ATOM     11  S   UNL     1       2.418  -0.192   1.707  0.00  0.00    -0.073 S 
ATOM     12  O   UNL     1      -0.211  -2.983   4.604  0.00  0.00    -0.267 OA
ATOM     13  H   UNL     1       1.698  -3.231   6.118  0.00  0.00    +0.170 HD
BRANCH   3  15
ATOM     14  C   UNL     1      -0.019   1.526   0.010  0.00  0.00    +0.013 C 
ATOM     15  C   UNL     1       0.002  -0.004   0.002  0.00  0.00    +0.020 C 
ATOM     16  C   UNL     1       0.718  -0.497  -1.257  0.00  0.00    +0.013 C 
ENDBRANCH   3  15
ENDBRANCH   2   8
ENDBRANCH   1   2
BRANCH   1  17
ATOM     17  C   UNL     1       6.857  -1.909   7.056  0.00  0.00    +0.165 C 
BRANCH  17  18
ATOM     18  C   UNL     1       8.180  -1.242   6.777  0.00  0.00    +0.226 C 
ATOM     19  O   UNL     1       8.319  -0.564   5.781  0.00  0.00    -0.275 OA
ATOM     20  N   UNL     1       9.209  -1.401   7.633  0.00  0.00    -0.278 N 
ATOM     21  H   UNL     1       9.097  -1.944   8.429  0.00  0.00    +0.152 HD
BRANCH  20  22
ATOM     22  C   UNL     1      10.494  -0.753   7.362  0.00  0.00    +0.269 C 
ATOM     23  N   UNL     1      11.233  -1.508   6.342  0.00  0.00    -0.348 N 
ATOM     24  C   UNL     1      12.349  -1.905   6.882  0.00  0.00    +0.061 A 
ATOM     25  C   UNL     1      13.484  -2.687   6.372  0.00  0.00    +0.027 A 
ATOM     26  C   UNL     1      14.528  -2.950   7.182  0.00  0.00    +0.002 A 
ATOM     27  C   UNL     1      14.585  -2.505   8.515  0.00  0.00    +0.002 A 
ATOM     28  C   UNL     1      13.599  -1.782   9.082  0.00  0.00    +0.027 A 
ATOM     29  C   UNL     1      12.409  -1.433   8.293  0.00  0.00    +0.061 A 
ATOM     30  N   UNL     1      11.329  -0.763   8.570  0.00  0.00    -0.348 N 
ATOM     31  H   UNL     1      10.943  -1.680   5.433  0.00  0.00    +0.163 HD
ATOM     32  H   UNL     1      11.114  -0.346   9.419  0.00  0.00    +0.163 HD
ENDBRANCH  20  22
ENDBRANCH  17  18
ENDBRANCH   1  17
TORSDOF 6
