REMARK  Name = ZINC40812401
REMARK  4 active torsions:
REMARK  status: ('A' for Active; 'I' for Inactive)
REMARK    1  A    between atoms: C_1  and  C_2
REMARK    2  A    between atoms: C_6  and  C_7
REMARK    3  A    between atoms: N_20  and  N_21
REMARK    4  A    between atoms: C_22  and  C_24
REMARK                            x       y       z     vdW  Elec       q    Type
REMARK                         _______ _______ _______ _____ _____    ______ ____
ROOT
ATOM      1  C   UNL     1       0.482   1.460   0.018  0.00  0.00    +0.048 C 
ATOM      2  C   UNL     1       0.205  -0.022   0.005  0.00  0.00    +0.009 A 
ATOM      3  C   UNL     1       0.103  -0.848  -1.121  0.00  0.00    +0.042 A 
ATOM      4  C   UNL     1      -0.157  -2.122  -0.675  0.00  0.00    +0.115 A 
ATOM      5  O   UNL     1      -0.211  -2.090   0.654  0.00  0.00    -0.454 OA
ATOM      6  C   UNL     1       0.010  -0.829   1.091  0.00  0.00    +0.193 A 
ATOM      7  C   UNL     1      -0.339  -3.295  -1.605  0.00  0.00    +0.075 C 
ATOM      8  C   UNL     1      -0.700  -2.785  -3.002  0.00  0.00    +0.014 C 
ATOM      9  C   UNL     1       0.321  -1.747  -3.479  0.00  0.00    +0.058 C 
ATOM     10  C   UNL     1       0.233  -0.536  -2.562  0.00  0.00    +0.070 C 
ATOM     11  N   UNL     1       0.267   0.681  -3.010  0.00  0.00    -0.184 NA
ENDROOT
BRANCH   6  12
ATOM     12  C   UNL     1       0.032  -0.399   2.493  0.00  0.00    +0.282 C 
ATOM     13  O   UNL     1       0.122   0.783   2.766  0.00  0.00    -0.267 OA
ATOM     14  N   UNL     1      -0.048  -1.314   3.480  0.00  0.00    -0.295 N 
ATOM     15  C   UNL     1      -0.023  -2.716   3.128  0.00  0.00    +0.108 C 
ATOM     16  C   UNL     1      -1.467  -3.213   2.870  0.00  0.00    +0.019 C 
ATOM     17  C   UNL     1      -2.215  -3.289   4.134  0.00  0.00    +0.002 C 
ATOM     18  C   UNL     1      -2.397  -1.949   4.839  0.00  0.00    +0.002 C 
ATOM     19  C   UNL     1      -1.181  -1.659   5.684  0.00  0.00    +0.019 C 
ATOM     20  C   UNL     1      -0.150  -0.844   4.875  0.00  0.00    +0.108 C 
ENDBRANCH   6  12
BRANCH  11  21
ATOM     21  N   UNL     1       0.391   0.918  -4.385  0.00  0.00    -0.203 N 
ATOM     22  C   UNL     1       0.427   2.182  -4.851  0.00  0.00    +0.266 C 
ATOM     23  O   UNL     1       0.352   3.118  -4.077  0.00  0.00    -0.268 OA
ATOM     24  H   UNL     1       0.450   0.172  -5.002  0.00  0.00    +0.178 HD
BRANCH  22  25
ATOM     25  C   UNL     1       0.557   2.432  -6.300  0.00  0.00    +0.073 A 
ATOM     26  C   UNL     1       0.637   1.360  -7.192  0.00  0.00    +0.016 A 
ATOM     27  C   UNL     1       0.758   1.600  -8.544  0.00  0.00    +0.001 A 
ATOM     28  C   UNL     1       0.801   2.900  -9.021  0.00  0.00    +0.003 A 
ATOM     29  C   UNL     1       0.723   3.967  -8.146  0.00  0.00    +0.039 A 
ATOM     30  C   UNL     1       0.595   3.742  -6.787  0.00  0.00    +0.136 A 
ATOM     31  F   UNL     1       0.512   4.785  -5.932  0.00  0.00    -0.205 F 
ENDBRANCH  22  25
ENDBRANCH  11  21
TORSDOF 3
