REMARK  Name = ZINC13982330
REMARK  8 active torsions:
REMARK  status: ('A' for Active; 'I' for Inactive)
REMARK    1  A    between atoms: C_1  and  C_2
REMARK    2  A    between atoms: C_2  and  C_3
REMARK    3  A    between atoms: C_2  and  C_4
REMARK    4  A    between atoms: C_6  and  N_12
REMARK    5  A    between atoms: C_7  and  O_11
REMARK    6  A    between atoms: N_13  and  C_14
REMARK    7  A    between atoms: C_17  and  S_20
REMARK    8  A    between atoms: S_20  and  N_23
REMARK                            x       y       z     vdW  Elec       q    Type
REMARK                         _______ _______ _______ _____ _____    ______ ____
ROOT
ATOM      1  C   UNL     1      -3.273  -3.689  -4.028  0.00  0.00    +0.086 A 
ATOM      2  C   UNL     1      -4.586  -4.169  -4.021  0.00  0.00    +0.031 A 
ATOM      3  C   UNL     1      -5.030  -4.966  -5.055  0.00  0.00    +0.030 A 
ATOM      4  C   UNL     1      -4.180  -5.292  -6.097  0.00  0.00    +0.106 A 
ATOM      5  C   UNL     1      -2.879  -4.821  -6.110  0.00  0.00    +0.030 A 
ATOM      6  C   UNL     1      -2.422  -4.018  -5.086  0.00  0.00    +0.031 A 
ENDROOT
BRANCH   4   7
ATOM      7  S   UNL     1      -4.757  -6.312  -7.413  0.00  0.00    +0.061 S 
ATOM      8  O   UNL     1      -3.608  -6.919  -7.989  0.00  0.00    -0.153 OA
ATOM      9  O   UNL     1      -5.840  -7.071  -6.894  0.00  0.00    -0.153 OA
BRANCH   7  10
ATOM     10  N   UNL     1      -5.392  -5.309  -8.568  0.00  0.00    -0.177 NA
ATOM     11  C   UNL     1      -6.810  -4.928  -8.530  0.00  0.00    +0.109 C 
ATOM     12  C   UNL     1      -6.911  -3.400  -8.569  0.00  0.00    +0.017 C 
ATOM     13  C   UNL     1      -6.151  -2.873  -9.789  0.00  0.00    +0.003 C 
ATOM     14  C   UNL     1      -4.674  -3.257  -9.676  0.00  0.00    +0.017 C 
ATOM     15  C   UNL     1      -4.546  -4.779  -9.646  0.00  0.00    +0.109 C 
ENDBRANCH   7  10
ENDBRANCH   4   7
BRANCH   1  17
ATOM     16  N   UNL     1      -3.614  -2.598  -2.030  0.00  0.00    -0.146 NA
ATOM     17  N   UNL     1      -2.826  -2.898  -3.006  0.00  0.00    -0.149 NA
BRANCH  16  20
ATOM     18  C   UNL     1      -1.412  -0.526   0.013  0.00  0.00    -0.041 A 
ATOM     19  C   UNL     1      -1.857  -1.323  -1.020  0.00  0.00    +0.037 A 
ATOM     20  C   UNL     1      -3.168  -1.808  -1.011  0.00  0.00    +0.129 A 
ATOM     21  C   UNL     1      -4.022  -1.478   0.052  0.00  0.00    +0.158 A 
ATOM     22  C   UNL     1      -3.557  -0.675   1.082  0.00  0.00    +0.062 A 
ATOM     23  C   UNL     1      -2.256  -0.206   1.063  0.00  0.00    +0.023 A 
ATOM     24 BR   UNL     1      -4.702  -0.225   2.518  0.00  0.00    -0.046 Br
BRANCH  18  26
ATOM     25  C   UNL     1      -0.019   1.526   0.010  0.00  0.00    +0.012 C 
ATOM     26  C   UNL     1       0.002  -0.004   0.002  0.00  0.00    +0.013 C 
ATOM     27  C   UNL     1       0.742  -0.511   1.242  0.00  0.00    +0.012 C 
ENDBRANCH  18  26
BRANCH  21  28
ATOM     28  O   UNL     1      -5.297  -1.942   0.072  0.00  0.00    -0.504 OA
ATOM     29  H   UNL     1      -5.398  -2.795   0.516  0.00  0.00    +0.292 HD
ENDBRANCH  21  28
ENDBRANCH  16  20
ENDBRANCH   1  17
TORSDOF 6
