REMARK  Name = ZINC00989384
REMARK  12 active torsions:
REMARK  status: ('A' for Active; 'I' for Inactive)
REMARK    1  A    between atoms: C_1  and  C_2
REMARK    2  A    between atoms: C_2  and  C_3
REMARK    3  A    between atoms: C_3  and  C_4
REMARK    4  A    between atoms: C_5  and  C_31
REMARK    5  A    between atoms: C_17  and  C_21
REMARK    6  A    between atoms: C_18  and  N_20
REMARK    7  A    between atoms: C_21  and  O_23
REMARK    8  A    between atoms: O_23  and  C_24
REMARK    9  A    between atoms: C_24  and  C_25
REMARK   10  A    between atoms: C_31  and  O_33
REMARK   11  A    between atoms: O_33  and  C_34
REMARK   12  A    between atoms: C_34  and  C_35
REMARK                            x       y       z     vdW  Elec       q    Type
REMARK                         _______ _______ _______ _____ _____    ______ ____
ROOT
ATOM      1  C   UNL     1       1.566   5.083   1.204  0.00  0.00    +0.119 C 
ATOM      2  C   UNL     1       1.212   3.790   1.189  0.00  0.00    +0.099 C 
ATOM      3  C   UNL     1       0.774   3.128  -0.085  0.00  0.00    +0.145 C 
ATOM      4  C   UNL     1      -0.715   2.889  -0.073  0.00  0.00    -0.001 A 
ATOM      5  C   UNL     1      -1.801   3.731   0.010  0.00  0.00    +0.022 A 
ATOM      6  C   UNL     1      -3.083   3.209  -0.017  0.00  0.00    +0.018 A 
ATOM      7  C   UNL     1      -3.268   1.841  -0.117  0.00  0.00    +0.017 A 
ATOM      8  C   UNL     1      -2.181   0.996  -0.195  0.00  0.00    +0.025 A 
ATOM      9  C   UNL     1      -0.887   1.514  -0.175  0.00  0.00    +0.038 A 
ATOM     10  N   UNL     1       0.352   0.875  -0.239  0.00  0.00    -0.284 N 
ATOM     11  C   UNL     1       1.376   1.746  -0.194  0.00  0.00    +0.237 C 
ATOM     12  O   UNL     1       2.557   1.475  -0.233  0.00  0.00    -0.274 OA
ATOM     13 BR   UNL     1      -4.579   4.361   0.092  0.00  0.00    -0.050 Br
ATOM     14  C   UNL     1       1.163   3.961  -1.272  0.00  0.00    +0.117 C 
ATOM     15  C   UNL     1       1.526   5.261  -1.110  0.00  0.00    +0.195 C 
ATOM     16  O   UNL     1       1.546   5.844   0.100  0.00  0.00    -0.445 OA
ATOM     17  H   UNL     1       0.463  -0.086  -0.313  0.00  0.00    +0.155 HD
ENDROOT
BRANCH  15  18
ATOM     18  N   UNL     1       1.881   5.996  -2.210  0.00  0.00    -0.329 N 
ATOM     19  H   UNL     1       2.220   6.899  -2.101  0.00  0.00    +0.145 HD
ATOM     20  H   UNL     1       1.793   5.615  -3.097  0.00  0.00    +0.145 HD
ENDBRANCH  15  18
BRANCH  14  21
ATOM     21  C   UNL     1       1.153   3.394  -2.556  0.00  0.00    +0.342 C 
ATOM     22  O   UNL     1       0.098   3.232  -3.142  0.00  0.00    -0.245 OA
BRANCH  21  23
ATOM     23  O   UNL     1       2.314   3.029  -3.142  0.00  0.00    -0.456 OA
BRANCH  23  24
ATOM     24  C   UNL     1       2.229   2.458  -4.449  0.00  0.00    +0.268 C 
BRANCH  24  25
ATOM     25  C   UNL     1       3.612   2.115  -4.939  0.00  0.00    -0.010 A 
ATOM     26  C   UNL     1       4.345   3.047  -5.650  0.00  0.00    +0.007 A 
ATOM     27  C   UNL     1       5.615   2.733  -6.095  0.00  0.00    +0.000 A 
ATOM     28  C   UNL     1       6.150   1.485  -5.836  0.00  0.00    +0.000 A 
ATOM     29  C   UNL     1       5.415   0.551  -5.130  0.00  0.00    +0.000 A 
ATOM     30  C   UNL     1       4.146   0.867  -4.680  0.00  0.00    +0.007 A 
ENDBRANCH  24  25
ENDBRANCH  23  24
ENDBRANCH  21  23
ENDBRANCH  14  21
BRANCH   2  31
ATOM     31  C   UNL     1       1.253   3.040   2.390  0.00  0.00    +0.340 C 
ATOM     32  O   UNL     1       0.227   2.823   3.006  0.00  0.00    -0.245 OA
BRANCH  31  33
ATOM     33  O   UNL     1       2.429   2.565   2.849  0.00  0.00    -0.462 OA
BRANCH  33  34
ATOM     34  C   UNL     1       2.396   1.817   4.066  0.00  0.00    +0.229 C 
ATOM     35  C   UNL     1       3.813   1.365   4.426  0.00  0.00    +0.048 C 
ENDBRANCH  33  34
ENDBRANCH  31  33
ENDBRANCH   2  31
BRANCH   1  36
ATOM     36  C   UNL     1       2.003   5.703   2.506  0.00  0.00    +0.075 C 
BRANCH  36  38
ATOM     37  C   UNL     1       3.973   6.299   3.922  0.00  0.00    +0.004 C 
ATOM     38  C   UNL     1       3.530   5.670   2.600  0.00  0.00    +0.004 C 
ENDBRANCH  36  38
ENDBRANCH   1  36
TORSDOF 10
