REMARK  Name = ZINC09041084
REMARK  9 active torsions:
REMARK  status: ('A' for Active; 'I' for Inactive)
REMARK    1  A    between atoms: C_1  and  C_2
REMARK    2  A    between atoms: C_2  and  O_3
REMARK    3  A    between atoms: O_3  and  C_4
REMARK    4  A    between atoms: C_4  and  C_6
REMARK    5  A    between atoms: C_11  and  N_12
REMARK    6  A    between atoms: C_13  and  C_15
REMARK    7  A    between atoms: C_15  and  S_16
REMARK    8  A    between atoms: S_16  and  C_17
REMARK    9  A    between atoms: C_23  and  C_28
REMARK                            x       y       z     vdW  Elec       q    Type
REMARK                         _______ _______ _______ _____ _____    ______ ____
ROOT
ATOM      1  C   UNL     1      -5.757   1.607   2.583  0.00  0.00    +0.170 A 
ATOM      2  N   UNL     1      -4.673   2.419   2.748  0.00  0.00    -0.301 N 
ATOM      3  H   UNL     1      -4.677   3.081   3.457  0.00  0.00    +0.171 HD
ATOM      4  C   UNL     1      -3.597   2.317   1.947  0.00  0.00    +0.261 A 
ATOM      5  O   UNL     1      -2.635   3.050   2.107  0.00  0.00    -0.267 OA
ATOM      6  C   UNL     1      -3.592   1.336   0.908  0.00  0.00    +0.080 A 
ATOM      7  C   UNL     1      -2.557   1.042  -0.079  0.00  0.00    +0.004 A 
ATOM      8  C   UNL     1      -2.778   0.059  -0.982  0.00  0.00    +0.056 A 
ATOM      9  S   UNL     1      -4.406  -0.532  -0.561  0.00  0.00    -0.076 S 
ATOM     10  C   UNL     1      -4.751   0.546   0.806  0.00  0.00    +0.117 A 
ATOM     11  N   UNL     1      -5.781   0.697   1.630  0.00  0.00    -0.216 NA
ENDROOT
BRANCH   7  12
ATOM     12  C   UNL     1      -1.285   1.804  -0.087  0.00  0.00    -0.016 A 
ATOM     13  C   UNL     1      -1.301   3.198  -0.061  0.00  0.00    +0.009 A 
ATOM     14  C   UNL     1      -0.112   3.893  -0.078  0.00  0.00    +0.004 A 
ATOM     15  C   UNL     1       1.104   3.219  -0.116  0.00  0.00    -0.044 A 
ATOM     16  C   UNL     1       1.125   1.841  -0.132  0.00  0.00    -0.044 A 
ATOM     17  C   UNL     1      -0.067   1.133  -0.116  0.00  0.00    +0.012 A 
ATOM     18  C   UNL     1       2.407   1.051  -0.163  0.00  0.00    +0.035 C 
ATOM     19  C   UNL     1       3.572   1.933  -0.607  0.00  0.00    +0.005 C 
ATOM     20  C   UNL     1       3.571   3.204   0.252  0.00  0.00    +0.005 C 
ATOM     21  C   UNL     1       2.361   4.049  -0.141  0.00  0.00    +0.035 C 
ENDBRANCH   7  12
BRANCH   1  22
ATOM     22  S   UNL     1      -7.143   1.778   3.658  0.00  0.00    -0.078 S 
BRANCH  22  23
ATOM     23  C   UNL     1      -8.223   0.490   2.984  0.00  0.00    +0.173 C 
BRANCH  23  25
ATOM     24  N   UNL     1     -10.469  -0.436   3.446  0.00  0.00    -0.284 N 
ATOM     25  C   UNL     1      -9.508   0.451   3.771  0.00  0.00    +0.228 C 
ATOM     26  O   UNL     1      -9.677   1.218   4.695  0.00  0.00    -0.275 OA
ATOM     27  H   UNL     1     -10.362  -1.005   2.668  0.00  0.00    +0.155 HD
BRANCH  24  33
ATOM     28  C   UNL     1     -12.226  -1.784   4.430  0.00  0.00    +0.080 A 
ATOM     29  C   UNL     1     -13.378  -1.871   5.218  0.00  0.00    +0.017 A 
ATOM     30  C   UNL     1     -13.906  -0.734   5.790  0.00  0.00    +0.001 A 
ATOM     31  C   UNL     1     -13.301   0.496   5.590  0.00  0.00    +0.002 A 
ATOM     32  C   UNL     1     -12.160   0.597   4.819  0.00  0.00    +0.024 A 
ATOM     33  C   UNL     1     -11.617  -0.536   4.229  0.00  0.00    +0.047 A 
BRANCH  28  34
ATOM     34  C   UNL     1     -11.656  -2.996   3.815  0.00  0.00    +0.341 C 
ATOM     35  O   UNL     1     -10.602  -2.933   3.213  0.00  0.00    -0.245 OA
BRANCH  34  36
ATOM     36  O   UNL     1     -12.303  -4.173   3.920  0.00  0.00    -0.461 OA
BRANCH  36  38
ATOM     37  C   UNL     1     -12.556  -6.561   3.513  0.00  0.00    +0.048 C 
ATOM     38  C   UNL     1     -11.683  -5.325   3.289  0.00  0.00    +0.229 C 
ENDBRANCH  36  38
ENDBRANCH  34  36
ENDBRANCH  28  34
ENDBRANCH  24  33
ENDBRANCH  23  25
ENDBRANCH  22  23
ENDBRANCH   1  22
TORSDOF 8
