REMARK  Name = ZINC39375444
REMARK  9 active torsions:
REMARK  status: ('A' for Active; 'I' for Inactive)
REMARK    1  A    between atoms: C_1  and  C_2
REMARK    2  A    between atoms: C_5  and  C_39
REMARK    3  A    between atoms: C_10  and  C_14
REMARK    4  A    between atoms: C_14  and  C_15
REMARK    5  A    between atoms: C_15  and  N_16
REMARK    6  A    between atoms: C_17  and  C_19
REMARK    7  A    between atoms: C_19  and  C_21
REMARK    8  A    between atoms: N_24  and  C_31
REMARK    9  A    between atoms: C_31  and  C_32
REMARK                            x       y       z     vdW  Elec       q    Type
REMARK                         _______ _______ _______ _____ _____    ______ ____
ROOT
ATOM      1  N   UNL     1       2.342  -0.814   6.710  0.00  0.00    -0.309 N 
ATOM      2  C   UNL     1       2.467  -1.236   7.984  0.00  0.00    +0.280 C 
ATOM      3  O   UNL     1       1.601  -1.924   8.482  0.00  0.00    -0.267 OA
ATOM      4  H   UNL     1       3.035  -0.264   6.311  0.00  0.00    +0.149 HD
ENDROOT
BRANCH   2   5
ATOM      5  C   UNL     1       3.670  -0.859   8.780  0.00  0.00    +0.226 C 
ATOM      6  O   UNL     1       4.532  -0.174   8.283  0.00  0.00    -0.286 OA
BRANCH   5   7
ATOM      7  C   UNL     1       3.809  -1.331  10.204  0.00  0.00    +0.114 C 
ATOM      8  C   UNL     1       4.651  -0.336  11.019  0.00  0.00    +0.122 C 
ATOM      9  N   UNL     1       5.819  -1.098  11.468  0.00  0.00    -0.320 N 
ATOM     10  C   UNL     1       5.741  -2.413  11.004  0.00  0.00    +0.034 A 
ATOM     11  C   UNL     1       4.589  -2.625  10.257  0.00  0.00    -0.014 A 
ATOM     12  C   UNL     1       4.325  -3.865   9.709  0.00  0.00    +0.006 A 
ATOM     13  C   UNL     1       5.209  -4.912   9.901  0.00  0.00    +0.000 A 
ATOM     14  C   UNL     1       6.358  -4.714  10.644  0.00  0.00    +0.002 A 
ATOM     15  C   UNL     1       6.630  -3.472  11.194  0.00  0.00    +0.023 A 
BRANCH   9  16
ATOM     16  C   UNL     1       6.910  -0.560  12.285  0.00  0.00    +0.201 C 
BRANCH  16  17
ATOM     17  C   UNL     1       6.585  -0.750  13.745  0.00  0.00    +0.233 C 
ATOM     18  O   UNL     1       5.545  -1.283  14.070  0.00  0.00    -0.274 OA
ATOM     19  N   UNL     1       7.450  -0.329  14.688  0.00  0.00    -0.300 N 
ATOM     20  C   UNL     1       8.737   0.335  14.435  0.00  0.00    +0.108 C 
ATOM     21  C   UNL     1       9.389   0.609  15.806  0.00  0.00    +0.020 C 
ATOM     22  C   UNL     1       8.695  -0.423  16.733  0.00  0.00    +0.020 C 
ATOM     23  C   UNL     1       7.260  -0.451  16.145  0.00  0.00    +0.108 C 
ENDBRANCH  16  17
ENDBRANCH   9  16
ENDBRANCH   5   7
ENDBRANCH   2   5
BRANCH   1  24
ATOM     24  C   UNL     1       1.161  -1.185   5.927  0.00  0.00    +0.105 C 
BRANCH  24  25
ATOM     25  C   UNL     1       1.267  -0.581   4.526  0.00  0.00    +0.035 C 
BRANCH  25  35
ATOM     26  C   UNL     1      -0.018   1.503   0.010  0.00  0.00    +0.044 C 
ATOM     27  C   UNL     1       0.002  -0.004   0.002  0.00  0.00    -0.042 A 
ATOM     28  C   UNL     1       0.006  -0.689  -1.171  0.00  0.00    +0.004 A 
ATOM     29  C   UNL     1       0.025  -2.083  -1.198  0.00  0.00    +0.005 A 
ATOM     30  C   UNL     1       0.041  -2.838  -0.068  0.00  0.00    -0.029 A 
ATOM     31  C   UNL     1       0.038  -2.227   1.199  0.00  0.00    +0.043 A 
ATOM     32  N   UNL     1       0.054  -2.978   2.300  0.00  0.00    -0.284 N 
ATOM     33  C   UNL     1       0.053  -2.469   3.521  0.00  0.00    +0.224 C 
ATOM     34  O   UNL     1       0.068  -3.205   4.489  0.00  0.00    -0.275 OA
ATOM     35  C   UNL     1       0.033  -0.969   3.708  0.00  0.00    +0.100 C 
ATOM     36  C   UNL     1       0.015  -0.111   2.459  0.00  0.00    -0.004 C 
ATOM     37  C   UNL     1       0.024  -0.755   1.258  0.00  0.00    -0.004 A 
ATOM     38  C   UNL     1       0.060  -4.341  -0.174  0.00  0.00    +0.045 C 
ATOM     39  H   UNL     1       0.067  -3.943   2.202  0.00  0.00    +0.155 HD
ENDBRANCH  25  35
ENDBRANCH  24  25
ENDBRANCH   1  24
TORSDOF 7
