REMARK  Name = ZINC09955637
REMARK  9 active torsions:
REMARK  status: ('A' for Active; 'I' for Inactive)
REMARK    1  A    between atoms: C_1  and  C_2
REMARK    2  A    between atoms: C_9  and  N_15
REMARK    3  A    between atoms: C_10  and  C_11
REMARK    4  A    between atoms: C_11  and  O_13
REMARK    5  A    between atoms: O_13  and  C_14
REMARK    6  A    between atoms: C_16  and  C_18
REMARK    7  A    between atoms: C_18  and  S_19
REMARK    8  A    between atoms: S_19  and  C_20
REMARK    9  A    between atoms: C_23  and  C_25
REMARK                            x       y       z     vdW  Elec       q    Type
REMARK                         _______ _______ _______ _____ _____    ______ ____
ROOT
ATOM      1  N   UNL     1       2.825  -2.279  -0.173  0.00  0.00    -0.279 N 
ATOM      2  C   UNL     1       3.750  -3.123  -0.671  0.00  0.00    +0.228 C 
ATOM      3  O   UNL     1       3.623  -4.320  -0.519  0.00  0.00    -0.275 OA
ATOM      4  H   UNL     1       2.926  -1.322  -0.295  0.00  0.00    +0.155 HD
ENDROOT
BRANCH   1  12
ATOM      5  C   UNL     1      -3.269  -5.504   3.522  0.00  0.00    +0.008 C 
ATOM      6  C   UNL     1      -2.437  -4.568   2.643  0.00  0.00    -0.009 C 
ATOM      7  C   UNL     1      -2.186  -3.252   3.385  0.00  0.00    +0.008 C 
ATOM      8  C   UNL     1      -1.575  -2.225   2.430  0.00  0.00    +0.037 C 
ATOM      9  C   UNL     1      -0.360  -2.847   1.753  0.00  0.00    -0.021 A 
ATOM     10  C   UNL     1      -0.184  -4.185   1.734  0.00  0.00    -0.004 A 
ATOM     11  S   UNL     1       1.334  -4.430   0.855  0.00  0.00    -0.077 S 
ATOM     12  C   UNL     1       1.728  -2.778   0.512  0.00  0.00    +0.086 A 
ATOM     13  C   UNL     1       0.680  -2.076   1.092  0.00  0.00    +0.091 A 
ATOM     14  C   UNL     1      -1.084  -5.224   2.329  0.00  0.00    +0.046 C 
BRANCH  13  15
ATOM     15  C   UNL     1       0.621  -0.614   1.034  0.00  0.00    +0.342 C 
ATOM     16  O   UNL     1       1.131   0.051   1.916  0.00  0.00    -0.245 OA
BRANCH  15  17
ATOM     17  O   UNL     1       0.002  -0.004   0.002  0.00  0.00    -0.464 OA
ATOM     18  C   UNL     1      -0.018   1.448   0.010  0.00  0.00    +0.280 C 
ENDBRANCH  15  17
ENDBRANCH  13  15
ENDBRANCH   1  12
BRANCH   2  19
ATOM     19  C   UNL     1       4.942  -2.580  -1.416  0.00  0.00    +0.175 C 
BRANCH  19  20
ATOM     20  S   UNL     1       5.993  -3.952  -1.954  0.00  0.00    -0.056 S 
BRANCH  20  21
ATOM     21  C   UNL     1       7.271  -3.056  -2.773  0.00  0.00    +0.278 A 
ATOM     22  N   UNL     1       7.346  -1.752  -2.900  0.00  0.00    -0.101 NA
ATOM     23  N   UNL     1       8.411  -1.446  -3.554  0.00  0.00    -0.106 NA
ATOM     24  C   UNL     1       9.058  -2.541  -3.869  0.00  0.00    +0.249 A 
ATOM     25  O   UNL     1       8.352  -3.584  -3.377  0.00  0.00    -0.411 OA
BRANCH  24  26
ATOM     26  C   UNL     1      10.328  -2.621  -4.620  0.00  0.00    +0.042 A 
ATOM     27  C   UNL     1      10.910  -3.863  -4.880  0.00  0.00    +0.017 A 
ATOM     28  C   UNL     1      12.094  -3.936  -5.585  0.00  0.00    +0.050 A 
ATOM     29  C   UNL     1      12.715  -2.777  -6.027  0.00  0.00    +0.166 A 
ATOM     30  C   UNL     1      12.141  -1.533  -5.766  0.00  0.00    +0.167 A 
ATOM     31  C   UNL     1      10.952  -1.454  -5.065  0.00  0.00    +0.062 A 
ATOM     32  O   UNL     1      12.940  -0.564  -6.302  0.00  0.00    -0.453 OA
ATOM     33  C   UNL     1      13.789  -1.244  -7.245  0.00  0.00    +0.466 C 
ATOM     34  O   UNL     1      13.871  -2.585  -6.727  0.00  0.00    -0.453 OA
ENDBRANCH  24  26
ENDBRANCH  20  21
ENDBRANCH  19  20
ENDBRANCH   2  19
TORSDOF 7
