REMARK  Name = ZINC04486723
REMARK  9 active torsions:
REMARK  status: ('A' for Active; 'I' for Inactive)
REMARK    1  A    between atoms: C_1  and  C_2
REMARK    2  A    between atoms: C_2  and  C_4
REMARK    3  A    between atoms: C_2  and  O_17
REMARK    4  A    between atoms: N_6  and  C_7
REMARK    5  A    between atoms: O_17  and  C_18
REMARK    6  A    between atoms: C_18  and  C_20
REMARK    7  A    between atoms: C_25  and  N_26
REMARK    8  A    between atoms: N_26  and  S_27
REMARK    9  A    between atoms: S_27  and  C_30
REMARK                            x       y       z     vdW  Elec       q    Type
REMARK                         _______ _______ _______ _____ _____    ______ ____
ROOT
ATOM      1  C   UNL     1      -5.273   4.678  -1.780  0.00  0.00    +0.062 C 
ATOM      2  C   UNL     1      -5.104   3.901  -0.473  0.00  0.00    +0.259 C 
ENDROOT
BRANCH   2   3
ATOM      3  C   UNL     1      -3.761   3.218  -0.464  0.00  0.00    +0.258 C 
ATOM      4  O   UNL     1      -3.696   2.007  -0.466  0.00  0.00    -0.271 OA
ATOM      5  N   UNL     1      -2.631   3.953  -0.455  0.00  0.00    -0.282 N 
ATOM      6  H   UNL     1      -2.681   4.918  -0.372  0.00  0.00    +0.155 HD
BRANCH   5   7
ATOM      7  C   UNL     1      -1.389   3.325  -0.564  0.00  0.00    +0.041 A 
ATOM      8  C   UNL     1      -1.284   2.093  -1.173  0.00  0.00    +0.024 A 
ATOM      9  C   UNL     1      -0.051   1.456  -1.282  0.00  0.00    +0.002 A 
ATOM     10  C   UNL     1       1.084   2.035  -0.802  0.00  0.00    +0.008 A 
ATOM     11  C   UNL     1       1.021   3.293  -0.180  0.00  0.00    -0.016 A 
ATOM     12  C   UNL     1      -0.229   3.949  -0.058  0.00  0.00    +0.003 A 
ATOM     13  C   UNL     1      -0.290   5.206   0.563  0.00  0.00    +0.010 A 
ATOM     14  C   UNL     1       0.849   5.779   1.040  0.00  0.00    +0.001 A 
ATOM     15  C   UNL     1       2.079   5.134   0.921  0.00  0.00    +0.001 A 
ATOM     16  C   UNL     1       2.176   3.915   0.324  0.00  0.00    +0.008 A 
ENDBRANCH   5   7
ENDBRANCH   2   3
BRANCH   2  17
ATOM     17  O   UNL     1      -6.154   2.905  -0.363  0.00  0.00    -0.449 OA
BRANCH  17  18
ATOM     18  C   UNL     1      -7.295   3.283   0.248  0.00  0.00    +0.342 C 
ATOM     19  O   UNL     1      -7.408   4.415   0.677  0.00  0.00    -0.245 OA
BRANCH  18  20
ATOM     20  C   UNL     1      -8.404   2.325   0.396  0.00  0.00    +0.081 A 
ATOM     21  C   UNL     1      -8.280   1.024  -0.101  0.00  0.00    +0.017 A 
ATOM     22  C   UNL     1      -9.319   0.132   0.045  0.00  0.00    +0.001 A 
ATOM     23  C   UNL     1     -10.492   0.519   0.673  0.00  0.00    +0.002 A 
ATOM     24  C   UNL     1     -10.632   1.800   1.164  0.00  0.00    +0.025 A 
ATOM     25  C   UNL     1      -9.594   2.714   1.031  0.00  0.00    +0.062 A 
BRANCH  25  26
ATOM     26  N   UNL     1      -9.732   4.005   1.524  0.00  0.00    -0.220 N 
ATOM     27  H   UNL     1      -9.333   4.750   1.049  0.00  0.00    +0.173 HD
BRANCH  26  28
ATOM     28  S   UNL     1     -10.578   4.271   2.922  0.00  0.00    +0.040 S 
ATOM     29  O   UNL     1     -10.438   5.663   3.171  0.00  0.00    -0.155 OA
ATOM     30  O   UNL     1     -11.859   3.702   2.686  0.00  0.00    -0.155 OA
ATOM     31  C   UNL     1      -9.696   3.318   4.189  0.00  0.00    +0.218 C 
ENDBRANCH  26  28
ENDBRANCH  25  26
ENDBRANCH  18  20
ENDBRANCH  17  18
ENDBRANCH   2  17
TORSDOF 7
