REMARK  Name = ZINC65305990
REMARK  8 active torsions:
REMARK  status: ('A' for Active; 'I' for Inactive)
REMARK    1  A    between atoms: C_1  and  C_2
REMARK    2  A    between atoms: C_2  and  C_3
REMARK    3  A    between atoms: C_3  and  C_5
REMARK    4  A    between atoms: C_3  and  C_6
REMARK    5  A    between atoms: C_6  and  C_8
REMARK    6  A    between atoms: C_6  and  N_20
REMARK    7  A    between atoms: N_10  and  C_11
REMARK    8  A    between atoms: C_21  and  C_23
REMARK                            x       y       z     vdW  Elec       q    Type
REMARK                         _______ _______ _______ _____ _____    ______ ____
ROOT
ATOM      1  C   UNL     1      -2.083  -0.017  -1.140  0.00  0.00    +0.162 C 
ENDROOT
BRANCH   1   2
ATOM      2  C   UNL     1      -1.907   1.476  -1.255  0.00  0.00    +0.236 C 
ATOM      3  O   UNL     1      -2.878   2.198  -1.323  0.00  0.00    -0.274 OA
ATOM      4  N   UNL     1      -0.668   2.007  -1.281  0.00  0.00    -0.277 N 
ATOM      5  H   UNL     1       0.108   1.427  -1.301  0.00  0.00    +0.152 HD
BRANCH   4   6
ATOM      6  C   UNL     1      -0.496   3.462  -1.280  0.00  0.00    +0.269 C 
ATOM      7  N   UNL     1      -0.751   4.001  -2.622  0.00  0.00    -0.348 N 
ATOM      8  C   UNL     1       0.343   4.580  -3.025  0.00  0.00    +0.061 A 
ATOM      9  C   UNL     1       0.701   5.288  -4.261  0.00  0.00    +0.027 A 
ATOM     10  C   UNL     1       1.942   5.796  -4.401  0.00  0.00    +0.002 A 
ATOM     11  C   UNL     1       2.926   5.679  -3.403  0.00  0.00    +0.002 A 
ATOM     12  C   UNL     1       2.702   5.049  -2.232  0.00  0.00    +0.027 A 
ATOM     13  C   UNL     1       1.384   4.456  -1.968  0.00  0.00    +0.061 A 
ATOM     14  N   UNL     1       0.894   3.805  -0.954  0.00  0.00    -0.348 N 
ATOM     15  H   UNL     1      -1.583   3.937  -3.118  0.00  0.00    +0.163 HD
ATOM     16  H   UNL     1       1.361   3.586  -0.132  0.00  0.00    +0.163 HD
ENDBRANCH   4   6
ENDBRANCH   1   2
BRANCH   1  17
ATOM     17  N   UNL     1      -3.412  -0.390  -1.631  0.00  0.00    -0.300 N 
ATOM     18  C   UNL     1      -3.632  -1.634  -2.101  0.00  0.00    +0.245 C 
ATOM     19  O   UNL     1      -2.728  -2.446  -2.117  0.00  0.00    -0.270 OA
ATOM     20  H   UNL     1      -4.134   0.258  -1.618  0.00  0.00    +0.150 HD
BRANCH  18  21
ATOM     21  C   UNL     1      -4.973  -2.011  -2.596  0.00  0.00    +0.037 A 
ATOM     22  C   UNL     1      -6.012  -1.079  -2.583  0.00  0.00    +0.013 A 
ATOM     23  C   UNL     1      -7.261  -1.437  -3.047  0.00  0.00    +0.001 A 
ATOM     24  C   UNL     1      -7.485  -2.717  -3.523  0.00  0.00    +0.000 A 
ATOM     25  C   UNL     1      -6.460  -3.645  -3.538  0.00  0.00    +0.001 A 
ATOM     26  C   UNL     1      -5.204  -3.298  -3.083  0.00  0.00    +0.013 A 
ENDBRANCH  18  21
ENDBRANCH   1  17
BRANCH   1  27
ATOM     27  C   UNL     1      -1.944  -0.436   0.324  0.00  0.00    +0.015 C 
ATOM     28  C   UNL     1      -3.102   0.149   1.135  0.00  0.00    +0.010 C 
BRANCH  27  30
ATOM     29  C   UNL     1      -0.721  -2.540  -0.243  0.00  0.00    +0.004 C 
ATOM     30  C   UNL     1      -1.972  -1.963   0.423  0.00  0.00    +0.002 C 
ENDBRANCH  27  30
ENDBRANCH   1  27
TORSDOF 6
