REMARK  Name = ZINC63446493
REMARK  15 active torsions:
REMARK  status: ('A' for Active; 'I' for Inactive)
REMARK    1  A    between atoms: C_1  and  C_2
REMARK    2  A    between atoms: C_2  and  O_3
REMARK    3  A    between atoms: O_3  and  C_4
REMARK    4  A    between atoms: C_4  and  C_6
REMARK    5  A    between atoms: C_6  and  S_7
REMARK    6  A    between atoms: S_7  and  C_8
REMARK    7  A    between atoms: C_12  and  C_15
REMARK    8  A    between atoms: C_15  and  C_17
REMARK    9  A    between atoms: C_15  and  N_27
REMARK   10  A    between atoms: C_17  and  C_18
REMARK   11  A    between atoms: C_28  and  O_30
REMARK   12  A    between atoms: O_30  and  C_31
REMARK   13  A    between atoms: C_31  and  C_32
REMARK   14  A    between atoms: C_31  and  C_33
REMARK   15  A    between atoms: C_31  and  C_34
REMARK                            x       y       z     vdW  Elec       q    Type
REMARK                         _______ _______ _______ _____ _____    ______ ____
ROOT
ATOM      1  C   UNL     1      -7.132  -2.832   1.327  0.00  0.00    +0.133 C 
ENDROOT
BRANCH   1   5
ATOM      2  C   UNL     1      -4.489  -4.790   0.019  0.00  0.00    +0.319 C 
ATOM      3  N   UNL     1      -5.213  -4.230  -1.129  0.00  0.00    -0.146 NA
ATOM      4  N   UNL     1      -5.916  -3.279  -0.766  0.00  0.00    -0.155 NA
ATOM      5  C   UNL     1      -5.765  -3.063   0.679  0.00  0.00    +0.280 C 
ATOM      6  O   UNL     1      -5.169  -4.279   1.184  0.00  0.00    -0.316 OA
BRANCH   2   7
ATOM      7  S   UNL     1      -2.761  -4.237   0.006  0.00  0.00    -0.093 S 
BRANCH   7   8
ATOM      8  C   UNL     1      -2.881  -2.427   0.017  0.00  0.00    +0.194 C 
BRANCH   8   9
ATOM      9  C   UNL     1      -1.496  -1.832   0.006  0.00  0.00    +0.317 C 
ATOM     10  O   UNL     1      -0.528  -2.555  -0.007  0.00  0.00    -0.250 OA
BRANCH   9  11
ATOM     11  O   UNL     1      -1.339  -0.499   0.012  0.00  0.00    -0.464 OA
BRANCH  11  13
ATOM     12  C   UNL     1      -0.019   1.526   0.010  0.00  0.00    +0.048 C 
ATOM     13  C   UNL     1       0.002  -0.004   0.002  0.00  0.00    +0.229 C 
ENDBRANCH  11  13
ENDBRANCH   9  11
ENDBRANCH   8   9
ENDBRANCH   7   8
ENDBRANCH   2   7
ENDBRANCH   1   5
BRANCH   1  14
ATOM     14  N   UNL     1      -6.964  -2.654   2.771  0.00  0.00    -0.274 N 
ATOM     15  C   UNL     1      -6.206  -1.644   3.242  0.00  0.00    +0.401 C 
ATOM     16  O   UNL     1      -5.661  -0.881   2.469  0.00  0.00    -0.226 OA
ATOM     17  H   UNL     1      -7.399  -3.262   3.388  0.00  0.00    +0.152 HD
BRANCH  15  18
ATOM     18  O   UNL     1      -6.052  -1.480   4.569  0.00  0.00    -0.445 OA
BRANCH  18  19
ATOM     19  C   UNL     1      -5.234  -0.390   4.998  0.00  0.00    +0.107 C 
ATOM     20  C   UNL     1      -5.829   0.925   4.488  0.00  0.00    +0.055 C 
ATOM     21  C   UNL     1      -5.178  -0.364   6.527  0.00  0.00    +0.055 C 
ATOM     22  C   UNL     1      -3.821  -0.561   4.438  0.00  0.00    +0.055 C 
ENDBRANCH  18  19
ENDBRANCH  15  18
ENDBRANCH   1  14
BRANCH   1  23
ATOM     23  C   UNL     1      -7.773  -1.577   0.729  0.00  0.00    +0.060 C 
BRANCH  23  24
ATOM     24  C   UNL     1      -9.169  -1.418   1.276  0.00  0.00    -0.040 C 
ATOM     25  C   UNL     1      -9.547  -0.663   2.332  0.00  0.00    -0.001 A 
ATOM     26  C   UNL     1      -8.800   0.202   3.254  0.00  0.00    +0.010 A 
ATOM     27  C   UNL     1      -9.470   0.844   4.238  0.00  0.00    +0.001 A 
ATOM     28  C   UNL     1     -10.855   0.704   4.400  0.00  0.00    +0.002 A 
ATOM     29  C   UNL     1     -11.609  -0.072   3.593  0.00  0.00    +0.026 A 
ATOM     30  C   UNL     1     -11.009  -0.793   2.524  0.00  0.00    +0.043 A 
ATOM     31  N   UNL     1     -11.515  -1.598   1.621  0.00  0.00    -0.380 N 
ATOM     32  C   UNL     1     -10.431  -2.064   0.750  0.00  0.00    +0.144 C 
ATOM     33  H   UNL     1     -12.450  -1.841   1.540  0.00  0.00    +0.160 HD
ENDBRANCH  23  24
ENDBRANCH   1  23
TORSDOF 11
