REMARK  Name = ZINC33352947
REMARK  8 active torsions:
REMARK  status: ('A' for Active; 'I' for Inactive)
REMARK    1  A    between atoms: C_3  and  S_30
REMARK    2  A    between atoms: C_6  and  N_7
REMARK    3  A    between atoms: N_8  and  C_9
REMARK    4  A    between atoms: C_10  and  S_26
REMARK    5  A    between atoms: C_14  and  N_20
REMARK    6  A    between atoms: C_18  and  O_19
REMARK    7  A    between atoms: C_21  and  C_23
REMARK    8  A    between atoms: C_23  and  C_24
REMARK                            x       y       z     vdW  Elec       q    Type
REMARK                         _______ _______ _______ _____ _____    ______ ____
ROOT
ATOM      1  C   UNL     1      -2.326  -2.674  -0.015  0.00  0.00    +0.155 A 
ATOM      2  C   UNL     1      -2.293  -4.082  -0.005  0.00  0.00    +0.151 A 
ATOM      3  C   UNL     1      -3.440  -4.805   0.010  0.00  0.00    +0.040 A 
ATOM      4  C   UNL     1      -4.690  -4.153   0.015  0.00  0.00    -0.011 A 
ATOM      5  C   UNL     1      -5.885  -4.887   0.030  0.00  0.00    +0.032 A 
ATOM      6  C   UNL     1      -7.093  -4.222   0.035  0.00  0.00    +0.034 A 
ATOM      7  C   UNL     1      -7.137  -2.823   0.025  0.00  0.00    +0.024 A 
ATOM      8  C   UNL     1      -5.993  -2.089   0.010  0.00  0.00    +0.014 A 
ATOM      9  C   UNL     1      -4.745  -2.736   0.005  0.00  0.00    +0.026 A 
ATOM     10  C   UNL     1      -3.546  -1.997  -0.005  0.00  0.00    +0.153 A 
ENDROOT
BRANCH   6  11
ATOM     11  N   UNL     1      -8.284  -4.952   0.051  0.00  0.00    -0.285 N 
ATOM     12  C   UNL     1      -9.352  -4.486   0.729  0.00  0.00    +0.218 C 
ATOM     13  O   UNL     1      -9.305  -3.395   1.256  0.00  0.00    -0.275 OA
ATOM     14  H   UNL     1      -8.343  -5.794  -0.427  0.00  0.00    +0.155 HD
BRANCH  12  15
ATOM     15  C   UNL     1     -10.602  -5.320   0.831  0.00  0.00    +0.112 C 
BRANCH  15  16
ATOM     16  C   UNL     1     -11.654  -4.565   1.647  0.00  0.00    +0.118 C 
ATOM     17 CL   UNL     1     -13.150  -5.563   1.769  0.00  0.00    -0.125 Cl
ENDBRANCH  15  16
ENDBRANCH  12  15
ENDBRANCH   6  11
BRANCH   2  18
ATOM     18  S   UNL     1      -0.741  -4.915  -0.012  0.00  0.00    +0.142 S 
ATOM     19  O   UNL     1      -0.357  -5.104   1.379  0.00  0.00    -0.140 OA
ATOM     20  O   UNL     1      -0.945  -6.182  -0.696  0.00  0.00    -0.140 OA
ATOM     21  O   UNL     1       0.195  -4.058  -0.722  0.00  0.00    -0.043 OA
ENDBRANCH   2  18
BRANCH   1  23
ATOM     22  N   UNL     1      -1.187  -0.679  -0.035  0.00  0.00    -0.149 NA
ATOM     23  N   UNL     1      -1.161  -1.969  -0.031  0.00  0.00    -0.144 NA
BRANCH  22  29
ATOM     24  C   UNL     1      -0.042   1.425  -0.056  0.00  0.00    +0.031 A 
ATOM     25  C   UNL     1       1.142   2.132  -0.071  0.00  0.00    +0.032 A 
ATOM     26  C   UNL     1       2.352   1.461  -0.081  0.00  0.00    +0.120 A 
ATOM     27  C   UNL     1       2.384   0.078  -0.077  0.00  0.00    +0.032 A 
ATOM     28  C   UNL     1       1.208  -0.643  -0.062  0.00  0.00    +0.031 A 
ATOM     29  C   UNL     1      -0.018   0.028  -0.051  0.00  0.00    +0.086 A 
BRANCH  26  30
ATOM     30  S   UNL     1       3.860   2.373  -0.101  0.00  0.00    +0.140 S 
ATOM     31  O   UNL     1       4.838   1.557  -0.805  0.00  0.00    -0.140 OA
ATOM     32  O   UNL     1       3.590   3.620  -0.799  0.00  0.00    -0.140 OA
ATOM     33  O   UNL     1       4.237   2.597   1.286  0.00  0.00    -0.043 OA
ENDBRANCH  26  30
ENDBRANCH  22  29
ENDBRANCH   1  23
BRANCH  10  34
ATOM     34  O   UNL     1      -3.578  -0.642  -0.009  0.00  0.00    -0.504 OA
ATOM     35  H   UNL     1      -3.596  -0.252  -0.894  0.00  0.00    +0.292 HD
ENDBRANCH  10  34
TORSDOF 8
