REMARK  Name = ZINC16027182
REMARK  6 active torsions:
REMARK  status: ('A' for Active; 'I' for Inactive)
REMARK    1  A    between atoms: C_1  and  O_2
REMARK    2  A    between atoms: O_2  and  C_3
REMARK    3  A    between atoms: C_8  and  N_9
REMARK    4  A    between atoms: C_10  and  C_12
REMARK    5  A    between atoms: C_15  and  C_28
REMARK    6  A    between atoms: C_28  and  C_29
REMARK                            x       y       z     vdW  Elec       q    Type
REMARK                         _______ _______ _______ _____ _____    ______ ____
ROOT
ATOM      1  C   UNL     1      -2.052  -4.308  -0.853  0.00  0.00    +0.076 C 
ATOM      2  C   UNL     1      -2.376  -3.188   0.163  0.00  0.00    -0.003 C 
ATOM      3  C   UNL     1      -1.135  -2.268   0.150  0.00  0.00    -0.061 C 
ATOM      4  C   UNL     1      -0.660  -3.957  -1.393  0.00  0.00    +0.049 C 
ATOM      5  C   UNL     1      -0.527  -4.312  -2.847  0.00  0.00    -0.027 A 
ATOM      6  C   UNL     1      -1.205  -3.929  -3.982  0.00  0.00    +0.019 A 
ATOM      7  C   UNL     1      -0.840  -4.443  -5.215  0.00  0.00    +0.018 A 
ATOM      8  C   UNL     1       0.208  -5.343  -5.301  0.00  0.00    +0.017 A 
ATOM      9  C   UNL     1       0.890  -5.729  -4.166  0.00  0.00    +0.024 A 
ATOM     10  C   UNL     1       0.529  -5.216  -2.923  0.00  0.00    +0.036 A 
ATOM     11  N   UNL     1       1.057  -5.449  -1.651  0.00  0.00    -0.286 N 
ATOM     12  C   UNL     1       0.415  -4.747  -0.698  0.00  0.00    +0.211 C 
ATOM     13  O   UNL     1       0.656  -4.751   0.491  0.00  0.00    -0.277 OA
ATOM     14 BR   UNL     1      -1.771  -3.919  -6.775  0.00  0.00    -0.050 Br
ATOM     15  H   UNL     1       1.801  -6.046  -1.475  0.00  0.00    +0.155 HD
ATOM     16  N   UNL     1      -0.511  -2.533  -1.149  0.00  0.00    +0.394 N 
ATOM     17  H   UNL     1       0.483  -2.279  -1.123  0.00  0.00    -0.083 HD
ATOM     18  H   UNL     1      -0.983  -1.995  -1.885  0.00  0.00    -0.083 HD
ENDROOT
BRANCH   1  20
ATOM     19  N   UNL     1      -3.371  -5.468  -2.595  0.00  0.00    -0.282 N 
ATOM     20  C   UNL     1      -3.063  -4.314  -1.970  0.00  0.00    +0.220 C 
ATOM     21  O   UNL     1      -3.599  -3.280  -2.308  0.00  0.00    -0.275 OA
ATOM     22  H   UNL     1      -2.990  -6.304  -2.284  0.00  0.00    +0.155 HD
BRANCH  19  28
ATOM     23  C   UNL     1      -4.135  -6.440  -4.676  0.00  0.00    +0.141 A 
ATOM     24  C   UNL     1      -5.002  -6.430  -5.757  0.00  0.00    +0.049 A 
ATOM     25  C   UNL     1      -5.964  -5.443  -5.863  0.00  0.00    +0.024 A 
ATOM     26  C   UNL     1      -6.068  -4.465  -4.889  0.00  0.00    +0.043 A 
ATOM     27  C   UNL     1      -5.210  -4.472  -3.805  0.00  0.00    +0.047 A 
ATOM     28  C   UNL     1      -4.242  -5.460  -3.692  0.00  0.00    +0.077 A 
ATOM     29 CL   UNL     1      -7.278  -3.229  -5.029  0.00  0.00    -0.083 Cl
BRANCH  23  31
ATOM     30  C   UNL     1      -3.134  -8.380  -5.619  0.00  0.00    +0.277 C 
ATOM     31  O   UNL     1      -3.185  -7.407  -4.573  0.00  0.00    -0.493 OA
ENDBRANCH  23  31
ENDBRANCH  19  28
ENDBRANCH   1  20
BRANCH   3  32
ATOM     32  C   UNL     1      -1.556  -0.803   0.279  0.00  0.00    +0.080 C 
BRANCH  32  33
ATOM     33  C   UNL     1      -0.329   0.069   0.349  0.00  0.00    +0.209 C 
ATOM     34  O   UNL     1       0.774  -0.433   0.301  0.00  0.00    -0.276 OA
ATOM     35  N   UNL     1      -0.457   1.405   0.466  0.00  0.00    -0.329 N 
ATOM     36  H   UNL     1       0.333   1.966   0.511  0.00  0.00    +0.145 HD
ATOM     37  H   UNL     1      -1.339   1.807   0.500  0.00  0.00    +0.145 HD
ENDBRANCH  32  33
ENDBRANCH   3  32
TORSDOF 5
