REMARK  Name = ZINC39351966
REMARK  6 active torsions:
REMARK  status: ('A' for Active; 'I' for Inactive)
REMARK    1  A    between atoms: C_1  and  C_2
REMARK    2  A    between atoms: C_2  and  C_24
REMARK    3  A    between atoms: N_3  and  N_4
REMARK    4  A    between atoms: C_5  and  C_7
REMARK    5  A    between atoms: C_12  and  O_17
REMARK    6  A    between atoms: O_17  and  C_18
REMARK                            x       y       z     vdW  Elec       q    Type
REMARK                         _______ _______ _______ _____ _____    ______ ____
ROOT
ATOM      1  C   UNL     1      -0.750  -4.185   2.256  0.00  0.00    +0.191 C 
ATOM      2  C   UNL     1       0.519  -4.980   2.039  0.00  0.00    +0.016 C 
ATOM      3  C   UNL     1       0.669  -5.754   3.138  0.00  0.00    -0.000 A 
ATOM      4  C   UNL     1       1.685  -6.735   3.533  0.00  0.00    +0.056 A 
ATOM      5  C   UNL     1       1.571  -7.372   4.723  0.00  0.00    +0.129 A 
ATOM      6  C   UNL     1       0.503  -7.128   5.606  0.00  0.00    +0.048 A 
ATOM      7  C   UNL     1      -0.479  -6.244   5.330  0.00  0.00    +0.029 A 
ATOM      8  C   UNL     1      -0.455  -5.497   4.069  0.00  0.00    +0.043 A 
ATOM      9  N   UNL     1      -1.268  -4.601   3.565  0.00  0.00    -0.370 N 
ATOM     10  H   UNL     1      -2.075  -4.267   3.986  0.00  0.00    +0.161 HD
ENDROOT
BRANCH   1  12
ATOM     11  N   UNL     1      -0.300  -2.046   1.099  0.00  0.00    -0.205 N 
ATOM     12  C   UNL     1      -0.444  -2.710   2.263  0.00  0.00    +0.259 C 
ATOM     13  O   UNL     1      -0.327  -2.119   3.316  0.00  0.00    -0.271 OA
ATOM     14  H   UNL     1      -0.321  -2.530   0.259  0.00  0.00    +0.177 HD
BRANCH  11  17
ATOM     15  C   UNL     1       0.009   1.500  -0.013  0.00  0.00    +0.068 C 
ATOM     16  C   UNL     1      -0.085  -0.004  -0.019  0.00  0.00    +0.065 C 
ATOM     17  N   UNL     1      -0.120  -0.657   1.102  0.00  0.00    -0.184 NA
BRANCH  16  18
ATOM     18  C   UNL     1      -0.137  -0.735  -1.299  0.00  0.00    +0.016 A 
ATOM     19  C   UNL     1      -1.287  -1.442  -1.657  0.00  0.00    +0.012 A 
ATOM     20  C   UNL     1      -1.329  -2.123  -2.855  0.00  0.00    +0.021 A 
ATOM     21  C   UNL     1      -0.234  -2.108  -3.704  0.00  0.00    +0.042 A 
ATOM     22  C   UNL     1       0.910  -1.409  -3.356  0.00  0.00    +0.040 A 
ATOM     23  C   UNL     1       0.963  -0.717  -2.162  0.00  0.00    +0.051 A 
ATOM     24 CL   UNL     1       2.394   0.165  -1.731  0.00  0.00    -0.083 Cl
ATOM     25 CL   UNL     1      -0.296  -2.968  -5.210  0.00  0.00    -0.083 Cl
ENDBRANCH  16  18
ENDBRANCH  11  17
ENDBRANCH   1  12
BRANCH   5  26
ATOM     26  O   UNL     1       2.519  -8.279   5.076  0.00  0.00    -0.456 OA
BRANCH  26  27
ATOM     27  C   UNL     1       2.207  -9.598   4.985  0.00  0.00    +0.128 A 
ATOM     28  C   UNL     1       0.998  -9.989   4.427  0.00  0.00    +0.046 A 
ATOM     29  C   UNL     1       0.683 -11.330   4.334  0.00  0.00    +0.004 A 
ATOM     30  C   UNL     1       1.571 -12.284   4.798  0.00  0.00    +0.000 A 
ATOM     31  C   UNL     1       2.776 -11.897   5.354  0.00  0.00    +0.004 A 
ATOM     32  C   UNL     1       3.099 -10.557   5.444  0.00  0.00    +0.046 A 
ENDBRANCH  26  27
ENDBRANCH   5  26
TORSDOF 5
