REMARK  Name = ZINC12665018
REMARK  9 active torsions:
REMARK  status: ('A' for Active; 'I' for Inactive)
REMARK    1  A    between atoms: C_1  and  C_2
REMARK    2  A    between atoms: C_2  and  C_3
REMARK    3  A    between atoms: C_2  and  C_4
REMARK    4  A    between atoms: N_12  and  C_13
REMARK    5  A    between atoms: C_13  and  C_15
REMARK    6  A    between atoms: N_20  and  S_22
REMARK    7  A    between atoms: S_22  and  C_25
REMARK    8  A    between atoms: N_32  and  C_33
REMARK    9  A    between atoms: C_33  and  C_34
REMARK                            x       y       z     vdW  Elec       q    Type
REMARK                         _______ _______ _______ _____ _____    ______ ____
ROOT
ATOM      1  C   UNL     1       3.428  -3.512  -6.894  0.00  0.00    +0.243 C 
ATOM      2  O   UNL     1       4.314  -2.961  -6.269  0.00  0.00    -0.273 OA
ENDROOT
BRANCH   1  11
ATOM      3  C   UNL     1      -1.096   1.534  -5.170  0.00  0.00    -0.044 A 
ATOM      4  C   UNL     1       0.013   1.992  -5.861  0.00  0.00    +0.006 A 
ATOM      5  C   UNL     1       0.987   1.126  -6.299  0.00  0.00    +0.027 A 
ATOM      6  C   UNL     1       0.884  -0.253  -6.055  0.00  0.00    +0.058 A 
ATOM      7  C   UNL     1      -0.249  -0.687  -5.352  0.00  0.00    +0.039 A 
ATOM      8  C   UNL     1      -1.220   0.181  -4.911  0.00  0.00    +0.021 A 
ATOM      9  S   UNL     1      -0.017  -2.443  -5.250  0.00  0.00    -0.052 S 
ATOM     10  C   UNL     1       1.494  -2.549  -6.094  0.00  0.00    +0.167 A 
ATOM     11  N   UNL     1       2.217  -3.634  -6.361  0.00  0.00    -0.156 NA
ATOM     12  N   UNL     1       1.762  -1.256  -6.420  0.00  0.00    -0.317 N 
BRANCH   3  14
ATOM     13  C   UNL     1      -2.749   3.230  -5.904  0.00  0.00    +0.012 C 
ATOM     14  C   UNL     1      -2.152   2.501  -4.699  0.00  0.00    +0.013 C 
ATOM     15  C   UNL     1      -1.524   3.519  -3.746  0.00  0.00    +0.012 C 
ENDBRANCH   3  14
BRANCH  12  16
ATOM     16  C   UNL     1       2.984  -0.927  -7.158  0.00  0.00    +0.151 C 
BRANCH  16  17
ATOM     17  C   UNL     1       2.700   0.196  -8.122  0.00  0.00    -0.013 C 
ATOM     18  C   UNL     1       3.455   1.267  -8.121  0.00  0.00    +0.005 C 
ENDBRANCH  16  17
ENDBRANCH  12  16
ENDBRANCH   1  11
BRANCH   1  19
ATOM     19  C   UNL     1       3.704  -4.055  -8.272  0.00  0.00    +0.093 C 
ATOM     20  C   UNL     1       2.701  -3.462  -9.264  0.00  0.00    +0.015 C 
ATOM     21  C   UNL     1       2.959  -4.037 -10.659  0.00  0.00    +0.018 C 
ATOM     22  C   UNL     1       4.372  -3.655 -11.111  0.00  0.00    +0.109 C 
ATOM     23  N   UNL     1       5.332  -4.096 -10.089  0.00  0.00    -0.176 NA
ATOM     24  C   UNL     1       5.125  -3.673  -8.697  0.00  0.00    +0.122 C 
BRANCH  23  25
ATOM     25  S   UNL     1       6.621  -5.051 -10.498  0.00  0.00    +0.061 S 
ATOM     26  O   UNL     1       6.871  -4.827 -11.879  0.00  0.00    -0.153 OA
ATOM     27  O   UNL     1       7.612  -4.845  -9.501  0.00  0.00    -0.153 OA
BRANCH  25  28
ATOM     28  C   UNL     1       6.096  -6.727 -10.348  0.00  0.00    +0.106 A 
ATOM     29  C   UNL     1       6.251  -7.394  -9.147  0.00  0.00    +0.030 A 
ATOM     30  C   UNL     1       5.835  -8.707  -9.027  0.00  0.00    +0.022 A 
ATOM     31  C   UNL     1       5.272  -9.356 -10.111  0.00  0.00    +0.041 A 
ATOM     32  C   UNL     1       5.122  -8.689 -11.314  0.00  0.00    +0.022 A 
ATOM     33  C   UNL     1       5.534  -7.375 -11.432  0.00  0.00    +0.030 A 
ATOM     34 CL   UNL     1       4.756 -11.006  -9.963  0.00  0.00    -0.084 Cl
ENDBRANCH  25  28
ENDBRANCH  23  25
ENDBRANCH   1  19
TORSDOF 7
