REMARK  Name = ZINC08987638
REMARK  10 active torsions:
REMARK  status: ('A' for Active; 'I' for Inactive)
REMARK    1  A    between atoms: C_1  and  C_2
REMARK    2  A    between atoms: C_4  and  C_31
REMARK    3  A    between atoms: C_5  and  N_9
REMARK    4  A    between atoms: C_6  and  C_8
REMARK    5  A    between atoms: C_10  and  C_12
REMARK    6  A    between atoms: C_12  and  N_61
REMARK    7  A    between atoms: C_13  and  N_61
REMARK    8  A    between atoms: C_14  and  C_15
REMARK    9  A    between atoms: C_14  and  N_61
REMARK   10  A    between atoms: C_17  and  C_20
REMARK                            x       y       z     vdW  Elec       q    Type
REMARK                         _______ _______ _______ _____ _____    ______ ____
ROOT
ATOM      1  C   UNL     1       1.140   2.221  -0.621  0.00  0.00    -0.015 C 
ENDROOT
BRANCH   1   2
ATOM      2  C   UNL     1       1.104   3.438   0.268  0.00  0.00    +0.062 A 
ATOM      3  N   UNL     1       0.183   3.799   1.128  0.00  0.00    -0.246 NA
ATOM      4  C   UNL     1       0.301   4.908   1.841  0.00  0.00    +0.078 A 
ATOM      5  C   UNL     1       1.419   5.675   1.654  0.00  0.00    +0.075 A 
ATOM      6  S   UNL     1       2.276   4.710   0.417  0.00  0.00    -0.082 S 
BRANCH   4   7
ATOM      7  C   UNL     1      -0.747   5.309   2.812  0.00  0.00    +0.005 A 
ATOM      8  C   UNL     1      -1.878   4.513   2.985  0.00  0.00    +0.014 A 
ATOM      9  C   UNL     1      -2.855   4.884   3.888  0.00  0.00    +0.050 A 
ATOM     10  C   UNL     1      -2.709   6.051   4.622  0.00  0.00    +0.162 A 
ATOM     11  C   UNL     1      -1.584   6.847   4.454  0.00  0.00    +0.163 A 
ATOM     12  C   UNL     1      -0.599   6.479   3.556  0.00  0.00    +0.059 A 
ATOM     13  O   UNL     1      -1.454   7.994   5.183  0.00  0.00    -0.488 OA
ATOM     14  C   UNL     1      -1.250   7.822   6.587  0.00  0.00    +0.232 C 
ATOM     15  C   UNL     1      -2.578   7.647   7.307  0.00  0.00    +0.082 C 
ATOM     16  C   UNL     1      -3.297   6.372   6.894  0.00  0.00    +0.232 C 
ATOM     17  O   UNL     1      -3.671   6.424   5.516  0.00  0.00    -0.488 OA
ENDBRANCH   4   7
ENDBRANCH   1   2
BRANCH   1  19
ATOM     18  C   UNL     1       1.276   3.535  -2.650  0.00  0.00    -0.095 C 
ATOM     19  N   UNL     1       0.473   2.546  -1.900  0.00  0.00    +0.388 N 
ATOM     20  H   UNL     1      -0.451   2.947  -1.702  0.00  0.00    -0.081 HD
BRANCH  19  21
ATOM     21  C   UNL     1       0.302   1.319  -2.706  0.00  0.00    +0.019 C 
BRANCH  21  23
ATOM     22  N   UNL     1      -0.886   0.666  -4.775  0.00  0.00    -0.287 N 
ATOM     23  C   UNL     1      -0.569   1.636  -3.894  0.00  0.00    +0.201 C 
ATOM     24  O   UNL     1      -0.984   2.764  -4.059  0.00  0.00    -0.278 OA
ATOM     25  H   UNL     1      -0.512  -0.223  -4.673  0.00  0.00    +0.155 HD
BRANCH  22  30
ATOM     26  C   UNL     1      -4.411   1.784  -9.077  0.00  0.00    +0.044 C 
ATOM     27  C   UNL     1      -3.475   1.487  -7.934  0.00  0.00    -0.050 A 
ATOM     28  C   UNL     1      -2.246   0.904  -8.183  0.00  0.00    +0.008 A 
ATOM     29  C   UNL     1      -1.385   0.631  -7.138  0.00  0.00    -0.029 A 
ATOM     30  C   UNL     1      -1.756   0.942  -5.836  0.00  0.00    +0.039 A 
ATOM     31  C   UNL     1      -2.993   1.522  -5.589  0.00  0.00    -0.029 A 
ATOM     32  C   UNL     1      -3.846   1.798  -6.639  0.00  0.00    +0.008 A 
ATOM     33  C   UNL     1      -3.401   1.855  -4.177  0.00  0.00    +0.045 C 
ATOM     34  C   UNL     1      -0.046  -0.004  -7.410  0.00  0.00    +0.045 C 
ENDBRANCH  22  30
ENDBRANCH  21  23
ENDBRANCH  19  21
ENDBRANCH   1  19
TORSDOF 6
