REMARK  Name = ZINC03374309
REMARK  9 active torsions:
REMARK  status: ('A' for Active; 'I' for Inactive)
REMARK    1  A    between atoms: C_1  and  C_2
REMARK    2  A    between atoms: C_2  and  N_3
REMARK    3  A    between atoms: C_7  and  C_29
REMARK    4  A    between atoms: C_8  and  C_28
REMARK    5  A    between atoms: C_12  and  S_13
REMARK    6  A    between atoms: S_13  and  C_14
REMARK    7  A    between atoms: C_14  and  C_15
REMARK    8  A    between atoms: N_17  and  C_18
REMARK    9  A    between atoms: C_20  and  N_25
REMARK                            x       y       z     vdW  Elec       q    Type
REMARK                         _______ _______ _______ _____ _____    ______ ____
ROOT
ATOM      1  S   UNL     1      -0.846   1.693   1.497  0.00  0.00    -0.078 S 
ENDROOT
BRANCH   1  11
ATOM      2  N   UNL     1      -0.092   1.206   4.053  0.00  0.00    -0.288 N 
ATOM      3  C   UNL     1       0.680   0.690   5.027  0.00  0.00    +0.263 A 
ATOM      4  O   UNL     1       0.410   0.887   6.199  0.00  0.00    -0.267 OA
ATOM      5  C   UNL     1       1.823  -0.093   4.668  0.00  0.00    +0.075 A 
ATOM      6  C   UNL     1       2.796  -0.747   5.527  0.00  0.00    -0.026 A 
ATOM      7  C   UNL     1       3.801  -1.438   4.970  0.00  0.00    -0.008 A 
ATOM      8  S   UNL     1       3.508  -1.258   3.221  0.00  0.00    -0.073 S 
ATOM      9  C   UNL     1       2.043  -0.259   3.288  0.00  0.00    +0.117 A 
ATOM     10  N   UNL     1       1.239   0.275   2.377  0.00  0.00    -0.216 NA
ATOM     11  C   UNL     1       0.196   0.996   2.735  0.00  0.00    +0.173 A 
ATOM     12  C   UNL     1       4.912  -2.188   5.658  0.00  0.00    +0.052 C 
ATOM     13  C   UNL     1       2.676  -0.650   7.026  0.00  0.00    +0.045 C 
BRANCH   2  15
ATOM     14  C   UNL     1      -2.483   1.097   4.552  0.00  0.00    +0.027 C 
ATOM     15  C   UNL     1      -1.263   2.009   4.414  0.00  0.00    +0.124 C 
ENDBRANCH   2  15
ENDBRANCH   1  11
BRANCH   1  16
ATOM     16  C   UNL     1      -0.002   1.103   0.008  0.00  0.00    +0.173 C 
BRANCH  16  17
ATOM     17  C   UNL     1      -0.738   1.591  -1.213  0.00  0.00    +0.228 C 
ATOM     18  O   UNL     1      -1.734   2.272  -1.089  0.00  0.00    -0.275 OA
ATOM     19  N   UNL     1      -0.288   1.272  -2.443  0.00  0.00    -0.282 N 
ATOM     20  H   UNL     1       0.543   0.783  -2.544  0.00  0.00    +0.155 HD
BRANCH  19  21
ATOM     21  C   UNL     1      -1.022   1.647  -3.576  0.00  0.00    +0.071 A 
ATOM     22  C   UNL     1      -1.723   2.845  -3.586  0.00  0.00    +0.059 A 
ATOM     23  C   UNL     1      -2.441   3.214  -4.706  0.00  0.00    +0.128 A 
ATOM     24  C   UNL     1      -2.473   2.387  -5.814  0.00  0.00    +0.035 A 
ATOM     25  C   UNL     1      -1.781   1.190  -5.807  0.00  0.00    +0.042 A 
ATOM     26  C   UNL     1      -1.055   0.816  -4.691  0.00  0.00    +0.145 A 
ATOM     27  F   UNL     1      -0.379  -0.353  -4.683  0.00  0.00    -0.204 F 
BRANCH  23  28
ATOM     28  N   UNL     1      -3.184   4.495  -4.719  0.00  0.00    +0.056 N 
ATOM     29  O   UNL     1      -3.822   4.819  -5.705  0.00  0.00    -0.126 OA
ATOM     30  O   UNL     1      -3.157   5.224  -3.744  0.00  0.00    -0.126 OA
ENDBRANCH  23  28
ENDBRANCH  19  21
ENDBRANCH  16  17
ENDBRANCH   1  16
TORSDOF 6
