REMARK  Name = ZINC39487881
REMARK  10 active torsions:
REMARK  status: ('A' for Active; 'I' for Inactive)
REMARK    1  A    between atoms: C_1  and  C_2
REMARK    2  A    between atoms: C_2  and  O_3
REMARK    3  A    between atoms: O_3  and  N_4
REMARK    4  A    between atoms: C_6  and  C_30
REMARK    5  A    between atoms: C_6  and  C_31
REMARK    6  A    between atoms: N_7  and  C_10
REMARK    7  A    between atoms: C_10  and  C_11
REMARK    8  A    between atoms: C_11  and  C_24
REMARK    9  A    between atoms: N_14  and  C_17
REMARK   10  A    between atoms: C_17  and  C_18
REMARK                            x       y       z     vdW  Elec       q    Type
REMARK                         _______ _______ _______ _____ _____    ______ ____
ROOT
ATOM      1  C   UNL     1      -1.318  -4.459  -1.569  0.00  0.00    -0.014 C 
ATOM      2  C   UNL     1      -1.724  -2.985  -1.643  0.00  0.00    -0.010 C 
ATOM      3  C   UNL     1      -0.467  -2.119  -1.737  0.00  0.00    -0.078 C 
ATOM      4  N   UNL     1       0.372  -2.337  -0.552  0.00  0.00    +0.382 N 
ATOM      5  C   UNL     1       0.825  -3.733  -0.514  0.00  0.00    -0.078 C 
ATOM      6  C   UNL     1      -0.383  -4.661  -0.372  0.00  0.00    -0.010 C 
ATOM      7  H   UNL     1      -0.162  -2.135   0.279  0.00  0.00    -0.081 HD
ENDROOT
BRANCH   1   8
ATOM      8  C   UNL     1      -2.566  -5.328  -1.395  0.00  0.00    -0.003 C 
ATOM      9  C   UNL     1      -3.595  -4.961  -2.466  0.00  0.00    +0.004 C 
ATOM     10  C   UNL     1      -4.843  -5.829  -2.293  0.00  0.00    +0.000 C 
ATOM     11  C   UNL     1      -5.442  -5.590  -0.905  0.00  0.00    +0.000 C 
ATOM     12  C   UNL     1      -4.413  -5.957   0.165  0.00  0.00    +0.000 C 
ATOM     13  C   UNL     1      -3.165  -5.088  -0.008  0.00  0.00    +0.004 C 
ENDBRANCH   1   8
BRANCH   1  14
ATOM     14  C   UNL     1      -0.594  -4.856  -2.857  0.00  0.00    +0.117 C 
BRANCH  14  18
ATOM     15  N   UNL     1      -0.894  -8.486  -3.062  0.00  0.00    -0.162 N 
ATOM     16  C   UNL     1       0.549  -8.482  -2.778  0.00  0.00    +0.172 C 
ATOM     17  C   UNL     1       0.897  -6.987  -2.649  0.00  0.00    +0.079 C 
ATOM     18  N   UNL     1      -0.387  -6.306  -2.874  0.00  0.00    -0.272 N 
ATOM     19  C   UNL     1      -1.337  -7.222  -3.104  0.00  0.00    +0.329 C 
ATOM     20  O   UNL     1      -2.497  -6.934  -3.327  0.00  0.00    -0.250 OA
ATOM     21  C   UNL     1       1.430  -6.678  -1.249  0.00  0.00    +0.039 C 
BRANCH  17  22
ATOM     22  C   UNL     1       1.900  -6.585  -3.700  0.00  0.00    -0.023 A 
ATOM     23  C   UNL     1       1.559  -5.649  -4.659  0.00  0.00    +0.006 A 
ATOM     24  C   UNL     1       2.479  -5.280  -5.622  0.00  0.00    +0.000 A 
ATOM     25  C   UNL     1       3.740  -5.846  -5.626  0.00  0.00    +0.000 A 
ATOM     26  C   UNL     1       4.082  -6.781  -4.667  0.00  0.00    +0.000 A 
ATOM     27  C   UNL     1       3.163  -7.147  -3.700  0.00  0.00    +0.006 A 
ENDBRANCH  17  22
BRANCH  15  28
ATOM     28  O   UNL     1      -1.687  -9.641  -3.264  0.00  0.00    -0.276 OA
BRANCH  28  30
ATOM     29  C   UNL     1      -2.635 -11.316  -4.726  0.00  0.00    +0.036 C 
ATOM     30  C   UNL     1      -1.756 -10.067  -4.626  0.00  0.00    +0.187 C 
ENDBRANCH  28  30
ENDBRANCH  15  28
ENDBRANCH  14  18
ENDBRANCH   1  14
BRANCH   4  31
ATOM     31  C   UNL     1       1.539  -1.447  -0.610  0.00  0.00    -0.043 C 
BRANCH  31  32
ATOM     32  C   UNL     1       2.301  -1.534   0.688  0.00  0.00    -0.064 A 
ATOM     33  C   UNL     1       1.907  -0.774   1.773  0.00  0.00    +0.002 A 
ATOM     34  C   UNL     1       2.606  -0.854   2.963  0.00  0.00    +0.000 A 
ATOM     35  C   UNL     1       3.699  -1.693   3.068  0.00  0.00    +0.000 A 
ATOM     36  C   UNL     1       4.093  -2.454   1.982  0.00  0.00    +0.000 A 
ATOM     37  C   UNL     1       3.391  -2.377   0.794  0.00  0.00    +0.002 A 
ENDBRANCH  31  32
ENDBRANCH   4  31
TORSDOF 8
