REMARK  Name = ZINC45916190
REMARK  6 active torsions:
REMARK  status: ('A' for Active; 'I' for Inactive)
REMARK    1  A    between atoms: C_1  and  C_2
REMARK    2  A    between atoms: C_7  and  C_8
REMARK    3  A    between atoms: C_8  and  O_9
REMARK    4  A    between atoms: O_9  and  C_10
REMARK    5  A    between atoms: C_10  and  C_12
REMARK    6  A    between atoms: C_17  and  N_18
REMARK                            x       y       z     vdW  Elec       q    Type
REMARK                         _______ _______ _______ _____ _____    ______ ____
ROOT
ATOM      1  C   UNL     1       0.020  -1.283   6.003  0.00  0.00    +0.080 A 
ATOM      2  C   UNL     1      -0.062  -2.662   5.816  0.00  0.00    +0.017 A 
ATOM      3  C   UNL     1       0.015  -3.521   6.897  0.00  0.00    +0.013 A 
ATOM      4  C   UNL     1       0.175  -3.018   8.186  0.00  0.00    +0.035 A 
ATOM      5  C   UNL     1       0.260  -1.630   8.393  0.00  0.00    +0.054 A 
ATOM      6  C   UNL     1       0.188  -0.758   7.298  0.00  0.00    +0.050 A 
ATOM      7  C   UNL     1       0.428  -1.094   9.754  0.00  0.00    +0.196 C 
ATOM      8  O   UNL     1       0.500   0.107   9.931  0.00  0.00    -0.287 OA
ATOM      9  C   UNL     1       0.508  -2.017  10.906  0.00  0.00    +0.033 A 
ATOM     10  C   UNL     1       0.666  -1.517  12.196  0.00  0.00    +0.012 A 
ATOM     11  C   UNL     1       0.740  -2.388  13.269  0.00  0.00    +0.001 A 
ATOM     12  C   UNL     1       0.658  -3.754  13.069  0.00  0.00    +0.001 A 
ATOM     13  C   UNL     1       0.501  -4.268  11.794  0.00  0.00    +0.012 A 
ATOM     14  C   UNL     1       0.424  -3.405  10.703  0.00  0.00    +0.033 A 
ATOM     15  C   UNL     1       0.255  -3.944   9.338  0.00  0.00    +0.195 C 
ATOM     16  O   UNL     1       0.182  -5.144   9.162  0.00  0.00    -0.287 OA
ENDROOT
BRANCH   6  17
ATOM     17  N   UNL     1       0.275   0.606   7.488  0.00  0.00    -0.357 N 
ATOM     18  H   UNL     1      -0.212   1.209   6.905  0.00  0.00    +0.142 HD
ATOM     19  H   UNL     1       0.824   0.961   8.205  0.00  0.00    +0.142 HD
ENDBRANCH   6  17
BRANCH   1  20
ATOM     20  C   UNL     1      -0.062  -0.375   4.843  0.00  0.00    +0.341 C 
ATOM     21  O   UNL     1      -0.027   0.828   5.010  0.00  0.00    -0.245 OA
BRANCH  20  22
ATOM     22  O   UNL     1      -0.176  -0.880   3.599  0.00  0.00    -0.456 OA
BRANCH  22  23
ATOM     23  C   UNL     1      -0.251   0.057   2.523  0.00  0.00    +0.268 C 
BRANCH  23  30
ATOM     24  C   UNL     1      -0.436   1.522   0.039  0.00  0.00    +0.044 C 
ATOM     25  C   UNL     1      -0.463   0.015   0.029  0.00  0.00    -0.044 A 
ATOM     26  C   UNL     1      -0.571  -0.667  -1.169  0.00  0.00    +0.004 A 
ATOM     27  C   UNL     1      -0.595  -2.049  -1.178  0.00  0.00    +0.000 A 
ATOM     28  C   UNL     1      -0.512  -2.749   0.011  0.00  0.00    +0.000 A 
ATOM     29  C   UNL     1      -0.404  -2.068   1.209  0.00  0.00    +0.007 A 
ATOM     30  C   UNL     1      -0.375  -0.686   1.218  0.00  0.00    -0.007 A 
ENDBRANCH  23  30
ENDBRANCH  22  23
ENDBRANCH  20  22
ENDBRANCH   1  20
TORSDOF 5
