REMARK  Name = ZINC16393167
REMARK  11 active torsions:
REMARK  status: ('A' for Active; 'I' for Inactive)
REMARK    1  A    between atoms: C_1  and  C_2
REMARK    2  A    between atoms: C_3  and  C_33
REMARK    3  A    between atoms: C_4  and  C_24
REMARK    4  A    between atoms: C_10  and  C_15
REMARK    5  A    between atoms: C_18  and  N_21
REMARK    6  A    between atoms: N_21  and  C_22
REMARK    7  A    between atoms: N_21  and  C_23
REMARK    8  A    between atoms: C_27  and  N_30
REMARK    9  A    between atoms: C_33  and  O_35
REMARK   10  A    between atoms: O_35  and  C_36
REMARK   11  A    between atoms: C_36  and  C_37
REMARK                            x       y       z     vdW  Elec       q    Type
REMARK                         _______ _______ _______ _____ _____    ______ ____
ROOT
ATOM      1  C   UNL     1      -0.168   4.114  -0.262  0.00  0.00    +0.061 C 
ATOM      2  C   UNL     1       1.162   3.413  -0.154  0.00  0.00    +0.031 C 
ATOM      3  C   UNL     1       1.203   2.074  -0.045  0.00  0.00    +0.154 C 
ATOM      4  C   UNL     1       2.510   1.342   0.063  0.00  0.00    +0.073 C 
ATOM      5  C   UNL     1       3.655   2.211  -0.394  0.00  0.00    +0.025 C 
ATOM      6  C   UNL     1       3.513   3.549  -0.474  0.00  0.00    +0.049 C 
ATOM      7  N   UNL     1       2.317   4.143  -0.168  0.00  0.00    -0.260 NA
ATOM      8  C   UNL     1       4.658   4.428  -0.918  0.00  0.00    +0.064 C 
ATOM      9  C   UNL     1       5.549   3.659  -1.895  0.00  0.00    +0.032 C 
ATOM     10  C   UNL     1       6.053   2.389  -1.200  0.00  0.00    +0.088 C 
ATOM     11  C   UNL     1       4.870   1.588  -0.727  0.00  0.00    +0.162 C 
ATOM     12  O   UNL     1       4.967   0.381  -0.633  0.00  0.00    -0.292 OA
ENDROOT
BRANCH   9  13
ATOM     13  C   UNL     1       6.723   4.517  -2.293  0.00  0.00    -0.043 A 
ATOM     14  C   UNL     1       7.599   4.977  -1.327  0.00  0.00    +0.006 A 
ATOM     15  C   UNL     1       8.679   5.759  -1.689  0.00  0.00    +0.023 A 
ATOM     16  C   UNL     1       8.877   6.093  -3.023  0.00  0.00    +0.029 A 
ATOM     17  C   UNL     1       7.991   5.633  -3.990  0.00  0.00    +0.023 A 
ATOM     18  C   UNL     1       6.917   4.847  -3.621  0.00  0.00    +0.006 A 
BRANCH  16  19
ATOM     19  N   UNL     1       9.964   6.888  -3.392  0.00  0.00    -0.336 N 
ATOM     20  C   UNL     1      10.109   7.333  -4.780  0.00  0.00    +0.129 C 
ATOM     21  C   UNL     1      10.959   7.279  -2.390  0.00  0.00    +0.129 C 
ENDBRANCH  16  19
ENDBRANCH   9  13
BRANCH   4  22
ATOM     22  C   UNL     1       2.740   0.933   1.495  0.00  0.00    -0.039 A 
ATOM     23  C   UNL     1       2.821   1.896   2.484  0.00  0.00    +0.006 A 
ATOM     24  C   UNL     1       3.027   1.522   3.798  0.00  0.00    +0.033 A 
ATOM     25  C   UNL     1       3.162   0.185   4.123  0.00  0.00    +0.126 A 
ATOM     26  C   UNL     1       3.086  -0.778   3.134  0.00  0.00    +0.033 A 
ATOM     27  C   UNL     1       2.875  -0.403   1.820  0.00  0.00    +0.006 A 
BRANCH  25  28
ATOM     28  N   UNL     1       3.386  -0.216   5.530  0.00  0.00    +0.056 N 
ATOM     29  O   UNL     1       3.504  -1.394   5.816  0.00  0.00    -0.126 OA
ATOM     30  O   UNL     1       3.453   0.632   6.402  0.00  0.00    -0.126 OA
ENDBRANCH  25  28
ENDBRANCH   4  22
BRANCH   3  31
ATOM     31  C   UNL     1      -0.006   1.340  -0.034  0.00  0.00    +0.317 C 
ATOM     32  O   UNL     1      -1.073   1.926  -0.015  0.00  0.00    -0.250 OA
BRANCH  31  33
ATOM     33  O   UNL     1       0.022  -0.009  -0.050  0.00  0.00    -0.462 OA
BRANCH  33  34
ATOM     34  C   UNL     1      -1.237  -0.684  -0.037  0.00  0.00    +0.263 C 
BRANCH  34  35
ATOM     35  C   UNL     1      -1.004  -2.196  -0.058  0.00  0.00    +0.156 C 
ATOM     36  C   UNL     1      -2.349  -2.935   0.081  0.00  0.00    +0.037 C 
ATOM     37  C   UNL     1      -2.438  -3.807  -1.195  0.00  0.00    +0.031 C 
ATOM     38  C   UNL     1      -0.953  -3.895  -1.631  0.00  0.00    +0.160 C 
ATOM     39  O   UNL     1      -0.432  -2.586  -1.318  0.00  0.00    -0.373 OA
ENDBRANCH  34  35
ENDBRANCH  33  34
ENDBRANCH  31  33
ENDBRANCH   3  31
TORSDOF 8
