REMARK  Name = ZINC15483815
REMARK  10 active torsions:
REMARK  status: ('A' for Active; 'I' for Inactive)
REMARK    1  A    between atoms: C_1  and  C_2
REMARK    2  A    between atoms: C_4  and  S_27
REMARK    3  A    between atoms: C_6  and  N_9
REMARK    4  A    between atoms: C_7  and  C_8
REMARK    5  A    between atoms: C_10  and  C_12
REMARK    6  A    between atoms: C_12  and  N_61
REMARK    7  A    between atoms: C_13  and  C_14
REMARK    8  A    between atoms: C_13  and  N_61
REMARK    9  A    between atoms: C_21  and  N_61
REMARK   10  A    between atoms: S_27  and  N_30
REMARK                            x       y       z     vdW  Elec       q    Type
REMARK                         _______ _______ _______ _____ _____    ______ ____
ROOT
ATOM      1  N   UNL     1      -3.340   0.261   4.917  0.00  0.00    -0.287 N 
ATOM      2  C   UNL     1      -3.461  -0.836   4.143  0.00  0.00    +0.201 C 
ATOM      3  O   UNL     1      -2.567  -1.142   3.382  0.00  0.00    -0.278 OA
ATOM      4  H   UNL     1      -4.023   0.468   5.574  0.00  0.00    +0.155 HD
ENDROOT
BRANCH   1  10
ATOM      5  C   UNL     1      -1.405   4.778   5.062  0.00  0.00    +0.044 C 
ATOM      6  C   UNL     1      -1.264   3.295   4.836  0.00  0.00    -0.044 A 
ATOM      7  C   UNL     1      -0.035   2.762   4.491  0.00  0.00    +0.032 A 
ATOM      8  C   UNL     1       0.097   1.402   4.278  0.00  0.00    +0.107 A 
ATOM      9  C   UNL     1      -0.997   0.570   4.420  0.00  0.00    +0.052 A 
ATOM     10  C   UNL     1      -2.231   1.101   4.772  0.00  0.00    +0.038 A 
ATOM     11  C   UNL     1      -2.361   2.469   4.980  0.00  0.00    -0.026 A 
ATOM     12  C   UNL     1      -3.698   3.049   5.361  0.00  0.00    +0.046 C 
BRANCH   8  13
ATOM     13  S   UNL     1       1.663   0.729   3.832  0.00  0.00    +0.056 S 
ATOM     14  O   UNL     1       1.646  -0.635   4.228  0.00  0.00    -0.153 OA
ATOM     15  O   UNL     1       2.645   1.645   4.296  0.00  0.00    -0.153 OA
BRANCH  13  16
ATOM     16  N   UNL     1       1.748   0.741   2.178  0.00  0.00    -0.204 NA
ATOM     17  H   UNL     1       1.865  -0.090   1.693  0.00  0.00    +0.144 HD
ATOM     18  H   UNL     1       1.681   1.579   1.695  0.00  0.00    +0.144 HD
ENDBRANCH  13  16
ENDBRANCH   8  13
ENDBRANCH   1  10
BRANCH   2  19
ATOM     19  C   UNL     1      -4.705  -1.681   4.223  0.00  0.00    +0.020 C 
BRANCH  19  20
ATOM     20  N   UNL     1      -4.529  -2.868   3.359  0.00  0.00    +0.390 N 
ATOM     21  H   UNL     1      -3.595  -3.262   3.521  0.00  0.00    -0.080 HD
BRANCH  20  22
ATOM     22  C   UNL     1      -4.648  -2.481   1.938  0.00  0.00    -0.067 C 
ATOM     23  C   UNL     1      -6.119  -2.312   1.551  0.00  0.00    -0.015 C 
ATOM     24  C   UNL     1      -6.216  -1.920   0.075  0.00  0.00    -0.002 C 
ATOM     25  C   UNL     1      -5.584  -3.016  -0.786  0.00  0.00    -0.000 C 
ATOM     26  C   UNL     1      -4.114  -3.185  -0.399  0.00  0.00    -0.002 C 
ATOM     27  C   UNL     1      -4.017  -3.577   1.077  0.00  0.00    -0.015 C 
ENDBRANCH  20  22
BRANCH  20  28
ATOM     28  C   UNL     1      -5.544  -3.890   3.692  0.00  0.00    -0.042 C 
BRANCH  28  29
ATOM     29  C   UNL     1      -5.127  -5.203   3.082  0.00  0.00    -0.064 A 
ATOM     30  C   UNL     1      -5.836  -5.726   2.016  0.00  0.00    +0.004 A 
ATOM     31  C   UNL     1      -5.451  -6.928   1.453  0.00  0.00    +0.038 A 
ATOM     32  C   UNL     1      -4.361  -7.614   1.963  0.00  0.00    +0.123 A 
ATOM     33  C   UNL     1      -3.656  -7.091   3.034  0.00  0.00    +0.038 A 
ATOM     34  C   UNL     1      -4.039  -5.887   3.592  0.00  0.00    +0.004 A 
ATOM     35  F   UNL     1      -3.987  -8.791   1.417  0.00  0.00    -0.205 F 
ENDBRANCH  28  29
ENDBRANCH  20  28
ENDBRANCH  19  20
ENDBRANCH   2  19
TORSDOF 8
