REMARK  Name = ZINC08612214
REMARK  7 active torsions:
REMARK  status: ('A' for Active; 'I' for Inactive)
REMARK    1  A    between atoms: C_1  and  C_2
REMARK    2  A    between atoms: C_9  and  C_13
REMARK    3  A    between atoms: N_15  and  C_16
REMARK    4  A    between atoms: C_24  and  C_25
REMARK    5  A    between atoms: C_25  and  C_27
REMARK    6  A    between atoms: C_30  and  O_34
REMARK    7  A    between atoms: O_34  and  C_35
REMARK                            x       y       z     vdW  Elec       q    Type
REMARK                         _______ _______ _______ _____ _____    ______ ____
ROOT
ATOM      1  C   UNL     1      -0.703  -4.549   6.055  0.00  0.00    +0.091 A 
ATOM      2  C   UNL     1      -1.046  -3.886   7.319  0.00  0.00    +0.042 A 
ATOM      3  C   UNL     1      -1.283  -2.560   7.684  0.00  0.00    +0.013 A 
ATOM      4  C   UNL     1      -1.589  -2.259   8.982  0.00  0.00    +0.001 A 
ATOM      5  C   UNL     1      -1.665  -3.263   9.937  0.00  0.00    +0.004 A 
ATOM      6  C   UNL     1      -1.434  -4.578   9.595  0.00  0.00    +0.047 A 
ATOM      7  C   UNL     1      -1.122  -4.908   8.281  0.00  0.00    +0.138 A 
ATOM      8  O   UNL     1      -0.853  -6.079   7.669  0.00  0.00    -0.450 OA
ATOM      9  C   UNL     1      -0.608  -5.895   6.353  0.00  0.00    +0.197 A 
ENDROOT
BRANCH   1  12
ATOM     10  C   UNL     1       0.032  -2.723   4.739  0.00  0.00    +0.284 C 
ATOM     11  O   UNL     1       0.278  -2.101   5.753  0.00  0.00    -0.266 OA
ATOM     12  N   UNL     1      -0.519  -3.950   4.818  0.00  0.00    -0.275 N 
ATOM     13  H   UNL     1      -0.787  -4.414   4.010  0.00  0.00    +0.155 HD
BRANCH  10  22
ATOM     14  C   UNL     1       1.013  -4.058  -2.307  0.00  0.00    +0.044 C 
ATOM     15  C   UNL     1       1.059  -3.074  -1.167  0.00  0.00    -0.047 A 
ATOM     16  C   UNL     1       1.629  -1.823  -1.363  0.00  0.00    +0.004 A 
ATOM     17  C   UNL     1       1.683  -0.920  -0.338  0.00  0.00    +0.015 A 
ATOM     18  C   UNL     1       1.161  -1.260   0.908  0.00  0.00    +0.064 A 
ATOM     19  C   UNL     1       1.209  -0.323   2.049  0.00  0.00    +0.193 A 
ATOM     20  O   UNL     1       1.493   0.853   1.906  0.00  0.00    -0.287 OA
ATOM     21  C   UNL     1       0.893  -0.895   3.369  0.00  0.00    +0.103 A 
ATOM     22  C   UNL     1       0.338  -2.132   3.416  0.00  0.00    +0.194 A 
ATOM     23  O   UNL     1       0.056  -2.842   2.315  0.00  0.00    -0.450 OA
ATOM     24  C   UNL     1       0.574  -2.521   1.114  0.00  0.00    +0.140 A 
ATOM     25  C   UNL     1       0.529  -3.424   0.056  0.00  0.00    +0.050 A 
ENDBRANCH  10  22
ENDBRANCH   1  12
BRANCH   9  26
ATOM     26  C   UNL     1      -0.298  -6.920   5.425  0.00  0.00    +0.230 C 
ATOM     27  O   UNL     1       0.006  -6.634   4.280  0.00  0.00    -0.283 OA
BRANCH  26  28
ATOM     28  C   UNL     1      -0.345  -8.335   5.845  0.00  0.00    +0.027 A 
ATOM     29  C   UNL     1      -0.573  -8.661   7.185  0.00  0.00    +0.015 A 
ATOM     30  C   UNL     1      -0.616  -9.982   7.573  0.00  0.00    +0.048 A 
ATOM     31  C   UNL     1      -0.434 -10.991   6.635  0.00  0.00    +0.138 A 
ATOM     32  C   UNL     1      -0.207 -10.671   5.300  0.00  0.00    +0.083 A 
ATOM     33  C   UNL     1      -0.168  -9.352   4.903  0.00  0.00    +0.035 A 
ATOM     34 CL   UNL     1       0.021 -11.936   4.133  0.00  0.00    -0.080 Cl
BRANCH  31  35
ATOM     35  O   UNL     1      -0.477 -12.291   7.022  0.00  0.00    -0.494 OA
ATOM     36  C   UNL     1      -0.714 -12.548   8.408  0.00  0.00    +0.277 C 
ENDBRANCH  31  35
ENDBRANCH  26  28
ENDBRANCH   9  26
TORSDOF 5
