REMARK  Name = ZINC40035729
REMARK  7 active torsions:
REMARK  status: ('A' for Active; 'I' for Inactive)
REMARK    1  A    between atoms: C_1  and  C_2
REMARK    2  A    between atoms: C_2  and  C_3
REMARK    3  A    between atoms: C_3  and  C_38
REMARK    4  A    between atoms: N_15  and  C_31
REMARK    5  A    between atoms: N_18  and  N_19
REMARK    6  A    between atoms: C_20  and  C_21
REMARK    7  A    between atoms: C_34  and  C_37
REMARK                            x       y       z     vdW  Elec       q    Type
REMARK                         _______ _______ _______ _____ _____    ______ ____
ROOT
ATOM      1  C   UNL     1       1.204  -1.104   1.822  0.00  0.00    +0.004 C 
ATOM      2  C   UNL     1       0.921  -2.604   1.836  0.00  0.00    +0.047 C 
ATOM      3  C   UNL     1      -0.550  -2.867   1.666  0.00  0.00    -0.037 A 
ATOM      4  C   UNL     1      -0.987  -3.964   0.952  0.00  0.00    +0.004 A 
ATOM      5  C   UNL     1      -2.342  -4.201   0.805  0.00  0.00    +0.000 A 
ATOM      6  C   UNL     1      -3.268  -3.343   1.369  0.00  0.00    +0.001 A 
ATOM      7  C   UNL     1      -2.845  -2.240   2.084  0.00  0.00    +0.010 A 
ATOM      8  C   UNL     1      -1.483  -1.997   2.234  0.00  0.00    +0.004 A 
ATOM      9  C   UNL     1      -0.998  -0.818   2.987  0.00  0.00    +0.084 A 
ATOM     10  C   UNL     1       0.306  -0.387   2.791  0.00  0.00    +0.050 A 
ATOM     11  C   UNL     1       0.765   0.723   3.510  0.00  0.00    +0.264 A 
ATOM     12  O   UNL     1       1.907   1.130   3.366  0.00  0.00    -0.267 OA
ATOM     13  N   UNL     1      -0.082   1.335   4.366  0.00  0.00    -0.248 N 
ATOM     14  C   UNL     1      -1.357   0.874   4.517  0.00  0.00    +0.223 A 
ATOM     15  N   UNL     1      -1.794  -0.172   3.846  0.00  0.00    -0.214 NA
ATOM     16  N   UNL     1      -2.201   1.512   5.388  0.00  0.00    -0.206 N 
ATOM     17  C   UNL     1       2.663  -0.862   2.214  0.00  0.00    +0.016 C 
ATOM     18  H   UNL     1      -1.916   2.326   5.832  0.00  0.00    +0.177 HD
ENDROOT
BRANCH  13  19
ATOM     19  C   UNL     1       0.351   2.446   5.101  0.00  0.00    +0.053 A 
ATOM     20  C   UNL     1       0.906   2.272   6.362  0.00  0.00    +0.026 A 
ATOM     21  C   UNL     1       1.332   3.369   7.085  0.00  0.00    +0.005 A 
ATOM     22  C   UNL     1       1.205   4.640   6.554  0.00  0.00    -0.050 A 
ATOM     23  C   UNL     1       0.652   4.816   5.299  0.00  0.00    +0.005 A 
ATOM     24  C   UNL     1       0.230   3.722   4.569  0.00  0.00    +0.026 A 
ATOM     25  C   UNL     1       1.670   5.835   7.345  0.00  0.00    +0.044 C 
ENDBRANCH  13  19
BRANCH   1  27
ATOM     26  C   UNL     1       1.271   0.940   0.387  0.00  0.00    +0.005 C 
ATOM     27  C   UNL     1       0.963  -0.558   0.413  0.00  0.00    +0.008 C 
ENDBRANCH   1  27
BRANCH  16  28
ATOM     28  N   UNL     1      -3.476   0.988   5.638  0.00  0.00    -0.188 NA
ATOM     29  C   UNL     1      -4.279   1.594   6.466  0.00  0.00    +0.137 C 
BRANCH  29  30
ATOM     30  C   UNL     1      -5.569   1.065   6.718  0.00  0.00    +0.010 C 
ATOM     31  C   UNL     1      -5.969  -0.076   6.104  0.00  0.00    +0.020 C 
ATOM     32  C   UNL     1      -7.327  -0.571   6.387  0.00  0.00    +0.017 A 
ATOM     33  C   UNL     1      -7.704  -1.876   6.078  0.00  0.00    +0.011 A 
ATOM     34  C   UNL     1      -8.988  -2.298   6.362  0.00  0.00    +0.001 A 
ATOM     35  C   UNL     1      -9.895  -1.431   6.948  0.00  0.00    +0.004 A 
ATOM     36  C   UNL     1      -9.530  -0.133   7.258  0.00  0.00    +0.046 A 
ATOM     37  C   UNL     1      -8.249   0.306   6.981  0.00  0.00    +0.128 A 
ATOM     38  O   UNL     1      -7.860   1.573   7.273  0.00  0.00    -0.487 OA
ATOM     39  C   UNL     1      -6.500   1.763   7.675  0.00  0.00    +0.266 C 
ENDBRANCH  29  30
ENDBRANCH  16  28
TORSDOF 4
