REMARK  Name = ZINC16048067
REMARK  9 active torsions:
REMARK  status: ('A' for Active; 'I' for Inactive)
REMARK    1  A    between atoms: C_1  and  C_2
REMARK    2  A    between atoms: C_2  and  O_3
REMARK    3  A    between atoms: O_3  and  C_4
REMARK    4  A    between atoms: C_4  and  C_6
REMARK    5  A    between atoms: C_10  and  N_11
REMARK    6  A    between atoms: C_12  and  C_14
REMARK    7  A    between atoms: C_14  and  C_16
REMARK    8  A    between atoms: C_14  and  S_17
REMARK    9  A    between atoms: S_17  and  C_18
REMARK                            x       y       z     vdW  Elec       q    Type
REMARK                         _______ _______ _______ _____ _____    ______ ____
ROOT
ATOM      1  N   UNL     1      -3.361   7.979  -0.468  0.00  0.00    -0.278 N 
ATOM      2  C   UNL     1      -2.149   7.551  -0.061  0.00  0.00    +0.231 C 
ATOM      3  O   UNL     1      -1.284   8.355   0.214  0.00  0.00    -0.274 OA
ATOM      4  H   UNL     1      -4.053   7.337  -0.689  0.00  0.00    +0.155 HD
ENDROOT
BRANCH   1   9
ATOM      5  C   UNL     1      -4.786   9.966  -0.975  0.00  0.00    +0.091 A 
ATOM      6  C   UNL     1      -4.801  11.423  -0.992  0.00  0.00    -0.021 A 
ATOM      7  C   UNL     1      -3.642  12.008  -0.621  0.00  0.00    -0.004 A 
ATOM      8  S   UNL     1      -2.553  10.662  -0.240  0.00  0.00    -0.077 S 
ATOM      9  C   UNL     1      -3.617   9.337  -0.573  0.00  0.00    +0.086 A 
ATOM     10  C   UNL     1      -3.334  13.471  -0.559  0.00  0.00    +0.043 C 
ATOM     11  C   UNL     1      -4.459  14.194   0.194  0.00  0.00    +0.005 C 
ATOM     12  C   UNL     1      -5.525  14.610  -0.816  0.00  0.00    +0.001 C 
ATOM     13  C   UNL     1      -5.609  13.584  -1.944  0.00  0.00    +0.005 C 
ATOM     14  C   UNL     1      -6.031  12.225  -1.397  0.00  0.00    +0.037 C 
BRANCH   5  15
ATOM     15  C   UNL     1      -5.966   9.192  -1.366  0.00  0.00    +0.342 C 
ATOM     16  O   UNL     1      -6.794   8.882  -0.530  0.00  0.00    -0.245 OA
BRANCH  15  17
ATOM     17  O   UNL     1      -6.135   8.823  -2.652  0.00  0.00    -0.461 OA
BRANCH  17  19
ATOM     18  C   UNL     1      -7.346   7.734  -4.462  0.00  0.00    +0.048 C 
ATOM     19  C   UNL     1      -7.328   8.058  -2.967  0.00  0.00    +0.229 C 
ENDBRANCH  17  19
ENDBRANCH  15  17
ENDBRANCH   5  15
ENDBRANCH   1   9
BRANCH   2  20
ATOM     20  C   UNL     1      -1.871   6.075   0.052  0.00  0.00    +0.137 C 
ATOM     21  C   UNL     1      -2.456   5.544   1.363  0.00  0.00    +0.029 C 
BRANCH  20  22
ATOM     22  S   UNL     1      -0.083   5.795   0.034  0.00  0.00    -0.073 S 
BRANCH  22  23
ATOM     23  C   UNL     1      -0.049   4.033   0.024  0.00  0.00    +0.196 A 
ATOM     24  N   UNL     1       1.120   3.398   0.009  0.00  0.00    -0.204 NA
ATOM     25  C   UNL     1       1.155   2.065   0.002  0.00  0.00    +0.144 A 
ATOM     26  C   UNL     1       2.383   1.385  -0.014  0.00  0.00    +0.047 A 
ATOM     27  C   UNL     1       2.391   0.021  -0.022  0.00  0.00    +0.005 A 
ATOM     28  C   UNL     1       1.175  -0.677  -0.013  0.00  0.00    +0.018 A 
ATOM     29  C   UNL     1       0.002  -0.004   0.002  0.00  0.00    +0.098 A 
ATOM     30  N   UNL     1      -0.016   1.357   0.009  0.00  0.00    -0.252 N 
ATOM     31  C   UNL     1      -1.190   2.022   0.019  0.00  0.00    +0.356 A 
ATOM     32  O   UNL     1      -2.243   1.407   0.020  0.00  0.00    -0.244 OA
ATOM     33  N   UNL     1      -1.193   3.353   0.031  0.00  0.00    -0.167 NA
ENDBRANCH  22  23
ENDBRANCH  20  22
ENDBRANCH   2  20
TORSDOF 7
