REMARK  Name = ZINC28956517
REMARK  11 active torsions:
REMARK  status: ('A' for Active; 'I' for Inactive)
REMARK    1  A    between atoms: C_1  and  C_2
REMARK    2  A    between atoms: C_2  and  C_3
REMARK    3  A    between atoms: C_6  and  C_20
REMARK    4  A    between atoms: C_7  and  N_9
REMARK    5  A    between atoms: N_9  and  C_10
REMARK    6  A    between atoms: C_10  and  C_11
REMARK    7  A    between atoms: C_20  and  C_21
REMARK    8  A    between atoms: N_22  and  C_23
REMARK    9  A    between atoms: C_32  and  O_34
REMARK   10  A    between atoms: O_34  and  C_35
REMARK   11  A    between atoms: C_35  and  C_36
REMARK                            x       y       z     vdW  Elec       q    Type
REMARK                         _______ _______ _______ _____ _____    ______ ____
ROOT
ATOM      1  C   UNL     1      -0.011   0.050  -0.060  0.00  0.00    +0.083 A 
ATOM      2  C   UNL     1       0.019   1.439  -0.002  0.00  0.00    +0.141 A 
ATOM      3  N   UNL     1       1.182   2.076   0.043  0.00  0.00    -0.232 NA
ATOM      4  C   UNL     1       2.311   1.390   0.033  0.00  0.00    +0.083 A 
ATOM      5  C   UNL     1       2.281   0.002  -0.024  0.00  0.00    +0.148 A 
ATOM      6  N   UNL     1       1.118  -0.635  -0.069  0.00  0.00    -0.231 NA
ATOM      7  N   UNL     1      -1.172   2.162   0.002  0.00  0.00    -0.318 N 
ATOM      8  H   UNL     1      -2.136   1.634  -0.040  0.00  0.00    +0.148 HD
ENDROOT
BRANCH   5   9
ATOM      9  N   UNL     1       3.473  -0.722  -0.034  0.00  0.00    -0.268 N 
ATOM     10  C   UNL     1       4.016  -1.152  -1.241  0.00  0.00    +0.145 A 
ATOM     11  C   UNL     1       3.412  -0.783  -2.440  0.00  0.00    +0.083 A 
ATOM     12  C   UNL     1       3.965  -1.214  -3.633  0.00  0.00    +0.045 A 
ATOM     13  C   UNL     1       5.102  -2.012  -3.587  0.00  0.00    +0.061 A 
ATOM     14  C   UNL     1       5.645  -2.344  -2.361  0.00  0.00    +0.133 A 
ATOM     15  N   UNL     1       5.099  -1.914  -1.239  0.00  0.00    -0.237 NA
ATOM     16 CL   UNL     1       5.832  -2.586  -5.053  0.00  0.00    -0.082 Cl
ATOM     17 CL   UNL     1       1.988   0.210  -2.439  0.00  0.00    -0.080 Cl
BRANCH   9  18
ATOM     18  C   UNL     1       4.154  -1.028   1.226  0.00  0.00    +0.110 C 
ATOM     19  C   UNL     1       3.559  -2.302   1.831  0.00  0.00    +0.025 C 
ENDBRANCH   9  18
ENDBRANCH   5   9
BRANCH   7  20
ATOM     20  C   UNL     1      -1.140   3.626   0.063  0.00  0.00    +0.131 C 
ATOM     21  C   UNL     1      -1.140   4.092   1.503  0.00  0.00    -0.022 A 
ATOM     22  C   UNL     1      -0.113   4.142   2.430  0.00  0.00    +0.006 A 
ATOM     23  C   UNL     1      -0.350   4.613   3.707  0.00  0.00    +0.000 A 
ATOM     24  C   UNL     1      -1.618   5.036   4.061  0.00  0.00    +0.000 A 
ATOM     25  C   UNL     1      -2.644   4.987   3.137  0.00  0.00    +0.004 A 
ATOM     26  C   UNL     1      -2.408   4.515   1.857  0.00  0.00    -0.040 A 
ATOM     27  C   UNL     1      -3.346   4.363   0.679  0.00  0.00    +0.069 C 
ATOM     28  C   UNL     1      -2.427   4.215  -0.552  0.00  0.00    +0.147 C 
BRANCH  28  29
ATOM     29  O   UNL     1      -2.994   3.313  -1.504  0.00  0.00    -0.372 OA
BRANCH  29  30
ATOM     30  C   UNL     1      -3.709   3.957  -2.561  0.00  0.00    +0.193 C 
BRANCH  30  31
ATOM     31  C   UNL     1      -4.270   2.900  -3.515  0.00  0.00    +0.241 C 
ATOM     32  F   UNL     1      -5.221   2.124  -2.844  0.00  0.00    -0.247 F 
ENDBRANCH  30  31
ENDBRANCH  29  30
ENDBRANCH  28  29
ENDBRANCH   7  20
BRANCH   1  34
ATOM     33  C   UNL     1      -1.755  -0.860  -1.570  0.00  0.00    +0.010 C 
ATOM     34  C   UNL     1      -1.332  -0.674  -0.112  0.00  0.00    +0.055 C 
ENDBRANCH   1  34
BRANCH   4  35
ATOM     35  C   UNL     1       3.632   2.114   0.085  0.00  0.00    +0.055 C 
ATOM     36  C   UNL     1       4.038   2.535  -1.329  0.00  0.00    +0.010 C 
ENDBRANCH   4  35
TORSDOF 8
