REMARK  Name = ZINC39286978
REMARK  2 active torsions:
REMARK  status: ('A' for Active; 'I' for Inactive)
REMARK    1  A    between atoms: C_2  and  C_13
REMARK    2  A    between atoms: C_15  and  C_18
REMARK                            x       y       z     vdW  Elec       q    Type
REMARK                         _______ _______ _______ _____ _____    ______ ____
ROOT
ATOM      1  C   UNL     1      -0.017   1.377   0.010  0.00  0.00    +0.062 A 
ATOM      2  C   UNL     1       1.189   2.084   0.002  0.00  0.00    +0.038 A 
ATOM      3  C   UNL     1       2.402   1.392  -0.014  0.00  0.00    +0.032 A 
ATOM      4  C   UNL     1       2.410   0.011  -0.022  0.00  0.00    +0.065 A 
ATOM      5  C   UNL     1       1.212  -0.687  -0.013  0.00  0.00    +0.163 A 
ATOM      6  C   UNL     1       0.002  -0.004   0.002  0.00  0.00    +0.163 A 
ATOM      7  O   UNL     1      -1.168  -0.707   0.011  0.00  0.00    -0.488 OA
ATOM      8  C   UNL     1      -1.472  -1.431  -1.183  0.00  0.00    +0.232 C 
ATOM      9  C   UNL     1      -0.787  -2.788  -1.180  0.00  0.00    +0.082 C 
ATOM     10  C   UNL     1       0.728  -2.672  -1.212  0.00  0.00    +0.232 C 
ATOM     11  O   UNL     1       1.215  -2.052  -0.020  0.00  0.00    -0.488 OA
ATOM     12 BR   UNL     1       4.034   2.346  -0.025  0.00  0.00    -0.049 Br
ENDROOT
BRANCH   2  13
ATOM     13  C   UNL     1       1.180   3.561   0.010  0.00  0.00    +0.169 A 
ATOM     14  C   UNL     1       1.894   4.361   0.847  0.00  0.00    +0.088 A 
ATOM     15  C   UNL     1       1.599   5.703   0.521  0.00  0.00    +0.194 A 
ATOM     16  N   UNL     1       0.741   5.700  -0.472  0.00  0.00    -0.071 NA
ATOM     17  O   UNL     1       0.468   4.353  -0.813  0.00  0.00    -0.354 OA
BRANCH  15  18
ATOM     18  C   UNL     1       2.159   6.904   1.185  0.00  0.00    +0.408 C 
ATOM     19  O   UNL     1       2.955   6.778   2.104  0.00  0.00    -0.239 OA
ATOM     20  O   UNL     1       1.826   8.019   0.812  0.00  0.00    -0.239 OA
ENDBRANCH  15  18
ENDBRANCH   2  13
TORSDOF 2
