REMARK  Name = ZINC00648681
REMARK  11 active torsions:
REMARK  status: ('A' for Active; 'I' for Inactive)
REMARK    1  A    between atoms: C_1  and  C_2
REMARK    2  A    between atoms: C_2  and  O_3
REMARK    3  A    between atoms: O_3  and  C_4
REMARK    4  A    between atoms: C_4  and  C_6
REMARK    5  A    between atoms: C_7  and  C_34
REMARK    6  A    between atoms: C_11  and  C_13
REMARK    7  A    between atoms: C_16  and  C_18
REMARK    8  A    between atoms: C_18  and  O_19
REMARK    9  A    between atoms: O_19  and  C_20
REMARK   10  A    between atoms: C_30  and  C_32
REMARK   11  A    between atoms: C_30  and  C_33
REMARK                            x       y       z     vdW  Elec       q    Type
REMARK                         _______ _______ _______ _____ _____    ______ ____
ROOT
ATOM      1  C   UNL     1       0.737  -7.223   2.551  0.00  0.00    +0.068 C 
ATOM      2  C   UNL     1       0.957  -6.809   3.811  0.00  0.00    +0.016 C 
ATOM      3  N   UNL     1       2.231  -6.588   4.254  0.00  0.00    -0.321 N 
ATOM      4  C   UNL     1       3.301  -7.144   3.606  0.00  0.00    +0.016 C 
ATOM      5  C   UNL     1       3.183  -7.572   2.332  0.00  0.00    +0.027 C 
ATOM      6  C   UNL     1       1.872  -7.447   1.595  0.00  0.00    +0.128 C 
ATOM      7  C   UNL     1       4.274  -8.144   1.654  0.00  0.00    +0.162 C 
ATOM      8  O   UNL     1       4.130  -8.531   0.511  0.00  0.00    -0.292 OA
ATOM      9  C   UNL     1       5.616  -8.284   2.318  0.00  0.00    +0.086 C 
ATOM     10  C   UNL     1       5.773  -7.175   3.364  0.00  0.00    -0.023 C 
ATOM     11  C   UNL     1       4.607  -7.270   4.351  0.00  0.00    +0.058 C 
ATOM     12  C   UNL     1       5.751  -5.810   2.673  0.00  0.00    +0.011 C 
ATOM     13  C   UNL     1       7.096  -7.351   4.112  0.00  0.00    +0.011 C 
ATOM     14  C   UNL     1      -0.209  -6.586   4.739  0.00  0.00    +0.061 C 
ATOM     15  H   UNL     1       2.403  -5.958   5.139  0.00  0.00    +0.152 HD
ENDROOT
BRANCH   6  16
ATOM     16  C   UNL     1       1.951  -6.284   0.640  0.00  0.00    +0.118 A 
ATOM     17  C   UNL     1       1.834  -6.356  -0.698  0.00  0.00    +0.046 A 
ATOM     18  C   UNL     1       1.966  -5.038  -1.192  0.00  0.00    +0.048 A 
ATOM     19  C   UNL     1       2.164  -4.240  -0.128  0.00  0.00    +0.142 A 
ATOM     20  O   UNL     1       2.151  -5.000   0.980  0.00  0.00    -0.460 OA
BRANCH  19  21
ATOM     21  C   UNL     1       2.361  -2.747  -0.170  0.00  0.00    +0.303 C 
BRANCH  21  22
ATOM     22  O   UNL     1       1.092  -2.096  -0.075  0.00  0.00    -0.484 OA
BRANCH  22  23
ATOM     23  C   UNL     1       1.093  -0.738  -0.098  0.00  0.00    +0.122 A 
ATOM     24  C   UNL     1       2.290  -0.045  -0.210  0.00  0.00    +0.046 A 
ATOM     25  C   UNL     1       2.288   1.337  -0.234  0.00  0.00    +0.005 A 
ATOM     26  C   UNL     1       1.094   2.029  -0.147  0.00  0.00    +0.015 A 
ATOM     27  C   UNL     1      -0.101   1.341  -0.035  0.00  0.00    +0.021 A 
ATOM     28  C   UNL     1      -0.104  -0.041  -0.011  0.00  0.00    +0.061 A 
ATOM     29 BR   UNL     1      -1.732   2.292   0.076  0.00  0.00    -0.050 Br
ENDBRANCH  22  23
ENDBRANCH  21  22
ENDBRANCH  19  21
ENDBRANCH   6  16
BRANCH   1  30
ATOM     30  C   UNL     1      -0.590  -7.452   2.117  0.00  0.00    +0.338 C 
ATOM     31  O   UNL     1      -1.510  -7.376   2.909  0.00  0.00    -0.245 OA
BRANCH  30  32
ATOM     32  O   UNL     1      -0.835  -7.755   0.825  0.00  0.00    -0.462 OA
BRANCH  32  34
ATOM     33  C   UNL     1      -2.277  -8.302  -1.035  0.00  0.00    +0.048 C 
ATOM     34  C   UNL     1      -2.198  -7.974   0.457  0.00  0.00    +0.229 C 
ENDBRANCH  32  34
ENDBRANCH  30  32
ENDBRANCH   1  30
TORSDOF 7
