REMARK  Name = ZINC13696321
REMARK  6 active torsions:
REMARK  status: ('A' for Active; 'I' for Inactive)
REMARK    1  A    between atoms: C_1  and  C_2
REMARK    2  A    between atoms: C_5  and  N_28
REMARK    3  A    between atoms: C_7  and  S_8
REMARK    4  A    between atoms: S_8  and  N_11
REMARK    5  A    between atoms: N_11  and  C_12
REMARK    6  A    between atoms: C_21  and  C_23
REMARK                            x       y       z     vdW  Elec       q    Type
REMARK                         _______ _______ _______ _____ _____    ______ ____
ROOT
ATOM      1  C   UNL     1       0.183  -0.076   0.362  0.00  0.00    +0.050 A 
ATOM      2  C   UNL     1      -0.539  -0.669   1.390  0.00  0.00    +0.025 A 
ATOM      3  C   UNL     1      -0.459  -2.034   1.585  0.00  0.00    +0.007 A 
ATOM      4  C   UNL     1       0.344  -2.808   0.768  0.00  0.00    -0.024 A 
ATOM      5  C   UNL     1       1.074  -2.228  -0.258  0.00  0.00    +0.041 A 
ATOM      6  C   UNL     1       0.989  -0.850  -0.457  0.00  0.00    +0.048 A 
ATOM      7  N   UNL     1       1.819  -3.179  -0.963  0.00  0.00    -0.271 N 
ATOM      8  C   UNL     1       1.597  -4.512  -0.395  0.00  0.00    +0.118 C 
ATOM      9  C   UNL     1       0.613  -4.296   0.767  0.00  0.00    +0.056 C 
ATOM     10  C   UNL     1       2.622  -2.910  -2.010  0.00  0.00    +0.223 C 
ATOM     11  O   UNL     1       2.740  -1.770  -2.408  0.00  0.00    -0.275 OA
ENDROOT
BRANCH  10  12
ATOM     12  C   UNL     1       3.375  -4.026  -2.689  0.00  0.00    +0.076 C 
ATOM     13  C   UNL     1       4.365  -4.674  -1.699  0.00  0.00    +0.013 C 
ATOM     14  C   UNL     1       5.606  -5.006  -2.565  0.00  0.00    +0.001 C 
ATOM     15  C   UNL     1       5.689  -3.791  -3.522  0.00  0.00    +0.001 C 
ATOM     16  C   UNL     1       4.217  -3.465  -3.848  0.00  0.00    +0.013 C 
ENDBRANCH  10  12
BRANCH   1  17
ATOM     17  N   UNL     1       0.102   1.304   0.158  0.00  0.00    -0.216 N 
ATOM     18  H   UNL     1       0.909   1.822   0.015  0.00  0.00    +0.174 HD
BRANCH  17  19
ATOM     19  S   UNL     1      -1.375   2.054   0.152  0.00  0.00    +0.073 S 
ATOM     20  O   UNL     1      -2.032   1.665   1.351  0.00  0.00    -0.150 OA
ATOM     21  O   UNL     1      -1.138   3.414  -0.181  0.00  0.00    -0.150 OA
BRANCH  19  28
ATOM     22  C   UNL     1      -0.605   2.293  -2.763  0.00  0.00    +0.046 C 
ATOM     23  C   UNL     1      -1.871   1.527  -2.480  0.00  0.00    -0.024 A 
ATOM     24  C   UNL     1      -2.598   0.982  -3.522  0.00  0.00    +0.007 A 
ATOM     25  C   UNL     1      -3.762   0.285  -3.263  0.00  0.00    +0.033 A 
ATOM     26  C   UNL     1      -4.198   0.127  -1.960  0.00  0.00    +0.128 A 
ATOM     27  C   UNL     1      -3.469   0.667  -0.918  0.00  0.00    +0.061 A 
ATOM     28  C   UNL     1      -2.304   1.365  -1.177  0.00  0.00    +0.114 A 
BRANCH  26  29
ATOM     29  N   UNL     1      -5.445  -0.620  -1.683  0.00  0.00    +0.056 N 
ATOM     30  O   UNL     1      -5.829  -0.759  -0.535  0.00  0.00    -0.126 OA
ATOM     31  O   UNL     1      -6.088  -1.096  -2.602  0.00  0.00    -0.126 OA
ENDBRANCH  26  29
ENDBRANCH  19  28
ENDBRANCH  17  19
ENDBRANCH   1  17
TORSDOF 5
