REMARK  Name = ZINC39946128
REMARK  11 active torsions:
REMARK  status: ('A' for Active; 'I' for Inactive)
REMARK    1  A    between atoms: C_1  and  C_2
REMARK    2  A    between atoms: C_4  and  C_9
REMARK    3  A    between atoms: C_5  and  C_8
REMARK    4  A    between atoms: C_9  and  O_10
REMARK    5  A    between atoms: O_10  and  C_11
REMARK    6  A    between atoms: C_15  and  C_17
REMARK    7  A    between atoms: C_17  and  O_19
REMARK    8  A    between atoms: O_19  and  C_20
REMARK    9  A    between atoms: C_20  and  C_22
REMARK   10  A    between atoms: C_20  and  C_28
REMARK   11  A    between atoms: C_28  and  C_30
REMARK                            x       y       z     vdW  Elec       q    Type
REMARK                         _______ _______ _______ _____ _____    ______ ____
ROOT
ATOM      1  O   UNL     1      -9.568  -2.208  -1.708  0.00  0.00    -0.445 OA
ENDROOT
BRANCH   1   2
ATOM      2  C   UNL     1      -8.434  -2.311  -0.987  0.00  0.00    +0.340 C 
ATOM      3  O   UNL     1      -8.405  -3.013   0.003  0.00  0.00    -0.245 OA
BRANCH   2   8
ATOM      4  C   UNL     1      -4.922  -0.973  -1.051  0.00  0.00    +0.122 A 
ATOM      5  C   UNL     1      -4.962  -0.172  -2.184  0.00  0.00    +0.046 A 
ATOM      6  C   UNL     1      -6.125  -0.068  -2.923  0.00  0.00    +0.004 A 
ATOM      7  C   UNL     1      -7.256  -0.760  -2.539  0.00  0.00    +0.015 A 
ATOM      8  C   UNL     1      -7.226  -1.568  -1.402  0.00  0.00    +0.062 A 
ATOM      9  C   UNL     1      -6.048  -1.677  -0.660  0.00  0.00    +0.060 A 
BRANCH   4  10
ATOM     10  O   UNL     1      -3.775  -1.071  -0.328  0.00  0.00    -0.488 OA
BRANCH  10  11
ATOM     11  C   UNL     1      -2.651  -0.318  -0.789  0.00  0.00    +0.264 C 
BRANCH  11  14
ATOM     12  C   UNL     1      -0.391  -2.627  -0.725  0.00  0.00    +0.045 C 
ATOM     13  C   UNL     1      -0.902  -1.892   0.516  0.00  0.00    +0.176 C 
ATOM     14  C   UNL     1      -1.480  -0.550   0.130  0.00  0.00    +0.019 C 
ATOM     15  C   UNL     1      -0.777   0.380   0.741  0.00  0.00    +0.041 C 
ATOM     16  N   UNL     1       0.228  -0.179   1.510  0.00  0.00    -0.269 N 
ATOM     17  O   UNL     1       0.188  -1.593   1.402  0.00  0.00    -0.267 OA
ATOM     18  C   UNL     1      -1.033   1.860   0.619  0.00  0.00    +0.065 C 
ATOM     19  H   UNL     1       0.864   0.321   2.045  0.00  0.00    +0.194 HD
ENDBRANCH  11  14
ENDBRANCH  10  11
ENDBRANCH   4  10
ENDBRANCH   2   8
ENDBRANCH   1   2
BRANCH   1  20
ATOM     20  C   UNL     1     -10.697  -2.954  -1.249  0.00  0.00    +0.277 C 
BRANCH  20  21
ATOM     21  C   UNL     1     -10.689  -4.320  -1.884  0.00  0.00    +0.000 A 
ATOM     22  C   UNL     1     -10.227  -4.479  -3.177  0.00  0.00    +0.008 A 
ATOM     23  C   UNL     1     -10.219  -5.733  -3.759  0.00  0.00    +0.000 A 
ATOM     24  C   UNL     1     -10.672  -6.828  -3.048  0.00  0.00    +0.000 A 
ATOM     25  C   UNL     1     -11.133  -6.670  -1.754  0.00  0.00    +0.000 A 
ATOM     26  C   UNL     1     -11.137  -5.416  -1.171  0.00  0.00    +0.008 A 
ENDBRANCH  20  21
BRANCH  20  27
ATOM     27  C   UNL     1     -11.964  -2.231  -1.630  0.00  0.00    +0.206 C 
ATOM     28  O   UNL     1     -11.948  -1.405  -2.520  0.00  0.00    -0.288 OA
BRANCH  27  29
ATOM     29  C   UNL     1     -13.169  -2.515  -0.952  0.00  0.00    +0.027 C 
ATOM     30  C   UNL     1     -14.410  -1.949  -1.181  0.00  0.00    +0.006 A 
ATOM     31  C   UNL     1     -14.869  -0.972  -2.095  0.00  0.00    +0.010 A 
ATOM     32  C   UNL     1     -16.168  -0.598  -2.099  0.00  0.00    +0.001 A 
ATOM     33  C   UNL     1     -17.112  -1.146  -1.216  0.00  0.00    +0.002 A 
ATOM     34  C   UNL     1     -16.778  -2.085  -0.305  0.00  0.00    +0.026 A 
ATOM     35  C   UNL     1     -15.382  -2.549  -0.234  0.00  0.00    +0.043 A 
ATOM     36  N   UNL     1     -14.794  -3.424   0.530  0.00  0.00    -0.380 N 
ATOM     37  C   UNL     1     -13.375  -3.506   0.172  0.00  0.00    +0.152 C 
ATOM     38  H   UNL     1     -15.229  -3.944   1.225  0.00  0.00    +0.160 HD
ENDBRANCH  27  29
ENDBRANCH  20  27
ENDBRANCH   1  20
TORSDOF 9
