REMARK  Name = ZINC63407635
REMARK  6 active torsions:
REMARK  status: ('A' for Active; 'I' for Inactive)
REMARK    1  A    between atoms: C_1  and  C_2
REMARK    2  A    between atoms: C_2  and  N_9
REMARK    3  A    between atoms: N_9  and  N_10
REMARK    4  A    between atoms: N_13  and  C_14
REMARK    5  A    between atoms: N_17  and  C_20
REMARK    6  A    between atoms: C_20  and  C_21
REMARK                            x       y       z     vdW  Elec       q    Type
REMARK                         _______ _______ _______ _____ _____    ______ ____
ROOT
ATOM      1  N   UNL     1      -0.232   0.110  -2.714  0.00  0.00    -0.234 N 
ATOM      2  C   UNL     1       0.353  -0.240  -3.876  0.00  0.00    +0.314 C 
ATOM      3  O   UNL     1      -0.148   0.092  -4.933  0.00  0.00    -0.252 OA
ATOM      4  N   UNL     1       1.493  -0.959  -3.867  0.00  0.00    -0.296 N 
ATOM      5  H   UNL     1      -1.053   0.628  -2.721  0.00  0.00    +0.171 HD
ATOM      6  H   UNL     1       1.892  -1.224  -3.024  0.00  0.00    +0.151 HD
ENDROOT
BRANCH   4   7
ATOM      7  C   UNL     1       2.129  -1.340  -5.131  0.00  0.00    +0.071 C 
ATOM      8  C   UNL     1       1.500  -2.636  -5.650  0.00  0.00    +0.004 C 
ATOM      9  C   UNL     1       2.223  -3.070  -6.928  0.00  0.00    -0.077 C 
ATOM     10  N   UNL     1       3.644  -3.296  -6.638  0.00  0.00    +0.380 N 
ATOM     11  C   UNL     1       4.270  -2.040  -6.207  0.00  0.00    -0.077 C 
ATOM     12  C   UNL     1       3.626  -1.566  -4.902  0.00  0.00    +0.004 C 
ATOM     13  H   UNL     1       3.731  -3.983  -5.904  0.00  0.00    -0.082 HD
BRANCH  10  14
ATOM     14  C   UNL     1       4.316  -3.787  -7.848  0.00  0.00    -0.075 C 
BRANCH  14  15
ATOM     15  C   UNL     1       3.776  -5.173  -8.204  0.00  0.00    -0.028 C 
ATOM     16  C   UNL     1       4.184  -6.194  -7.122  0.00  0.00    +0.002 C 
ATOM     17  C   UNL     1       4.481  -7.491  -7.915  0.00  0.00    +0.000 C 
ATOM     18  C   UNL     1       5.166  -6.958  -9.198  0.00  0.00    +0.000 C 
ATOM     19  C   UNL     1       4.401  -5.659  -9.524  0.00  0.00    +0.002 C 
ENDBRANCH  14  15
ENDBRANCH  10  14
ENDBRANCH   4   7
BRANCH   1  20
ATOM     20  N   UNL     1       0.330  -0.263  -1.526  0.00  0.00    -0.232 NA
ATOM     21  H   UNL     1       1.284   0.058  -1.461  0.00  0.00    +0.145 HD
BRANCH  20  23
ATOM     22  C   UNL     1      -0.548   1.747  -0.466  0.00  0.00    +0.031 C 
ATOM     23  C   UNL     1      -0.467   0.221  -0.391  0.00  0.00    +0.054 C 
ATOM     24  C   UNL     1      -1.879  -0.351  -0.509  0.00  0.00    +0.047 C 
ATOM     25  C   UNL     1      -1.973  -1.713   0.233  0.00  0.00    +0.168 C 
ATOM     26  S   UNL     1      -0.943  -1.327   1.716  0.00  0.00    -0.029 S 
ATOM     27  O   UNL     1      -1.730  -0.610   2.657  0.00  0.00    -0.174 OA
ATOM     28  O   UNL     1      -0.254  -2.501   2.125  0.00  0.00    -0.174 OA
ATOM     29  C   UNL     1       0.247  -0.172   0.917  0.00  0.00    +0.189 C 
ENDBRANCH  20  23
ENDBRANCH   1  20
TORSDOF 5
