REMARK  Name = ZINC52879471
REMARK  5 active torsions:
REMARK  status: ('A' for Active; 'I' for Inactive)
REMARK    1  A    between atoms: C_1  and  C_2
REMARK    2  A    between atoms: C_2  and  C_3
REMARK    3  A    between atoms: C_2  and  C_9
REMARK    4  A    between atoms: C_2  and  N_21
REMARK    5  A    between atoms: C_11  and  C_14
REMARK                            x       y       z     vdW  Elec       q    Type
REMARK                         _______ _______ _______ _____ _____    ______ ____
ROOT
ATOM      1  C   UNL     1      -0.051   1.518  -0.142  0.00  0.00    +0.004 C 
ATOM      2  C   UNL     1       0.002  -0.004   0.002  0.00  0.00    +0.033 C 
ENDROOT
BRANCH   2   3
ATOM      3  C   UNL     1       0.672  -0.362   1.303  0.00  0.00    -0.050 A 
ATOM      4  C   UNL     1       1.750  -1.229   1.310  0.00  0.00    +0.003 A 
ATOM      5  C   UNL     1       2.365  -1.558   2.504  0.00  0.00    +0.000 A 
ATOM      6  C   UNL     1       1.903  -1.020   3.690  0.00  0.00    +0.000 A 
ATOM      7  C   UNL     1       0.826  -0.153   3.683  0.00  0.00    +0.000 A 
ATOM      8  C   UNL     1       0.214   0.179   2.489  0.00  0.00    +0.003 A 
ENDBRANCH   2   3
BRANCH   2   9
ATOM      9  C   UNL     1      -1.399  -0.559  -0.011  0.00  0.00    +0.220 A 
ATOM     10  N   UNL     1      -2.237  -0.488  -1.006  0.00  0.00    -0.192 NA
ATOM     11  C   UNL     1      -3.395  -1.087  -0.676  0.00  0.00    +0.203 A 
ATOM     12  N   UNL     1      -3.296  -1.546   0.547  0.00  0.00    -0.056 NA
ATOM     13  O   UNL     1      -1.991  -1.213   0.997  0.00  0.00    -0.339 OA
BRANCH  11  14
ATOM     14  C   UNL     1      -4.587  -1.207  -1.552  0.00  0.00    +0.036 A 
ATOM     15  C   UNL     1      -4.564  -0.678  -2.841  0.00  0.00    +0.013 A 
ATOM     16  C   UNL     1      -5.676  -0.792  -3.651  0.00  0.00    +0.001 A 
ATOM     17  C   UNL     1      -6.812  -1.431  -3.186  0.00  0.00    +0.001 A 
ATOM     18  C   UNL     1      -6.841  -1.958  -1.908  0.00  0.00    +0.016 A 
ATOM     19  C   UNL     1      -5.732  -1.854  -1.090  0.00  0.00    +0.029 A 
ATOM     20 BR   UNL     1      -5.771  -2.581   0.655  0.00  0.00    -0.050 Br
ENDBRANCH  11  14
ENDBRANCH   2   9
BRANCH   2  21
ATOM     21  N   UNL     1       0.765  -0.575  -1.116  0.00  0.00    +0.390 N 
ATOM     22  H   UNL     1       1.703  -0.204  -1.107  0.00  0.00    -0.088 HD
ATOM     23  H   UNL     1       0.800  -1.579  -1.021  0.00  0.00    -0.088 HD
ATOM     24  H   UNL     1       0.317  -0.335  -1.987  0.00  0.00    -0.088 HD
ENDBRANCH   2  21
TORSDOF 4
