REMARK  Name = ZINC40101377
REMARK  16 active torsions:
REMARK  status: ('A' for Active; 'I' for Inactive)
REMARK    1  A    between atoms: C_1  and  C_2
REMARK    2  A    between atoms: C_2  and  C_3
REMARK    3  A    between atoms: C_3  and  O_4
REMARK    4  A    between atoms: O_4  and  C_5
REMARK    5  A    between atoms: C_9  and  C_11
REMARK    6  A    between atoms: C_11  and  C_13
REMARK    7  A    between atoms: N_17  and  C_33
REMARK    8  A    between atoms: C_18  and  C_20
REMARK    9  A    between atoms: C_23  and  O_29
REMARK   10  A    between atoms: C_24  and  O_26
REMARK   11  A    between atoms: O_26  and  C_27
REMARK   12  A    between atoms: C_27  and  C_28
REMARK   13  A    between atoms: O_29  and  C_30
REMARK   14  A    between atoms: C_30  and  C_31
REMARK   15  A    between atoms: C_33  and  C_34
REMARK   16  A    between atoms: C_34  and  O_35
REMARK                            x       y       z     vdW  Elec       q    Type
REMARK                         _______ _______ _______ _____ _____    ______ ____
ROOT
ATOM      1  C   UNL     1      -5.696  -6.681   0.344  0.00  0.00    +0.076 C 
ATOM      2  C   UNL     1      -6.075  -7.942   0.658  0.00  0.00    +0.249 C 
ATOM      3  C   UNL     1      -7.521  -8.095   0.390  0.00  0.00    +0.288 C 
ATOM      4  O   UNL     1      -8.160  -9.112   0.572  0.00  0.00    -0.266 OA
ATOM      5  N   UNL     1      -8.024  -6.941  -0.083  0.00  0.00    -0.281 N 
ATOM      6  C   UNL     1      -6.931  -5.963  -0.145  0.00  0.00    +0.145 C 
ATOM      7  O   UNL     1      -5.261  -8.909   1.140  0.00  0.00    -0.282 OA
ENDROOT
BRANCH   6   8
ATOM      8  C   UNL     1      -7.234  -4.786   0.745  0.00  0.00    -0.019 A 
ATOM      9  C   UNL     1      -7.439  -4.980   2.099  0.00  0.00    +0.009 A 
ATOM     10  C   UNL     1      -7.716  -3.903   2.920  0.00  0.00    +0.050 A 
ATOM     11  C   UNL     1      -7.789  -2.626   2.387  0.00  0.00    +0.162 A 
ATOM     12  C   UNL     1      -7.583  -2.431   1.025  0.00  0.00    +0.162 A 
ATOM     13  C   UNL     1      -7.300  -3.514   0.208  0.00  0.00    +0.055 A 
BRANCH  12  14
ATOM     14  O   UNL     1      -7.653  -1.179   0.497  0.00  0.00    -0.489 OA
BRANCH  14  15
ATOM     15  C   UNL     1      -7.530  -1.066  -0.922  0.00  0.00    +0.226 C 
ATOM     16  C   UNL     1      -7.551   0.412  -1.319  0.00  0.00    +0.048 C 
ENDBRANCH  14  15
ENDBRANCH  12  14
BRANCH  11  17
ATOM     17  O   UNL     1      -8.063  -1.565   3.194  0.00  0.00    -0.484 OA
BRANCH  17  18
ATOM     18  C   UNL     1      -8.264  -1.841   4.582  0.00  0.00    +0.256 C 
BRANCH  18  19
ATOM     19  C   UNL     1      -8.553  -0.555   5.312  0.00  0.00    +0.006 C 
ATOM     20  C   UNL     1      -9.529  -0.503   6.185  0.00  0.00    +0.007 C 
ENDBRANCH  18  19
ENDBRANCH  17  18
ENDBRANCH  11  17
ENDBRANCH   6   8
BRANCH   1  21
ATOM     21  C   UNL     1      -4.347  -6.119   0.463  0.00  0.00    +0.195 C 
ATOM     22  O   UNL     1      -3.836  -5.988   1.559  0.00  0.00    -0.287 OA
BRANCH  21  27
ATOM     23  C   UNL     1      -1.676  -4.710  -1.777  0.00  0.00    +0.121 A 
ATOM     24  C   UNL     1      -2.225  -4.947  -3.031  0.00  0.00    +0.046 A 
ATOM     25  C   UNL     1      -3.458  -5.562  -3.146  0.00  0.00    +0.004 A 
ATOM     26  C   UNL     1      -4.152  -5.945  -2.016  0.00  0.00    +0.012 A 
ATOM     27  C   UNL     1      -3.607  -5.711  -0.751  0.00  0.00    +0.026 A 
ATOM     28  C   UNL     1      -2.360  -5.095  -0.637  0.00  0.00    +0.057 A 
BRANCH  23  29
ATOM     29  O   UNL     1      -0.464  -4.105  -1.671  0.00  0.00    -0.492 OA
BRANCH  29  30
ATOM     30  C   UNL     1       0.186  -3.735  -2.888  0.00  0.00    +0.229 C 
BRANCH  30  32
ATOM     31  C   UNL     1       2.223  -2.675  -3.873  0.00  0.00    +0.007 C 
ATOM     32  C   UNL     1       1.528  -3.072  -2.569  0.00  0.00    +0.038 C 
ENDBRANCH  30  32
ENDBRANCH  29  30
ENDBRANCH  23  29
ENDBRANCH  21  27
ENDBRANCH   1  21
BRANCH   5  33
ATOM     33  C   UNL     1      -9.418  -6.700  -0.464  0.00  0.00    +0.137 C 
BRANCH  33  34
ATOM     34  C   UNL     1     -10.240  -6.376   0.785  0.00  0.00    +0.175 C 
BRANCH  34  35
ATOM     35  O   UNL     1      -9.857  -5.094   1.287  0.00  0.00    -0.393 OA
ATOM     36  H   UNL     1     -10.339  -4.823   2.081  0.00  0.00    +0.209 HD
ENDBRANCH  34  35
ENDBRANCH  33  34
ENDBRANCH   5  33
TORSDOF 14
