REMARK  Name = ZINC03840967
REMARK  14 active torsions:
REMARK  status: ('A' for Active; 'I' for Inactive)
REMARK    1  A    between atoms: C_1  and  C_2
REMARK    2  A    between atoms: C_10  and  C_12
REMARK    3  A    between atoms: C_12  and  N_70
REMARK    4  A    between atoms: C_13  and  N_70
REMARK    5  A    between atoms: C_14  and  N_70
REMARK    6  A    between atoms: C_16  and  C_37
REMARK    7  A    between atoms: C_19  and  O_36
REMARK    8  A    between atoms: C_21  and  C_25
REMARK    9  A    between atoms: C_25  and  C_27
REMARK   10  A    between atoms: C_25  and  C_28
REMARK   11  A    between atoms: N_30  and  C_31
REMARK   12  A    between atoms: N_30  and  C_32
REMARK   13  A    between atoms: C_32  and  C_33
REMARK   14  A    between atoms: C_33  and  C_34
REMARK                            x       y       z     vdW  Elec       q    Type
REMARK                         _______ _______ _______ _____ _____    ______ ____
ROOT
ATOM      1  C   UNL     1       0.144   0.068   0.346  0.00  0.00    +0.014 C 
ATOM      2  C   UNL     1       0.042   1.595   0.372  0.00  0.00    +0.042 C 
ATOM      3  C   UNL     1      -0.649   2.037   1.655  0.00  0.00    +0.057 A 
ATOM      4  C   UNL     1      -1.941   2.442   1.634  0.00  0.00    +0.015 A 
ATOM      5  S   UNL     1      -2.246   2.867   3.328  0.00  0.00    -0.057 S 
ATOM      6  C   UNL     1      -0.655   2.507   3.927  0.00  0.00    +0.165 A 
ATOM      7  N   UNL     1      -0.033   2.106   2.838  0.00  0.00    -0.229 NA
ATOM      8  N   UNL     1      -0.164   2.615   5.223  0.00  0.00    -0.266 N 
ATOM      9  C   UNL     1      -0.968   3.051   6.214  0.00  0.00    +0.202 C 
ATOM     10  O   UNL     1      -2.118   3.349   5.974  0.00  0.00    -0.277 OA
ATOM     11  C   UNL     1      -2.863   2.490   0.465  0.00  0.00    +0.051 C 
ATOM     12  C   UNL     1      -2.244   1.677  -0.686  0.00  0.00    -0.022 C 
ATOM     13  C   UNL     1      -0.769   2.070  -0.828  0.00  0.00    +0.033 C 
ATOM     14  C   UNL     1      -0.683   3.589  -0.973  0.00  0.00    +0.123 C 
ATOM     15  C   UNL     1      -1.409   4.010  -2.255  0.00  0.00    +0.029 C 
ATOM     16  C   UNL     1      -2.875   3.585  -2.163  0.00  0.00    +0.007 C 
ATOM     17  C   UNL     1      -2.968   2.068  -1.983  0.00  0.00    +0.008 C 
ATOM     18  C   UNL     1      -2.376   0.174  -0.430  0.00  0.00    +0.012 C 
ATOM     19  H   UNL     1       0.756   2.376   5.415  0.00  0.00    +0.157 HD
ENDROOT
BRANCH  15  20
ATOM     20  C   UNL     1      -1.329   5.530  -2.410  0.00  0.00    +0.078 C 
ATOM     21  C   UNL     1      -1.952   6.201  -1.185  0.00  0.00    +0.017 C 
BRANCH  20  22
ATOM     22  C   UNL     1      -2.078   5.949  -3.648  0.00  0.00    +0.219 C 
ATOM     23  O   UNL     1      -3.267   6.178  -3.589  0.00  0.00    -0.275 OA
ATOM     24  N   UNL     1      -1.426   6.070  -4.822  0.00  0.00    -0.303 N 
ATOM     25  C   UNL     1      -0.013   5.694  -4.917  0.00  0.00    +0.132 C 
BRANCH  24  26
ATOM     26  C   UNL     1      -2.130   6.577  -6.002  0.00  0.00    +0.122 C 
BRANCH  26  27
ATOM     27  C   UNL     1      -1.994   8.100  -6.062  0.00  0.00    +0.137 C 
BRANCH  27  28
ATOM     28  C   UNL     1      -2.701   8.609  -7.248  0.00  0.00    +0.064 C 
ATOM     29  N   UNL     1      -3.248   9.003  -8.163  0.00  0.00    -0.197 NA
ENDBRANCH  27  28
ENDBRANCH  26  27
ENDBRANCH  24  26
ENDBRANCH  20  22
ENDBRANCH  15  20
BRANCH  14  30
ATOM     30  O   UNL     1       0.687   3.983  -1.065  0.00  0.00    -0.391 OA
ATOM     31  H   UNL     1       0.821   4.941  -1.079  0.00  0.00    +0.210 HD
ENDBRANCH  14  30
BRANCH   9  32
ATOM     32  C   UNL     1      -0.436   3.168   7.619  0.00  0.00    +0.018 C 
BRANCH  32  35
ATOM     33  C   UNL     1      -1.096   3.565   9.915  0.00  0.00    -0.096 C 
ATOM     34  C   UNL     1      -1.876   5.038   8.159  0.00  0.00    -0.096 C 
ATOM     35  N   UNL     1      -1.522   3.645   8.501  0.00  0.00    +0.382 N 
ATOM     36  H   UNL     1      -2.346   3.048   8.367  0.00  0.00    -0.082 HD
ENDBRANCH  32  35
ENDBRANCH   9  32
TORSDOF 8
