REMARK  Name = ZINC03773339
REMARK  13 active torsions:
REMARK  status: ('A' for Active; 'I' for Inactive)
REMARK    1  A    between atoms: C_1  and  C_2
REMARK    2  A    between atoms: C_5  and  C_8
REMARK    3  A    between atoms: C_8  and  N_9
REMARK    4  A    between atoms: N_9  and  C_10
REMARK    5  A    between atoms: C_10  and  C_12
REMARK    6  A    between atoms: C_10  and  C_19
REMARK    7  A    between atoms: C_15  and  C_18
REMARK    8  A    between atoms: N_21  and  C_22
REMARK    9  A    between atoms: C_25  and  N_28
REMARK   10  A    between atoms: N_28  and  C_29
REMARK   11  A    between atoms: N_28  and  C_30
REMARK   12  A    between atoms: C_31  and  C_33
REMARK   13  A    between atoms: C_33  and  C_34
REMARK                            x       y       z     vdW  Elec       q    Type
REMARK                         _______ _______ _______ _____ _____    ______ ____
ROOT
ATOM      1  C   UNL     1       1.448  -5.175   1.267  0.00  0.00    +0.193 C 
ENDROOT
BRANCH   1   2
ATOM      2  C   UNL     1       0.231  -6.063   1.289  0.00  0.00    -0.018 A 
ATOM      3  C   UNL     1      -0.752  -5.912   0.329  0.00  0.00    +0.006 A 
ATOM      4  C   UNL     1      -1.869  -6.727   0.348  0.00  0.00    +0.004 A 
ATOM      5  C   UNL     1      -2.002  -7.693   1.328  0.00  0.00    -0.050 A 
ATOM      6  C   UNL     1      -1.019  -7.845   2.288  0.00  0.00    +0.004 A 
ATOM      7  C   UNL     1       0.100  -7.033   2.265  0.00  0.00    +0.006 A 
ATOM      8  C   UNL     1      -3.220  -8.581   1.350  0.00  0.00    +0.044 C 
ENDBRANCH   1   2
BRANCH   1   9
ATOM      9  C   UNL     1       1.107  -3.840   1.877  0.00  0.00    +0.242 C 
ATOM     10  O   UNL     1       0.485  -3.021   1.234  0.00  0.00    -0.273 OA
ATOM     11  N   UNL     1       1.492  -3.557   3.137  0.00  0.00    -0.284 N 
ATOM     12  H   UNL     1       2.100  -4.151   3.604  0.00  0.00    +0.155 HD
BRANCH  11  13
ATOM     13  C   UNL     1       1.013  -2.403   3.773  0.00  0.00    +0.034 A 
ATOM     14  C   UNL     1      -0.255  -1.922   3.477  0.00  0.00    +0.025 A 
ATOM     15  C   UNL     1      -0.727  -0.786   4.104  0.00  0.00    +0.025 A 
ATOM     16  C   UNL     1       0.068  -0.124   5.031  0.00  0.00    +0.029 A 
ATOM     17  C   UNL     1       1.336  -0.606   5.328  0.00  0.00    +0.025 A 
ATOM     18  C   UNL     1       1.806  -1.745   4.705  0.00  0.00    +0.025 A 
BRANCH  16  19
ATOM     19  N   UNL     1      -0.410   1.027   5.666  0.00  0.00    -0.336 N 
ATOM     20  C   UNL     1      -1.748   1.535   5.353  0.00  0.00    +0.129 C 
ATOM     21  C   UNL     1       0.428   1.725   6.645  0.00  0.00    +0.129 C 
ENDBRANCH  16  19
ENDBRANCH  11  13
ENDBRANCH   1   9
BRANCH   1  22
ATOM     22  N   UNL     1       1.887  -4.982  -0.117  0.00  0.00    -0.281 N 
ATOM     23  C   UNL     1       2.489  -5.989  -0.780  0.00  0.00    +0.221 C 
ATOM     24  O   UNL     1       2.928  -6.940  -0.170  0.00  0.00    -0.275 OA
BRANCH  22  25
ATOM     25  C   UNL     1       1.672  -3.693  -0.781  0.00  0.00    +0.144 C 
BRANCH  25  30
ATOM     26  C   UNL     1       5.963  -0.076   0.593  0.00  0.00    +0.044 C 
ATOM     27  C   UNL     1       4.844  -1.019   0.235  0.00  0.00    -0.050 A 
ATOM     28  C   UNL     1       5.125  -2.216  -0.398  0.00  0.00    +0.003 A 
ATOM     29  C   UNL     1       4.098  -3.081  -0.727  0.00  0.00    +0.005 A 
ATOM     30  C   UNL     1       2.791  -2.750  -0.422  0.00  0.00    -0.030 A 
ATOM     31  C   UNL     1       2.510  -1.554   0.212  0.00  0.00    +0.005 A 
ATOM     32  C   UNL     1       3.538  -0.691   0.545  0.00  0.00    +0.003 A 
ENDBRANCH  25  30
ENDBRANCH  22  25
BRANCH  23  33
ATOM     33  C   UNL     1       2.616  -5.933  -2.281  0.00  0.00    +0.131 C 
BRANCH  33  34
ATOM     34  C   UNL     1       2.919  -7.311  -2.811  0.00  0.00    -0.039 A 
ATOM     35  C   UNL     1       4.230  -7.728  -2.942  0.00  0.00    +0.004 A 
ATOM     36  C   UNL     1       4.508  -8.992  -3.428  0.00  0.00    +0.000 A 
ATOM     37  C   UNL     1       3.475  -9.839  -3.783  0.00  0.00    +0.000 A 
ATOM     38  C   UNL     1       2.163  -9.422  -3.651  0.00  0.00    +0.000 A 
ATOM     39  C   UNL     1       1.885  -8.160  -3.161  0.00  0.00    +0.004 A 
ENDBRANCH  33  34
ENDBRANCH  23  33
ENDBRANCH   1  22
TORSDOF 9
