REMARK  Name = ZINC05054788
REMARK  7 active torsions:
REMARK  status: ('A' for Active; 'I' for Inactive)
REMARK    1  A    between atoms: C_1  and  C_2
REMARK    2  A    between atoms: C_6  and  C_8
REMARK    3  A    between atoms: C_8  and  O_9
REMARK    4  A    between atoms: O_9  and  N_10
REMARK    5  A    between atoms: C_14  and  C_17
REMARK    6  A    between atoms: N_19  and  C_20
REMARK    7  A    between atoms: C_25  and  C_26
REMARK                            x       y       z     vdW  Elec       q    Type
REMARK                         _______ _______ _______ _____ _____    ______ ____
ROOT
ATOM      1  N   UNL     1      -0.205   7.426  -1.181  0.00  0.00    -0.151 N 
ATOM      2  C   UNL     1      -1.296   7.914  -1.818  0.00  0.00    +0.133 A 
ATOM      3  C   UNL     1      -1.242   9.074  -2.520  0.00  0.00    +0.022 A 
ATOM      4  C   UNL     1      -0.045   9.785  -2.606  0.00  0.00    +0.020 A 
ATOM      5  C   UNL     1       1.084   9.287  -1.958  0.00  0.00    +0.104 A 
ATOM      6  C   UNL     1       0.976   8.072  -1.232  0.00  0.00    +0.296 A 
ATOM      7  O   UNL     1       1.948   7.616  -0.656  0.00  0.00    -0.264 OA
ENDROOT
BRANCH   5   8
ATOM      8  C   UNL     1       2.364  10.007  -2.025  0.00  0.00    +0.254 C 
ATOM      9  O   UNL     1       2.418  11.105  -2.546  0.00  0.00    -0.270 OA
ATOM     10  N   UNL     1       3.478   9.451  -1.508  0.00  0.00    -0.281 N 
ATOM     11  H   UNL     1       3.453   8.544  -1.165  0.00  0.00    +0.155 HD
BRANCH  10  12
ATOM     12  C   UNL     1       4.669  10.182  -1.466  0.00  0.00    +0.045 A 
ATOM     13  C   UNL     1       4.635  11.571  -1.470  0.00  0.00    +0.024 A 
ATOM     14  C   UNL     1       5.813  12.290  -1.423  0.00  0.00    +0.002 A 
ATOM     15  C   UNL     1       7.027  11.629  -1.384  0.00  0.00    +0.001 A 
ATOM     16  C   UNL     1       7.065  10.247  -1.385  0.00  0.00    +0.014 A 
ATOM     17  C   UNL     1       5.890   9.522  -1.426  0.00  0.00    +0.076 A 
BRANCH  17  18
ATOM     18  C   UNL     1       5.933   8.015  -1.428  0.00  0.00    +0.419 C 
ATOM     19  F   UNL     1       7.264   7.587  -1.385  0.00  0.00    -0.166 F 
ATOM     20  F   UNL     1       5.249   7.528  -0.310  0.00  0.00    -0.166 F 
ATOM     21  F   UNL     1       5.326   7.533  -2.593  0.00  0.00    -0.166 F 
ENDBRANCH  17  18
ENDBRANCH  10  12
ENDBRANCH   5   8
BRANCH   1  22
ATOM     22  O   UNL     1      -0.305   6.215  -0.455  0.00  0.00    -0.404 OA
BRANCH  22  23
ATOM     23  C   UNL     1      -0.666   6.387   0.916  0.00  0.00    +0.296 C 
BRANCH  23  29
ATOM     24  C   UNL     1      -3.304   2.340   2.223  0.00  0.00    +0.044 C 
ATOM     25  C   UNL     1      -2.006   3.104   2.214  0.00  0.00    -0.050 A 
ATOM     26  C   UNL     1      -0.885   2.570   2.822  0.00  0.00    +0.003 A 
ATOM     27  C   UNL     1       0.308   3.269   2.809  0.00  0.00    +0.001 A 
ATOM     28  C   UNL     1       0.379   4.504   2.192  0.00  0.00    +0.007 A 
ATOM     29  C   UNL     1      -0.743   5.040   1.589  0.00  0.00    -0.008 A 
ATOM     30  C   UNL     1      -1.936   4.342   1.602  0.00  0.00    +0.010 A 
ENDBRANCH  23  29
ENDBRANCH  22  23
ENDBRANCH   1  22
TORSDOF 6
