REMARK  Name = ZINC40844561
REMARK  10 active torsions:
REMARK  status: ('A' for Active; 'I' for Inactive)
REMARK    1  A    between atoms: C_1  and  C_2
REMARK    2  A    between atoms: C_2  and  O_3
REMARK    3  A    between atoms: O_3  and  C_4
REMARK    4  A    between atoms: C_4  and  C_6
REMARK    5  A    between atoms: C_7  and  N_27
REMARK    6  A    between atoms: C_19  and  C_21
REMARK    7  A    between atoms: C_28  and  C_30
REMARK    8  A    between atoms: C_30  and  O_31
REMARK    9  A    between atoms: O_31  and  C_32
REMARK   10  A    between atoms: C_36  and  C_38
REMARK                            x       y       z     vdW  Elec       q    Type
REMARK                         _______ _______ _______ _____ _____    ______ ____
ROOT
ATOM      1  C   UNL     1      -2.789  -2.394   0.008  0.00  0.00    +0.106 C 
ATOM      2  C   UNL     1      -2.940  -3.738  -0.087  0.00  0.00    +0.204 C 
ATOM      3  O   UNL     1      -4.152  -4.312  -0.076  0.00  0.00    -0.441 OA
ATOM      4  C   UNL     1      -5.219  -3.640   0.425  0.00  0.00    +0.135 A 
ATOM      5  C   UNL     1      -6.353  -4.368   0.815  0.00  0.00    +0.047 A 
ATOM      6  C   UNL     1      -7.449  -3.747   1.323  0.00  0.00    +0.012 A 
ATOM      7  C   UNL     1      -7.454  -2.349   1.466  0.00  0.00    -0.017 A 
ATOM      8  C   UNL     1      -8.569  -1.672   1.989  0.00  0.00    +0.008 A 
ATOM      9  C   UNL     1      -8.536  -0.317   2.113  0.00  0.00    +0.001 A 
ATOM     10  C   UNL     1      -7.413   0.412   1.727  0.00  0.00    +0.001 A 
ATOM     11  C   UNL     1      -6.315  -0.209   1.216  0.00  0.00    +0.009 A 
ATOM     12  C   UNL     1      -6.312  -1.608   1.074  0.00  0.00    -0.010 A 
ATOM     13  C   UNL     1      -5.194  -2.281   0.550  0.00  0.00    +0.015 A 
ATOM     14  C   UNL     1      -3.983  -1.490   0.138  0.00  0.00    +0.095 C 
ENDROOT
BRANCH  14  15
ATOM     15  C   UNL     1      -4.253  -0.826  -1.188  0.00  0.00    -0.035 A 
ATOM     16  C   UNL     1      -4.539  -1.595  -2.300  0.00  0.00    +0.004 A 
ATOM     17  C   UNL     1      -4.787  -0.986  -3.516  0.00  0.00    +0.000 A 
ATOM     18  C   UNL     1      -4.749   0.392  -3.619  0.00  0.00    +0.000 A 
ATOM     19  C   UNL     1      -4.464   1.161  -2.507  0.00  0.00    +0.000 A 
ATOM     20  C   UNL     1      -4.221   0.552  -1.290  0.00  0.00    +0.004 A 
ENDBRANCH  14  15
BRANCH   2  21
ATOM     21  N   UNL     1      -1.821  -4.533  -0.198  0.00  0.00    -0.253 N 
ATOM     22  C   UNL     1      -1.955  -5.858  -0.403  0.00  0.00    +0.257 C 
ATOM     23  O   UNL     1      -3.059  -6.350  -0.489  0.00  0.00    -0.272 OA
ATOM     24  H   UNL     1      -0.938  -4.139  -0.129  0.00  0.00    +0.158 HD
BRANCH  22  25
ATOM     25  C   UNL     1      -0.731  -6.729  -0.524  0.00  0.00    +0.325 C 
BRANCH  25  26
ATOM     26  O   UNL     1      -1.129  -8.084  -0.736  0.00  0.00    -0.483 OA
BRANCH  26  27
ATOM     27  C   UNL     1      -0.139  -9.005  -0.868  0.00  0.00    +0.121 A 
ATOM     28  C   UNL     1       1.190  -8.613  -0.789  0.00  0.00    +0.045 A 
ATOM     29  C   UNL     1       2.195  -9.551  -0.922  0.00  0.00    +0.004 A 
ATOM     30  C   UNL     1       1.878 -10.880  -1.135  0.00  0.00    +0.003 A 
ATOM     31  C   UNL     1       0.555 -11.274  -1.214  0.00  0.00    -0.047 A 
ATOM     32  C   UNL     1      -0.454 -10.340  -1.075  0.00  0.00    +0.049 A 
ATOM     33  C   UNL     1       0.213 -12.723  -1.446  0.00  0.00    +0.044 C 
ENDBRANCH  26  27
ENDBRANCH  25  26
ENDBRANCH  22  25
ENDBRANCH   2  21
BRANCH   1  34
ATOM     34  C   UNL     1      -1.498  -1.839  -0.009  0.00  0.00    +0.341 C 
ATOM     35  O   UNL     1      -0.998  -1.428   1.022  0.00  0.00    -0.245 OA
BRANCH  34  36
ATOM     36  O   UNL     1      -0.812  -1.760  -1.170  0.00  0.00    -0.462 OA
BRANCH  36  38
ATOM     37  C   UNL     1       1.111  -1.181  -2.514  0.00  0.00    +0.048 C 
ATOM     38  C   UNL     1       0.494  -1.184  -1.114  0.00  0.00    +0.229 C 
ENDBRANCH  36  38
ENDBRANCH  34  36
ENDBRANCH   1  34
TORSDOF 8
