REMARK  Name = ZINC38918592
REMARK  6 active torsions:
REMARK  status: ('A' for Active; 'I' for Inactive)
REMARK    1  A    between atoms: C_4  and  C_7
REMARK    2  A    between atoms: C_7  and  O_8
REMARK    3  A    between atoms: O_8  and  C_9
REMARK    4  A    between atoms: C_13  and  C_15
REMARK    5  A    between atoms: N_16  and  N_17
REMARK    6  A    between atoms: C_18  and  C_24
REMARK                            x       y       z     vdW  Elec       q    Type
REMARK                         _______ _______ _______ _____ _____    ______ ____
ROOT
ATOM      1  C   UNL     1       7.422  -3.035   4.264  0.00  0.00    +0.138 C 
ATOM      2  N   UNL     1       8.636  -3.473   4.402  0.00  0.00    -0.183 NA
ENDROOT
BRANCH   2   3
ATOM      3  N   UNL     1       9.173  -3.658   5.683  0.00  0.00    -0.172 N 
ATOM      4  C   UNL     1      10.477  -4.246   6.039  0.00  0.00    +0.265 C 
ATOM      5  N   UNL     1      10.503  -4.183   7.509  0.00  0.00    -0.189 NA
ATOM      6  N   UNL     1       9.446  -3.673   7.889  0.00  0.00    -0.219 N 
ATOM      7  C   UNL     1       8.613  -3.332   6.869  0.00  0.00    +0.174 C 
ATOM      8  S   UNL     1       7.077  -2.600   7.060  0.00  0.00    -0.015 S 
ATOM      9  H   UNL     1       9.231  -3.526   8.824  0.00  0.00    +0.176 HD
BRANCH   4  10
ATOM     10  C   UNL     1      10.561  -5.674   5.566  0.00  0.00    +0.016 A 
ATOM     11  C   UNL     1       9.792  -6.094   4.497  0.00  0.00    +0.010 A 
ATOM     12  C   UNL     1       9.867  -7.404   4.063  0.00  0.00    +0.020 A 
ATOM     13  C   UNL     1      10.714  -8.296   4.698  0.00  0.00    +0.042 A 
ATOM     14  C   UNL     1      11.484  -7.876   5.768  0.00  0.00    +0.040 A 
ATOM     15  C   UNL     1      11.411  -6.564   6.199  0.00  0.00    +0.049 A 
ATOM     16 CL   UNL     1      12.382  -6.035   7.537  0.00  0.00    -0.083 Cl
ATOM     17 CL   UNL     1      10.808  -9.941   4.153  0.00  0.00    -0.083 Cl
ENDBRANCH   4  10
ENDBRANCH   2   3
BRANCH   1  22
ATOM     18  C   UNL     1       5.098  -1.995   1.502  0.00  0.00    +0.122 A 
ATOM     19  C   UNL     1       5.905  -2.188   0.388  0.00  0.00    +0.046 A 
ATOM     20  C   UNL     1       7.198  -2.654   0.536  0.00  0.00    +0.004 A 
ATOM     21  C   UNL     1       7.697  -2.931   1.792  0.00  0.00    +0.010 A 
ATOM     22  C   UNL     1       6.893  -2.740   2.919  0.00  0.00    -0.002 A 
ATOM     23  C   UNL     1       5.589  -2.264   2.768  0.00  0.00    +0.055 A 
BRANCH  18  24
ATOM     24  O   UNL     1       3.828  -1.536   1.349  0.00  0.00    -0.487 OA
BRANCH  24  25
ATOM     25  C   UNL     1       3.387  -1.280   0.015  0.00  0.00    +0.264 C 
BRANCH  25  29
ATOM     26  C   UNL     1      -0.644   0.132   0.092  0.00  0.00    +0.000 A 
ATOM     27  C   UNL     1       0.404   1.030   0.166  0.00  0.00    +0.000 A 
ATOM     28  C   UNL     1       1.709   0.573   0.141  0.00  0.00    +0.007 A 
ATOM     29  C   UNL     1       1.965  -0.782   0.043  0.00  0.00    -0.010 A 
ATOM     30  C   UNL     1       0.916  -1.680  -0.031  0.00  0.00    +0.007 A 
ATOM     31  C   UNL     1      -0.388  -1.223  -0.007  0.00  0.00    +0.000 A 
ENDBRANCH  25  29
ENDBRANCH  24  25
ENDBRANCH  18  24
ENDBRANCH   1  22
TORSDOF 6
