REMARK  Name = ZINC36609738
REMARK  14 active torsions:
REMARK  status: ('A' for Active; 'I' for Inactive)
REMARK    1  A    between atoms: C_1  and  C_2
REMARK    2  A    between atoms: C_2  and  C_3
REMARK    3  A    between atoms: C_2  and  C_4
REMARK    4  A    between atoms: C_2  and  C_5
REMARK    5  A    between atoms: C_5  and  C_6
REMARK    6  A    between atoms: C_6  and  C_7
REMARK    7  A    between atoms: C_6  and  C_8
REMARK    8  A    between atoms: C_6  and  N_9
REMARK    9  A    between atoms: C_10  and  C_12
REMARK   10  A    between atoms: C_12  and  C_14
REMARK   11  A    between atoms: C_12  and  N_23
REMARK   12  A    between atoms: N_23  and  C_24
REMARK   13  A    between atoms: C_30  and  C_32
REMARK   14  A    between atoms: C_33  and  C_34
REMARK                            x       y       z     vdW  Elec       q    Type
REMARK                         _______ _______ _______ _____ _____    ______ ____
ROOT
ATOM      1  C   UNL     1       5.241   0.245  -4.142  0.00  0.00    +0.198 C 
ENDROOT
BRANCH   1   2
ATOM      2  C   UNL     1       4.546   1.370  -4.865  0.00  0.00    -0.014 A 
ATOM      3  C   UNL     1       5.032   2.660  -4.762  0.00  0.00    +0.010 A 
ATOM      4  C   UNL     1       4.398   3.696  -5.424  0.00  0.00    +0.050 A 
ATOM      5  C   UNL     1       3.273   3.442  -6.191  0.00  0.00    +0.166 A 
ATOM      6  C   UNL     1       2.783   2.142  -6.295  0.00  0.00    +0.167 A 
ATOM      7  C   UNL     1       3.427   1.109  -5.633  0.00  0.00    +0.055 A 
ATOM      8  O   UNL     1       1.680   2.154  -7.098  0.00  0.00    -0.453 OA
ATOM      9  C   UNL     1       1.260   3.530  -7.154  0.00  0.00    +0.466 C 
ATOM     10  O   UNL     1       2.476   4.268  -6.930  0.00  0.00    -0.453 OA
ENDBRANCH   1   2
BRANCH   1  12
ATOM     11  N   UNL     1       3.893   0.499  -2.083  0.00  0.00    -0.308 N 
ATOM     12  C   UNL     1       5.113   0.449  -2.654  0.00  0.00    +0.239 C 
ATOM     13  O   UNL     1       6.108   0.569  -1.971  0.00  0.00    -0.273 OA
ATOM     14  H   UNL     1       3.098   0.403  -2.630  0.00  0.00    +0.149 HD
BRANCH  11  15
ATOM     15  C   UNL     1       3.769   0.697  -0.637  0.00  0.00    +0.030 C 
ATOM     16  C   UNL     1       4.550   1.946  -0.225  0.00  0.00    +0.031 C 
ATOM     17  C   UNL     1       4.334  -0.522   0.095  0.00  0.00    +0.031 C 
BRANCH  15  18
ATOM     18  C   UNL     1       2.294   0.873  -0.271  0.00  0.00    +0.031 C 
BRANCH  18  20
ATOM     19  C   UNL     1       1.274   0.997  -2.549  0.00  0.00    +0.010 C 
ATOM     20  C   UNL     1       1.623   1.796  -1.291  0.00  0.00    -0.036 C 
ATOM     21  C   UNL     1       2.579   2.933  -1.657  0.00  0.00    +0.010 C 
ATOM     22  C   UNL     1       0.344   2.379  -0.686  0.00  0.00    +0.010 C 
ENDBRANCH  18  20
ENDBRANCH  15  18
ENDBRANCH  11  15
ENDBRANCH   1  12
BRANCH   1  23
ATOM     23  N   UNL     1       6.658   0.229  -4.513  0.00  0.00    -0.245 N 
ATOM     24  C   UNL     1       7.482  -0.697  -3.983  0.00  0.00    +0.297 C 
ATOM     25  O   UNL     1       7.030  -1.589  -3.289  0.00  0.00    -0.260 OA
BRANCH  23  26
ATOM     26  C   UNL     1       7.156   1.173  -5.415  0.00  0.00    +0.038 A 
ATOM     27  C   UNL     1       8.079   2.121  -4.992  0.00  0.00    +0.023 A 
ATOM     28  C   UNL     1       8.569   3.052  -5.886  0.00  0.00    +0.002 A 
ATOM     29  C   UNL     1       8.141   3.043  -7.201  0.00  0.00    +0.000 A 
ATOM     30  C   UNL     1       7.221   2.102  -7.625  0.00  0.00    +0.002 A 
ATOM     31  C   UNL     1       6.732   1.163  -6.738  0.00  0.00    +0.023 A 
ENDBRANCH  23  26
BRANCH  24  32
ATOM     32  C   UNL     1       8.890  -0.632  -4.238  0.00  0.00    -0.002 C 
ATOM     33  C   UNL     1      10.044  -0.579  -4.447  0.00  0.00    -0.057 C 
BRANCH  33  34
ATOM     34  C   UNL     1      11.452  -0.513  -4.701  0.00  0.00    +0.025 A 
ATOM     35  C   UNL     1      11.976   0.513  -5.494  0.00  0.00    +0.017 A 
ATOM     36  C   UNL     1      13.332   0.569  -5.734  0.00  0.00    +0.001 A 
ATOM     37  C   UNL     1      14.175  -0.387  -5.194  0.00  0.00    +0.000 A 
ATOM     38  C   UNL     1      13.664  -1.406  -4.408  0.00  0.00    +0.001 A 
ATOM     39  C   UNL     1      12.310  -1.472  -4.154  0.00  0.00    +0.017 A 
ENDBRANCH  33  34
ENDBRANCH  24  32
ENDBRANCH   1  23
TORSDOF 9
