REMARK  Name = ZINC35450176
REMARK  4 active torsions:
REMARK  status: ('A' for Active; 'I' for Inactive)
REMARK    1  A    between atoms: C_5  and  O_7
REMARK    2  A    between atoms: O_7  and  C_8
REMARK    3  A    between atoms: C_9  and  C_17
REMARK    4  A    between atoms: C_17  and  N_18
REMARK                            x       y       z     vdW  Elec       q    Type
REMARK                         _______ _______ _______ _____ _____    ______ ____
ROOT
ATOM      1  C   UNL     1       0.048  -2.697   0.091  0.00  0.00    +0.241 A 
ATOM      2  C   UNL     1      -0.105  -4.040   0.202  0.00  0.00    +0.069 A 
ATOM      3  N   UNL     1      -1.451  -4.285   0.292  0.00  0.00    -0.302 N 
ATOM      4  C   UNL     1      -2.171  -5.437   0.419  0.00  0.00    +0.093 A 
ATOM      5  C   UNL     1      -3.519  -5.401   0.488  0.00  0.00    +0.018 A 
ATOM      6  C   UNL     1      -4.198  -4.174   0.430  0.00  0.00    +0.005 A 
ATOM      7  C   UNL     1      -3.491  -3.018   0.304  0.00  0.00    +0.047 A 
ATOM      8  C   UNL     1      -2.085  -3.072   0.234  0.00  0.00    +0.142 A 
ATOM      9  N   UNL     1      -1.161  -2.128   0.117  0.00  0.00    -0.193 NA
ENDROOT
BRANCH   1  10
ATOM     10  O   UNL     1       1.234  -2.039  -0.022  0.00  0.00    -0.434 OA
BRANCH  10  15
ATOM     11  C   UNL     1       0.031   1.370   0.386  0.00  0.00    +0.004 A 
ATOM     12  C   UNL     1       1.181   2.085   0.107  0.00  0.00    +0.003 A 
ATOM     13  C   UNL     1       2.350   1.421  -0.216  0.00  0.00    +0.042 A 
ATOM     14  C   UNL     1       2.371   0.039  -0.260  0.00  0.00    +0.165 A 
ATOM     15  C   UNL     1       1.216  -0.681   0.021  0.00  0.00    +0.165 A 
ATOM     16  C   UNL     1       0.046  -0.011   0.344  0.00  0.00    +0.049 A 
ATOM     17  F   UNL     1       3.513  -0.610  -0.577  0.00  0.00    -0.202 F 
ENDBRANCH  10  15
ENDBRANCH   1  10
BRANCH   2  18
ATOM     18  C   UNL     1       0.996  -5.068   0.221  0.00  0.00    -0.026 C 
BRANCH  18  19
ATOM     19  N   UNL     1       1.281  -5.507  -1.151  0.00  0.00    +0.382 N 
ATOM     20  H   UNL     1       0.449  -5.913  -1.554  0.00  0.00    -0.090 HD
ATOM     21  H   UNL     1       1.571  -4.715  -1.704  0.00  0.00    -0.090 HD
ATOM     22  H   UNL     1       2.018  -6.196  -1.138  0.00  0.00    -0.090 HD
ENDBRANCH  18  19
ENDBRANCH   2  18
TORSDOF 4
