REMARK  Name = ZINC00901713
REMARK  12 active torsions:
REMARK  status: ('A' for Active; 'I' for Inactive)
REMARK    1  A    between atoms: C_1  and  C_2
REMARK    2  A    between atoms: C_5  and  C_7
REMARK    3  A    between atoms: C_7  and  C_9
REMARK    4  A    between atoms: C_7  and  N_17
REMARK    5  A    between atoms: N_11  and  C_12
REMARK    6  A    between atoms: N_17  and  C_18
REMARK    7  A    between atoms: C_21  and  O_26
REMARK    8  A    between atoms: C_22  and  O_24
REMARK    9  A    between atoms: O_24  and  C_25
REMARK   10  A    between atoms: O_26  and  C_27
REMARK   11  A    between atoms: C_28  and  C_30
REMARK   12  A    between atoms: C_30  and  N_31
REMARK                            x       y       z     vdW  Elec       q    Type
REMARK                         _______ _______ _______ _____ _____    ______ ____
ROOT
ATOM      1  N   UNL     1      -5.535   3.461  -1.589  0.00  0.00    -0.251 N 
ATOM      2  C   UNL     1      -4.230   3.789  -1.510  0.00  0.00    +0.242 C 
ATOM      3  O   UNL     1      -3.555   3.835  -2.517  0.00  0.00    -0.273 OA
ENDROOT
BRANCH   1   4
ATOM      4  C   UNL     1      -6.141   3.295  -2.841  0.00  0.00    +0.041 A 
ATOM      5  C   UNL     1      -5.386   3.415  -3.999  0.00  0.00    +0.027 A 
ATOM      6  C   UNL     1      -5.982   3.252  -5.235  0.00  0.00    +0.051 A 
ATOM      7  C   UNL     1      -7.336   2.969  -5.321  0.00  0.00    +0.162 A 
ATOM      8  C   UNL     1      -8.096   2.847  -4.161  0.00  0.00    +0.163 A 
ATOM      9  C   UNL     1      -7.497   3.006  -2.923  0.00  0.00    +0.073 A 
BRANCH   8  10
ATOM     10  O   UNL     1      -9.424   2.568  -4.244  0.00  0.00    -0.491 OA
ATOM     11  C   UNL     1     -10.142   2.458  -3.013  0.00  0.00    +0.277 C 
ENDBRANCH   8  10
BRANCH   7  12
ATOM     12  O   UNL     1      -7.922   2.808  -6.538  0.00  0.00    -0.491 OA
ATOM     13  C   UNL     1      -7.082   2.946  -7.686  0.00  0.00    +0.277 C 
ENDBRANCH   7  12
ENDBRANCH   1   4
BRANCH   1  14
ATOM     14  C   UNL     1      -6.319   3.276  -0.365  0.00  0.00    +0.233 C 
BRANCH  14  19
ATOM     15  C   UNL     1      -8.447  -1.064  -1.805  0.00  0.00    +0.086 C 
ATOM     16  C   UNL     1      -7.784  -0.017  -0.947  0.00  0.00    +0.102 A 
ATOM     17  C   UNL     1      -7.456  -0.155   0.350  0.00  0.00    +0.045 A 
ATOM     18  C   UNL     1      -6.855   1.060   0.752  0.00  0.00    +0.047 A 
ATOM     19  C   UNL     1      -6.859   1.870  -0.321  0.00  0.00    +0.135 A 
ATOM     20  O   UNL     1      -7.419   1.212  -1.348  0.00  0.00    -0.462 OA
ENDBRANCH  14  19
BRANCH  14  21
ATOM     21  C   UNL     1      -7.465   4.255  -0.350  0.00  0.00    +0.242 C 
ATOM     22  O   UNL     1      -7.838   4.767  -1.385  0.00  0.00    -0.273 OA
ATOM     23  N   UNL     1      -8.075   4.561   0.812  0.00  0.00    -0.311 N 
ATOM     24  H   UNL     1      -7.776   4.152   1.639  0.00  0.00    +0.149 HD
BRANCH  23  25
ATOM     25  C   UNL     1      -9.189   5.513   0.826  0.00  0.00    +0.073 C 
ATOM     26  C   UNL     1      -8.653   6.951   0.979  0.00  0.00    +0.022 C 
ATOM     27  C   UNL     1      -9.696   7.650   1.887  0.00  0.00    +0.002 C 
ATOM     28  C   UNL     1     -10.075   6.535   2.893  0.00  0.00    +0.002 C 
ATOM     29  C   UNL     1     -10.092   5.248   2.043  0.00  0.00    +0.022 C 
ENDBRANCH  23  25
ENDBRANCH  14  21
ENDBRANCH   1  14
BRANCH   2  30
ATOM     30  C   UNL     1      -3.610   4.099  -0.172  0.00  0.00    +0.242 C 
BRANCH  30  31
ATOM     31  N   UNL     1      -2.193   4.424  -0.354  0.00  0.00    -0.235 N 
ATOM     32  C   UNL     1      -1.138   3.544  -0.330  0.00  0.00    +0.090 A 
ATOM     33  C   UNL     1      -1.030   2.169  -0.151  0.00  0.00    +0.029 A 
ATOM     34  C   UNL     1       0.200   1.575  -0.180  0.00  0.00    +0.002 A 
ATOM     35  C   UNL     1       1.345   2.331  -0.396  0.00  0.00    +0.002 A 
ATOM     36  C   UNL     1       1.266   3.680  -0.579  0.00  0.00    +0.032 A 
ATOM     37  C   UNL     1       0.017   4.315  -0.550  0.00  0.00    +0.113 A 
ATOM     38  N   UNL     1      -0.369   5.598  -0.694  0.00  0.00    -0.129 NA
ATOM     39  N   UNL     1      -1.647   5.695  -0.586  0.00  0.00    -0.064 NA
ENDBRANCH  30  31
ENDBRANCH   2  30
TORSDOF 9
