REMARK  Name = ZINC18200829
REMARK  9 active torsions:
REMARK  status: ('A' for Active; 'I' for Inactive)
REMARK    1  A    between atoms: C_1  and  N_2
REMARK    2  A    between atoms: N_2  and  C_3
REMARK    3  A    between atoms: N_2  and  C_4
REMARK    4  A    between atoms: C_7  and  C_10
REMARK    5  A    between atoms: C_28  and  C_31
REMARK    6  A    between atoms: C_34  and  O_39
REMARK    7  A    between atoms: C_35  and  O_37
REMARK    8  A    between atoms: O_37  and  C_38
REMARK    9  A    between atoms: O_39  and  C_40
REMARK                            x       y       z     vdW  Elec       q    Type
REMARK                         _______ _______ _______ _____ _____    ______ ____
ROOT
ATOM      1  C   UNL     1      -2.510   3.759   0.056  0.00  0.00    +0.092 C 
ATOM      2  C   UNL     1      -1.196   3.034   0.037  0.00  0.00    +0.067 A 
ATOM      3  C   UNL     1      -0.019   3.720   0.023  0.00  0.00    +0.113 A 
ATOM      4  N   UNL     1       1.169   3.030   0.012  0.00  0.00    -0.295 N 
ATOM      5  H   UNL     1       2.035   3.529   0.003  0.00  0.00    +0.172 HD
ATOM      6  C   UNL     1       1.173   1.684   0.014  0.00  0.00    +0.328 A 
ATOM      7  O   UNL     1       2.232   1.087   0.005  0.00  0.00    -0.247 OA
ATOM      8  N   UNL     1       0.021   0.989   0.024  0.00  0.00    -0.275 N 
ATOM      9  H   UNL     1       0.045  -0.011   0.028  0.00  0.00    +0.173 HD
ATOM     10  C   UNL     1      -1.165   1.628   0.029  0.00  0.00    +0.260 A 
ATOM     11  O   UNL     1      -2.205   0.992   0.032  0.00  0.00    -0.267 OA
ATOM     12  N   UNL     1      -0.021   5.092   0.016  0.00  0.00    -0.303 N 
ATOM     13  C   UNL     1      -1.135   5.787  -0.371  0.00  0.00    +0.017 C 
ATOM     14  C   UNL     1      -2.349   5.196  -0.369  0.00  0.00    +0.024 C 
ATOM     15  C   UNL     1      -3.499   5.902  -0.763  0.00  0.00    +0.162 C 
ATOM     16  O   UNL     1      -4.574   5.335  -0.766  0.00  0.00    -0.292 OA
ATOM     17  C   UNL     1      -3.424   7.345  -1.179  0.00  0.00    +0.088 C 
ATOM     18  C   UNL     1      -2.241   8.009  -0.466  0.00  0.00    +0.032 C 
ATOM     19  C   UNL     1      -0.971   7.224  -0.801  0.00  0.00    +0.059 C 
ATOM     20  H   UNL     1       0.776   5.575   0.288  0.00  0.00    +0.153 HD
ENDROOT
BRANCH   1  24
ATOM     21  C   UNL     1      -4.112   3.646   4.017  0.00  0.00    +0.029 A 
ATOM     22  C   UNL     1      -4.823   3.088   2.962  0.00  0.00    +0.023 A 
ATOM     23  C   UNL     1      -4.302   3.126   1.683  0.00  0.00    +0.006 A 
ATOM     24  C   UNL     1      -3.075   3.719   1.452  0.00  0.00    -0.035 A 
ATOM     25  C   UNL     1      -2.361   4.270   2.501  0.00  0.00    +0.006 A 
ATOM     26  C   UNL     1      -2.879   4.241   3.781  0.00  0.00    +0.023 A 
BRANCH  21  28
ATOM     27  C   UNL     1      -5.989   3.096   5.539  0.00  0.00    +0.129 C 
ATOM     28  N   UNL     1      -4.636   3.610   5.311  0.00  0.00    -0.336 N 
ATOM     29  C   UNL     1      -3.832   4.085   6.440  0.00  0.00    +0.129 C 
ENDBRANCH  21  28
ENDBRANCH   1  24
BRANCH  18  30
ATOM     30  C   UNL     1      -2.097   9.432  -0.940  0.00  0.00    -0.040 A 
ATOM     31  C   UNL     1      -1.883   9.694  -2.281  0.00  0.00    +0.008 A 
ATOM     32  C   UNL     1      -1.756  10.998  -2.721  0.00  0.00    +0.049 A 
ATOM     33  C   UNL     1      -1.832  12.045  -1.817  0.00  0.00    +0.161 A 
ATOM     34  C   UNL     1      -2.042  11.781  -0.467  0.00  0.00    +0.162 A 
ATOM     35  C   UNL     1      -2.174  10.472  -0.033  0.00  0.00    +0.053 A 
BRANCH  34  36
ATOM     36  O   UNL     1      -2.117  12.806   0.424  0.00  0.00    -0.491 OA
ATOM     37  C   UNL     1      -2.335  12.460   1.793  0.00  0.00    +0.277 C 
ENDBRANCH  34  36
BRANCH  33  38
ATOM     38  O   UNL     1      -1.701  13.329  -2.248  0.00  0.00    -0.491 OA
ATOM     39  C   UNL     1      -1.487  13.524  -3.648  0.00  0.00    +0.277 C 
ENDBRANCH  33  38
ENDBRANCH  18  30
TORSDOF 5
