REMARK  Name = ZINC66153321
REMARK  6 active torsions:
REMARK  status: ('A' for Active; 'I' for Inactive)
REMARK    1  A    between atoms: C_4  and  C_7
REMARK    2  A    between atoms: C_7  and  C_8
REMARK    3  A    between atoms: C_7  and  N_14
REMARK    4  A    between atoms: N_17  and  C_20
REMARK    5  A    between atoms: C_23  and  N_27
REMARK    6  A    between atoms: C_25  and  N_26
REMARK                            x       y       z     vdW  Elec       q    Type
REMARK                         _______ _______ _______ _____ _____    ______ ____
ROOT
ATOM      1  N   UNL     1       3.611  -1.868  -0.933  0.00  0.00    -0.289 NA
ATOM      2  C   UNL     1       3.188  -1.459  -2.279  0.00  0.00    +0.104 C 
ATOM      3  C   UNL     1       2.921  -2.707  -3.127  0.00  0.00    +0.120 C 
ATOM      4  N   UNL     1       4.115  -3.565  -3.084  0.00  0.00    -0.326 N 
ATOM      5  C   UNL     1       4.680  -3.906  -1.770  0.00  0.00    +0.120 C 
ATOM      6  C   UNL     1       4.878  -2.611  -0.975  0.00  0.00    +0.104 C 
ENDROOT
BRANCH   4   7
ATOM      7  C   UNL     1       4.699  -4.047  -4.266  0.00  0.00    +0.051 A 
ATOM      8  C   UNL     1       5.692  -3.315  -4.897  0.00  0.00    +0.027 A 
ATOM      9  C   UNL     1       6.267  -3.789  -6.062  0.00  0.00    +0.024 A 
ATOM     10  C   UNL     1       5.852  -4.998  -6.602  0.00  0.00    +0.026 A 
ATOM     11  C   UNL     1       4.858  -5.735  -5.974  0.00  0.00    +0.047 A 
ATOM     12  C   UNL     1       4.283  -5.265  -4.803  0.00  0.00    +0.048 A 
BRANCH  12  13
ATOM     13  N   UNL     1       3.284  -6.009  -4.164  0.00  0.00    -0.356 N 
ATOM     14  H   UNL     1       2.880  -5.677  -3.347  0.00  0.00    +0.142 HD
ATOM     15  H   UNL     1       2.996  -6.856  -4.538  0.00  0.00    +0.142 HD
ENDBRANCH  12  13
BRANCH  10  16
ATOM     16  N   UNL     1       6.437  -5.475  -7.782  0.00  0.00    -0.358 N 
ATOM     17  H   UNL     1       7.132  -4.960  -8.221  0.00  0.00    +0.142 HD
ATOM     18  H   UNL     1       6.147  -6.320  -8.159  0.00  0.00    +0.142 HD
ENDBRANCH  10  16
ENDBRANCH   4   7
BRANCH   1  19
ATOM     19  C   UNL     1       3.711  -0.707  -0.038  0.00  0.00    +0.117 C 
BRANCH  19  23
ATOM     20  C   UNL     1      -0.017   1.378   0.010  0.00  0.00    +0.000 A 
ATOM     21  C   UNL     1       1.171   2.086   0.002  0.00  0.00    +0.000 A 
ATOM     22  C   UNL     1       2.377   1.411  -0.013  0.00  0.00    +0.005 A 
ATOM     23  C   UNL     1       2.396   0.029  -0.020  0.00  0.00    -0.026 A 
ATOM     24  C   UNL     1       1.208  -0.679  -0.012  0.00  0.00    +0.005 A 
ATOM     25  C   UNL     1       0.002  -0.004   0.002  0.00  0.00    +0.000 A 
ENDBRANCH  19  23
BRANCH  19  26
ATOM     26  C   UNL     1       4.044  -1.175   1.356  0.00  0.00    -0.026 A 
ATOM     27  C   UNL     1       3.455  -2.320   1.860  0.00  0.00    +0.005 A 
ATOM     28  C   UNL     1       3.760  -2.748   3.138  0.00  0.00    +0.000 A 
ATOM     29  C   UNL     1       4.654  -2.033   3.912  0.00  0.00    +0.000 A 
ATOM     30  C   UNL     1       5.243  -0.888   3.408  0.00  0.00    +0.000 A 
ATOM     31  C   UNL     1       4.941  -0.462   2.128  0.00  0.00    +0.005 A 
ENDBRANCH  19  26
ENDBRANCH   1  19
TORSDOF 6
