REMARK  Name = ZINC00863393
REMARK  11 active torsions:
REMARK  status: ('A' for Active; 'I' for Inactive)
REMARK    1  A    between atoms: C_1  and  C_2
REMARK    2  A    between atoms: C_2  and  O_3
REMARK    3  A    between atoms: O_3  and  C_4
REMARK    4  A    between atoms: C_4  and  C_6
REMARK    5  A    between atoms: C_7  and  C_37
REMARK    6  A    between atoms: C_11  and  C_13
REMARK    7  A    between atoms: C_24  and  C_27
REMARK    8  A    between atoms: C_30  and  O_35
REMARK    9  A    between atoms: C_31  and  O_33
REMARK   10  A    between atoms: O_33  and  C_34
REMARK   11  A    between atoms: O_35  and  C_36
REMARK                            x       y       z     vdW  Elec       q    Type
REMARK                         _______ _______ _______ _____ _____    ______ ____
ROOT
ATOM      1  C   UNL     1       1.204   2.943   0.396  0.00  0.00    +0.065 C 
ATOM      2  C   UNL     1       1.167   1.659  -0.000  0.00  0.00    +0.016 C 
ATOM      3  N   UNL     1      -0.011   0.966   0.007  0.00  0.00    -0.321 N 
ATOM      4  C   UNL     1      -1.210   1.628   0.017  0.00  0.00    +0.016 C 
ATOM      5  C   UNL     1      -1.276   2.915   0.425  0.00  0.00    +0.024 C 
ATOM      6  C   UNL     1      -0.035   3.649   0.865  0.00  0.00    +0.092 C 
ATOM      7  C   UNL     1      -2.501   3.605   0.449  0.00  0.00    +0.162 C 
ATOM      8  O   UNL     1      -2.524   4.767   0.805  0.00  0.00    -0.292 OA
ATOM      9  C   UNL     1      -3.783   2.931   0.042  0.00  0.00    +0.088 C 
ATOM     10  C   UNL     1      -3.667   1.429   0.321  0.00  0.00    +0.032 C 
ATOM     11  C   UNL     1      -2.446   0.889  -0.426  0.00  0.00    +0.059 C 
ATOM     12  C   UNL     1       2.433   0.980  -0.455  0.00  0.00    +0.061 C 
ATOM     13  H   UNL     1      -0.002  -0.134   0.006  0.00  0.00    +0.152 HD
ENDROOT
BRANCH   6  14
ATOM     14  C   UNL     1      -0.017   3.733   2.369  0.00  0.00    -0.034 A 
ATOM     15  C   UNL     1      -0.038   4.967   2.993  0.00  0.00    +0.006 A 
ATOM     16  C   UNL     1      -0.022   5.045   4.373  0.00  0.00    +0.022 A 
ATOM     17  C   UNL     1       0.015   3.888   5.131  0.00  0.00    +0.059 A 
ATOM     18  C   UNL     1       0.035   2.652   4.506  0.00  0.00    +0.060 A 
ATOM     19  C   UNL     1       0.014   2.576   3.125  0.00  0.00    +0.026 A 
ATOM     20 CL   UNL     1       0.082   1.200   5.456  0.00  0.00    -0.082 Cl
ATOM     21 CL   UNL     1       0.035   3.985   6.864  0.00  0.00    -0.082 Cl
ENDBRANCH   6  14
BRANCH  10  22
ATOM     22  C   UNL     1      -4.909   0.727  -0.163  0.00  0.00    -0.040 A 
ATOM     23  C   UNL     1      -5.261   0.790  -1.499  0.00  0.00    +0.008 A 
ATOM     24  C   UNL     1      -6.399   0.148  -1.948  0.00  0.00    +0.049 A 
ATOM     25  C   UNL     1      -7.191  -0.562  -1.060  0.00  0.00    +0.161 A 
ATOM     26  C   UNL     1      -6.837  -0.626   0.284  0.00  0.00    +0.162 A 
ATOM     27  C   UNL     1      -5.691   0.016   0.728  0.00  0.00    +0.053 A 
BRANCH  26  28
ATOM     28  O   UNL     1      -7.611  -1.321   1.161  0.00  0.00    -0.491 OA
ATOM     29  C   UNL     1      -7.186  -1.343   2.525  0.00  0.00    +0.277 C 
ENDBRANCH  26  28
BRANCH  25  30
ATOM     30  O   UNL     1      -8.311  -1.194  -1.500  0.00  0.00    -0.491 OA
ATOM     31  C   UNL     1      -8.613  -1.085  -2.893  0.00  0.00    +0.277 C 
ENDBRANCH  25  30
ENDBRANCH  10  22
BRANCH   1  32
ATOM     32  C   UNL     1       2.433   3.642   0.372  0.00  0.00    +0.338 C 
ATOM     33  O   UNL     1       3.445   3.080  -0.006  0.00  0.00    -0.245 OA
BRANCH  32  34
ATOM     34  O   UNL     1       2.485   4.931   0.767  0.00  0.00    -0.462 OA
BRANCH  34  36
ATOM     35  C   UNL     1       3.621   7.020   1.198  0.00  0.00    +0.048 C 
ATOM     36  C   UNL     1       3.760   5.574   0.716  0.00  0.00    +0.229 C 
ENDBRANCH  34  36
ENDBRANCH  32  34
ENDBRANCH   1  32
TORSDOF 7
