REMARK  Name = ZINC12580593
REMARK  9 active torsions:
REMARK  status: ('A' for Active; 'I' for Inactive)
REMARK    1  A    between atoms: C_1  and  C_2
REMARK    2  A    between atoms: C_8  and  C_10
REMARK    3  A    between atoms: C_10  and  N_11
REMARK    4  A    between atoms: N_11  and  C_12
REMARK    5  A    between atoms: C_15  and  C_30
REMARK    6  A    between atoms: C_16  and  C_29
REMARK    7  A    between atoms: C_20  and  C_22
REMARK    8  A    between atoms: C_22  and  N_61
REMARK    9  A    between atoms: C_25  and  C_28
REMARK                            x       y       z     vdW  Elec       q    Type
REMARK                         _______ _______ _______ _____ _____    ______ ____
ROOT
ATOM      1  N   UNL     1      -3.661   1.766  -0.465  0.00  0.00    -0.309 N 
ATOM      2  C   UNL     1      -3.128   1.440  -1.794  0.00  0.00    +0.131 C 
ATOM      3  C   UNL     1      -4.870   1.132  -0.246  0.00  0.00    +0.133 A 
ATOM      4  C   UNL     1      -6.062   1.891  -0.082  0.00  0.00    +0.051 A 
ATOM      5  C   UNL     1      -6.257   3.330  -0.102  0.00  0.00    -0.028 A 
ATOM      6  C   UNL     1      -7.490   3.826   0.079  0.00  0.00    -0.008 A 
ATOM      7  S   UNL     1      -8.497   2.371   0.294  0.00  0.00    -0.074 S 
ATOM      8  C   UNL     1      -7.235   1.135   0.135  0.00  0.00    +0.114 A 
ATOM      9  N   UNL     1      -7.207  -0.182   0.178  0.00  0.00    -0.227 NA
ATOM     10  C   UNL     1      -6.069  -0.831   0.019  0.00  0.00    +0.116 A 
ATOM     11  N   UNL     1      -4.934  -0.189  -0.194  0.00  0.00    -0.219 NA
ATOM     12  C   UNL     1      -7.921   5.270   0.098  0.00  0.00    +0.052 C 
ATOM     13  C   UNL     1      -5.088   4.255  -0.324  0.00  0.00    +0.045 C 
ENDROOT
BRANCH   1  14
ATOM     14  C   UNL     1      -2.693   1.430   0.588  0.00  0.00    +0.202 C 
BRANCH  14  22
ATOM     15  C   UNL     1       2.831   5.623  -0.177  0.00  0.00    +0.089 C 
ATOM     16  C   UNL     1       2.102   4.515   0.538  0.00  0.00    +0.136 A 
ATOM     17  C   UNL     1       0.880   4.022   0.231  0.00  0.00    +0.091 A 
ATOM     18  C   UNL     1       0.666   3.008   1.202  0.00  0.00    +0.168 A 
ATOM     19  N   UNL     1       1.730   2.999   1.961  0.00  0.00    -0.063 NA
ATOM     20  O   UNL     1       2.537   3.825   1.602  0.00  0.00    -0.358 OA
ATOM     21  N   UNL     1      -0.457   2.189   1.324  0.00  0.00    -0.266 N 
ATOM     22  C   UNL     1      -1.482   2.318   0.460  0.00  0.00    +0.236 C 
ATOM     23  O   UNL     1      -1.431   3.150  -0.422  0.00  0.00    -0.274 OA
ATOM     24  H   UNL     1      -0.498   1.524   2.029  0.00  0.00    +0.156 HD
ENDBRANCH  14  22
ENDBRANCH   1  14
BRANCH  10  25
ATOM     25  C   UNL     1      -6.066  -2.337   0.073  0.00  0.00    -0.001 C 
BRANCH  25  32
ATOM     26  C   UNL     1      -5.446  -2.182  -2.262  0.00  0.00    -0.078 C 
ATOM     27  C   UNL     1      -5.804  -2.666  -3.669  0.00  0.00    -0.016 C 
ATOM     28  C   UNL     1      -5.581  -4.179  -3.755  0.00  0.00    -0.018 C 
ATOM     29  C   UNL     1      -6.430  -4.873  -2.686  0.00  0.00    -0.016 C 
ATOM     30  C   UNL     1      -6.053  -4.325  -1.308  0.00  0.00    -0.078 C 
ATOM     31  C   UNL     1      -5.995  -4.678  -5.141  0.00  0.00    +0.007 C 
ATOM     32  N   UNL     1      -6.313  -2.870  -1.283  0.00  0.00    +0.384 N 
ATOM     33  H   UNL     1      -7.295  -2.703  -1.532  0.00  0.00    -0.081 HD
ENDBRANCH  25  32
ENDBRANCH  10  25
TORSDOF 4
