REMARK  Name = ZINC11436880
REMARK  9 active torsions:
REMARK  status: ('A' for Active; 'I' for Inactive)
REMARK    1  A    between atoms: C_1  and  C_2
REMARK    2  A    between atoms: C_5  and  C_31
REMARK    3  A    between atoms: N_6  and  C_7
REMARK    4  A    between atoms: C_10  and  C_13
REMARK    5  A    between atoms: C_13  and  O_15
REMARK    6  A    between atoms: O_15  and  C_16
REMARK    7  A    between atoms: C_16  and  C_17
REMARK    8  A    between atoms: N_19  and  C_20
REMARK    9  A    between atoms: C_21  and  C_28
REMARK                            x       y       z     vdW  Elec       q    Type
REMARK                         _______ _______ _______ _____ _____    ______ ____
ROOT
ATOM      1  C   UNL     1      -6.507  -4.258   1.032  0.00  0.00    +0.328 C 
ENDROOT
BRANCH   1   2
ATOM      2  C   UNL     1      -7.308  -4.134   2.303  0.00  0.00    +0.255 C 
ATOM      3  O   UNL     1      -6.948  -3.372   3.175  0.00  0.00    -0.272 OA
ATOM      4  N   UNL     1      -8.425  -4.870   2.470  0.00  0.00    -0.277 N 
ATOM      5  H   UNL     1      -8.713  -5.479   1.773  0.00  0.00    +0.155 HD
BRANCH   4   6
ATOM      6  C   UNL     1      -9.162  -4.755   3.639  0.00  0.00    +0.084 A 
ATOM      7  C   UNL     1     -10.327  -5.416   3.990  0.00  0.00    +0.068 A 
ATOM      8  C   UNL     1     -10.908  -5.115   5.298  0.00  0.00    -0.023 A 
ATOM      9  C   UNL     1     -10.237  -4.204   6.025  0.00  0.00    -0.004 A 
ATOM     10  S   UNL     1      -8.852  -3.747   5.011  0.00  0.00    -0.077 S 
ATOM     11  C   UNL     1     -10.896  -3.946   7.353  0.00  0.00    +0.043 C 
ATOM     12  C   UNL     1     -11.851  -5.144   7.552  0.00  0.00    +0.010 C 
ATOM     13  C   UNL     1     -12.130  -5.569   6.097  0.00  0.00    +0.037 C 
BRANCH   7  14
ATOM     14  C   UNL     1     -10.953  -6.384   3.084  0.00  0.00    +0.244 C 
ATOM     15  O   UNL     1     -10.644  -7.560   3.143  0.00  0.00    -0.270 OA
ATOM     16  N   UNL     1     -11.870  -5.973   2.187  0.00  0.00    -0.325 N 
ATOM     17  H   UNL     1     -12.117  -5.035   2.140  0.00  0.00    +0.145 HD
ATOM     18  H   UNL     1     -12.285  -6.613   1.588  0.00  0.00    +0.145 HD
ENDBRANCH   7  14
ENDBRANCH   4   6
ENDBRANCH   1   2
BRANCH   1  19
ATOM     19  O   UNL     1      -5.360  -3.370   1.094  0.00  0.00    -0.452 OA
BRANCH  19  20
ATOM     20  C   UNL     1      -4.536  -3.360   0.029  0.00  0.00    +0.340 C 
ATOM     21  O   UNL     1      -4.769  -4.074  -0.926  0.00  0.00    -0.245 OA
BRANCH  20  25
ATOM     22  C   UNL     1      -1.122  -0.835   0.008  0.00  0.00    +0.047 A 
ATOM     23  C   UNL     1      -1.969  -0.847   1.111  0.00  0.00    +0.027 A 
ATOM     24  C   UNL     1      -3.080  -1.661   1.119  0.00  0.00    +0.017 A 
ATOM     25  C   UNL     1      -3.350  -2.482   0.021  0.00  0.00    +0.059 A 
ATOM     26  C   UNL     1      -2.494  -2.471  -1.083  0.00  0.00    +0.017 A 
ATOM     27  C   UNL     1      -1.388  -1.651  -1.086  0.00  0.00    +0.027 A 
BRANCH  22  33
ATOM     28  C   UNL     1      -1.249   2.229   0.020  0.00  0.00    +0.064 C 
ATOM     29  C   UNL     1      -0.017   1.362   0.009  0.00  0.00    +0.021 A 
ATOM     30  C   UNL     1       1.258   1.800  -0.000  0.00  0.00    +0.023 A 
ATOM     31  C   UNL     1       2.096   0.667  -0.014  0.00  0.00    +0.023 A 
ATOM     32  C   UNL     1       1.302  -0.423  -0.013  0.00  0.00    +0.021 A 
ATOM     33  N   UNL     1       0.002  -0.004   0.002  0.00  0.00    -0.318 N 
ATOM     34  C   UNL     1       1.769  -1.856  -0.025  0.00  0.00    +0.064 C 
ENDBRANCH  22  33
ENDBRANCH  20  25
ENDBRANCH  19  20
ENDBRANCH   1  19
TORSDOF 7
