REMARK  Name = ZINC11874326
REMARK  9 active torsions:
REMARK  status: ('A' for Active; 'I' for Inactive)
REMARK    1  A    between atoms: C_1  and  O_2
REMARK    2  A    between atoms: O_2  and  C_3
REMARK    3  A    between atoms: C_8  and  C_9
REMARK    4  A    between atoms: C_9  and  N_10
REMARK    5  A    between atoms: C_11  and  C_13
REMARK    6  A    between atoms: C_13  and  C_14
REMARK    7  A    between atoms: C_21  and  C_22
REMARK    8  A    between atoms: C_21  and  N_55
REMARK    9  A    between atoms: C_27  and  C_28
REMARK                            x       y       z     vdW  Elec       q    Type
REMARK                         _______ _______ _______ _____ _____    ______ ____
ROOT
ATOM      1  C   UNL     1      -6.857   2.377   2.801  0.00  0.00    +0.028 C 
ATOM      2  C   UNL     1      -8.115   1.612   2.498  0.00  0.00    +0.200 C 
ATOM      3  O   UNL     1      -8.115   0.842   1.561  0.00  0.00    -0.278 OA
ATOM      4  N   UNL     1      -9.233   1.744   3.219  0.00  0.00    -0.318 N 
ATOM      5  C   UNL     1      -9.327   2.616   4.386  0.00  0.00    +0.085 C 
ATOM      6  C   UNL     1      -8.185   3.635   4.372  0.00  0.00    -0.058 C 
ATOM      7  H   UNL     1     -10.018   1.239   2.954  0.00  0.00    +0.149 HD
ATOM      8  N   UNL     1      -6.919   2.900   4.178  0.00  0.00    +0.391 N 
ATOM      9  H   UNL     1      -6.883   2.114   4.838  0.00  0.00    -0.080 HD
ENDROOT
BRANCH   1  10
ATOM     10  C   UNL     1      -5.652   1.442   2.677  0.00  0.00    +0.089 C 
BRANCH  10  12
ATOM     11  N   UNL     1      -4.581   0.078   0.913  0.00  0.00    -0.311 N 
ATOM     12  C   UNL     1      -5.494   1.014   1.241  0.00  0.00    +0.212 C 
ATOM     13  O   UNL     1      -6.189   1.510   0.380  0.00  0.00    -0.276 OA
ATOM     14  H   UNL     1      -4.025  -0.319   1.602  0.00  0.00    +0.149 HD
BRANCH  11  15
ATOM     15  C   UNL     1      -4.427  -0.339  -0.483  0.00  0.00    +0.143 C 
BRANCH  15  21
ATOM     16  C   UNL     1      -3.631  -2.705  -0.253  0.00  0.00    +0.125 A 
ATOM     17  C   UNL     1      -2.635  -3.667  -0.337  0.00  0.00    +0.046 A 
ATOM     18  C   UNL     1      -1.367  -3.312  -0.756  0.00  0.00    +0.004 A 
ATOM     19  C   UNL     1      -1.088  -1.997  -1.080  0.00  0.00    +0.001 A 
ATOM     20  C   UNL     1      -2.078  -1.035  -0.991  0.00  0.00    +0.009 A 
ATOM     21  C   UNL     1      -3.349  -1.387  -0.579  0.00  0.00    +0.011 A 
BRANCH  16  23
ATOM     22  C   UNL     1      -5.099  -4.429   0.473  0.00  0.00    +0.277 C 
ATOM     23  O   UNL     1      -4.881  -3.053   0.154  0.00  0.00    -0.495 OA
ENDBRANCH  16  23
ENDBRANCH  15  21
ENDBRANCH  11  15
ENDBRANCH  10  12
ENDBRANCH   1  10
BRANCH   8  24
ATOM     24  C   UNL     1      -5.767   3.795   4.433  0.00  0.00    -0.041 C 
BRANCH  24  25
ATOM     25  C   UNL     1      -5.758   4.179   5.890  0.00  0.00    -0.052 A 
ATOM     26  C   UNL     1      -6.239   5.414   6.282  0.00  0.00    +0.002 A 
ATOM     27  C   UNL     1      -6.234   5.765   7.619  0.00  0.00    +0.000 A 
ATOM     28  C   UNL     1      -5.739   4.885   8.563  0.00  0.00    +0.001 A 
ATOM     29  C   UNL     1      -5.253   3.652   8.170  0.00  0.00    +0.012 A 
ATOM     30  C   UNL     1      -5.262   3.299   6.833  0.00  0.00    +0.056 A 
BRANCH  30  31
ATOM     31  C   UNL     1      -4.732   1.955   6.405  0.00  0.00    +0.418 C 
ATOM     32  F   UNL     1      -4.290   1.248   7.529  0.00  0.00    -0.166 F 
ATOM     33  F   UNL     1      -5.749   1.233   5.771  0.00  0.00    -0.166 F 
ATOM     34  F   UNL     1      -3.665   2.135   5.518  0.00  0.00    -0.166 F 
ENDBRANCH  30  31
ENDBRANCH  24  25
ENDBRANCH   8  24
TORSDOF 8
