REMARK  Name = ZINC40939440
REMARK  10 active torsions:
REMARK  status: ('A' for Active; 'I' for Inactive)
REMARK    1  A    between atoms: C_1  and  C_2
REMARK    2  A    between atoms: C_2  and  C_3
REMARK    3  A    between atoms: C_6  and  C_9
REMARK    4  A    between atoms: C_12  and  N_18
REMARK    5  A    between atoms: C_13  and  C_14
REMARK    6  A    between atoms: C_14  and  O_16
REMARK    7  A    between atoms: O_16  and  C_17
REMARK    8  A    between atoms: C_19  and  C_21
REMARK    9  A    between atoms: C_21  and  C_29
REMARK   10  A    between atoms: C_22  and  C_23
REMARK                            x       y       z     vdW  Elec       q    Type
REMARK                         _______ _______ _______ _____ _____    ______ ____
ROOT
ATOM      1  C   UNL     1       3.289  -2.357  -4.238  0.00  0.00    +0.005 A 
ATOM      2  C   UNL     1       2.973  -3.529  -4.848  0.00  0.00    +0.056 A 
ATOM      3  S   UNL     1       4.014  -3.534  -6.290  0.00  0.00    -0.080 S 
ATOM      4  C   UNL     1       4.812  -2.072  -6.090  0.00  0.00    +0.087 A 
ATOM      5  C   UNL     1       4.290  -1.552  -4.915  0.00  0.00    +0.095 A 
ENDROOT
BRANCH   1   9
ATOM      6  C   UNL     1       1.459  -1.123  -0.605  0.00  0.00    -0.048 A 
ATOM      7  C   UNL     1       0.674  -1.547  -1.662  0.00  0.00    +0.004 A 
ATOM      8  C   UNL     1       1.263  -1.949  -2.844  0.00  0.00    +0.009 A 
ATOM      9  C   UNL     1       2.651  -1.926  -2.971  0.00  0.00    -0.017 A 
ATOM     10  C   UNL     1       3.437  -1.497  -1.902  0.00  0.00    +0.009 A 
ATOM     11  C   UNL     1       2.837  -1.093  -0.727  0.00  0.00    +0.004 A 
BRANCH   6  13
ATOM     12  C   UNL     1       0.518   0.816   0.622  0.00  0.00    +0.009 C 
ATOM     13  C   UNL     1       0.811  -0.684   0.683  0.00  0.00    +0.032 C 
ENDBRANCH   6  13
ENDBRANCH   1   9
BRANCH   4  14
ATOM     14  N   UNL     1       5.772  -1.510  -6.914  0.00  0.00    -0.275 N 
ATOM     15  C   UNL     1       6.163  -2.155  -8.031  0.00  0.00    +0.259 C 
ATOM     16  O   UNL     1       5.672  -3.231  -8.315  0.00  0.00    -0.269 OA
ATOM     17  H   UNL     1       6.163  -0.652  -6.687  0.00  0.00    +0.156 HD
BRANCH  15  18
ATOM     18  C   UNL     1       7.183  -1.557  -8.907  0.00  0.00    +0.114 C 
ATOM     19  C   UNL     1       7.582  -2.215 -10.047  0.00  0.00    +0.032 C 
BRANCH  19  20
ATOM     20  C   UNL     1       8.713  -1.705 -10.831  0.00  0.00    -0.024 A 
ATOM     21  C   UNL     1       8.714  -1.825 -12.226  0.00  0.00    +0.008 A 
ATOM     22  C   UNL     1       9.780  -1.343 -12.954  0.00  0.00    +0.001 A 
ATOM     23  C   UNL     1      10.849  -0.743 -12.310  0.00  0.00    +0.000 A 
ATOM     24  C   UNL     1      10.856  -0.621 -10.931  0.00  0.00    +0.001 A 
ATOM     25  C   UNL     1       9.796  -1.091 -10.188  0.00  0.00    +0.008 A 
ENDBRANCH  19  20
BRANCH  18  26
ATOM     26  C   UNL     1       7.760  -0.290  -8.572  0.00  0.00    +0.104 C 
ATOM     27  N   UNL     1       8.218   0.716  -8.307  0.00  0.00    -0.191 NA
ENDBRANCH  18  26
ENDBRANCH  15  18
ENDBRANCH   4  14
BRANCH   5  28
ATOM     28  C   UNL     1       4.729  -0.263  -4.383  0.00  0.00    +0.342 C 
ATOM     29  O   UNL     1       5.671  -0.210  -3.615  0.00  0.00    -0.245 OA
BRANCH  28  30
ATOM     30  O   UNL     1       4.090   0.869  -4.744  0.00  0.00    -0.464 OA
ATOM     31  C   UNL     1       4.572   2.093  -4.186  0.00  0.00    +0.280 C 
ENDBRANCH  28  30
ENDBRANCH   5  28
TORSDOF 8
