REMARK  Name = ZINC35246840
REMARK  12 active torsions:
REMARK  status: ('A' for Active; 'I' for Inactive)
REMARK    1  A    between atoms: C_1  and  C_2
REMARK    2  A    between atoms: C_2  and  O_3
REMARK    3  A    between atoms: O_3  and  C_4
REMARK    4  A    between atoms: C_4  and  C_6
REMARK    5  A    between atoms: C_13  and  C_15
REMARK    6  A    between atoms: C_18  and  C_20
REMARK    7  A    between atoms: C_20  and  N_21
REMARK    8  A    between atoms: N_21  and  C_22
REMARK    9  A    between atoms: N_21  and  C_30
REMARK   10  A    between atoms: C_22  and  C_23
REMARK   11  A    between atoms: C_26  and  C_29
REMARK   12  A    between atoms: C_30  and  C_31
REMARK                            x       y       z     vdW  Elec       q    Type
REMARK                         _______ _______ _______ _____ _____    ______ ____
ROOT
ATOM      1  C   UNL     1      -9.609  -5.396   0.967  0.00  0.00    -0.002 C 
ENDROOT
BRANCH   1   5
ATOM      2  C   UNL     1      -7.956  -2.148   0.726  0.00  0.00    +0.190 A 
ATOM      3  C   UNL     1      -9.255  -1.749   0.588  0.00  0.00    +0.055 A 
ATOM      4  C   UNL     1     -10.043  -2.909   0.660  0.00  0.00    +0.043 A 
ATOM      5  C   UNL     1      -9.201  -3.951   0.835  0.00  0.00    +0.090 A 
ATOM      6  O   UNL     1      -7.944  -3.489   0.870  0.00  0.00    -0.457 OA
BRANCH   2  13
ATOM      7  C   UNL     1      -3.494  -1.456  -0.564  0.00  0.00    +0.115 C 
ATOM      8  C   UNL     1      -3.178  -2.938  -0.348  0.00  0.00    +0.018 C 
ATOM      9  C   UNL     1      -4.480  -3.741  -0.326  0.00  0.00    +0.020 C 
ATOM     10  C   UNL     1      -5.354  -3.258   0.836  0.00  0.00    +0.108 C 
ATOM     11  N   UNL     1      -5.542  -1.806   0.715  0.00  0.00    -0.294 N 
ATOM     12  C   UNL     1      -4.356  -0.947   0.595  0.00  0.00    +0.122 C 
ATOM     13  C   UNL     1      -6.780  -1.272   0.713  0.00  0.00    +0.282 C 
ATOM     14  O   UNL     1      -6.921  -0.064   0.700  0.00  0.00    -0.267 OA
BRANCH   7  15
ATOM     15  C   UNL     1      -2.209  -0.670  -0.618  0.00  0.00    +0.312 C 
ATOM     16  O   UNL     1      -1.149  -1.237  -0.497  0.00  0.00    -0.250 OA
BRANCH  15  17
ATOM     17  O   UNL     1      -2.243   0.659  -0.800  0.00  0.00    -0.465 OA
BRANCH  17  19
ATOM     18  C   UNL     1      -1.225   2.836  -1.055  0.00  0.00    +0.048 C 
ATOM     19  C   UNL     1      -0.987   1.340  -0.841  0.00  0.00    +0.229 C 
ENDBRANCH  17  19
ENDBRANCH  15  17
ENDBRANCH   7  15
ENDBRANCH   2  13
ENDBRANCH   1   5
BRANCH   1  20
ATOM     20  N   UNL     1      -9.581  -6.035  -0.356  0.00  0.00    +0.390 N 
ATOM     21  H   UNL     1     -10.133  -5.492  -1.003  0.00  0.00    -0.080 HD
BRANCH  20  22
ATOM     22  C   UNL     1      -8.194  -6.106  -0.836  0.00  0.00    -0.042 C 
BRANCH  22  23
ATOM     23  C   UNL     1      -8.176  -6.648  -2.242  0.00  0.00    -0.064 A 
ATOM     24  C   UNL     1      -8.082  -8.010  -2.456  0.00  0.00    +0.002 A 
ATOM     25  C   UNL     1      -8.065  -8.507  -3.746  0.00  0.00    +0.003 A 
ATOM     26  C   UNL     1      -8.144  -7.642  -4.821  0.00  0.00    -0.050 A 
ATOM     27  C   UNL     1      -8.239  -6.280  -4.607  0.00  0.00    +0.003 A 
ATOM     28  C   UNL     1      -8.260  -5.783  -3.317  0.00  0.00    +0.002 A 
ATOM     29  C   UNL     1      -8.125  -8.184  -6.227  0.00  0.00    +0.044 C 
ENDBRANCH  22  23
ENDBRANCH  20  22
BRANCH  20  30
ATOM     30  C   UNL     1     -10.135  -7.391  -0.256  0.00  0.00    -0.042 C 
BRANCH  30  31
ATOM     31  C   UNL     1     -11.596  -7.312   0.102  0.00  0.00    -0.061 A 
ATOM     32  C   UNL     1     -11.986  -7.358   1.428  0.00  0.00    +0.002 A 
ATOM     33  C   UNL     1     -13.326  -7.286   1.758  0.00  0.00    +0.003 A 
ATOM     34  C   UNL     1     -14.278  -7.168   0.763  0.00  0.00    +0.038 A 
ATOM     35  C   UNL     1     -13.889  -7.122  -0.565  0.00  0.00    +0.124 A 
ATOM     36  C   UNL     1     -12.546  -7.189  -0.894  0.00  0.00    +0.040 A 
ATOM     37  F   UNL     1     -14.819  -7.008  -1.538  0.00  0.00    -0.205 F 
ENDBRANCH  30  31
ENDBRANCH  20  30
ENDBRANCH   1  20
TORSDOF 10
