REMARK  Name = ZINC13024173
REMARK  14 active torsions:
REMARK  status: ('A' for Active; 'I' for Inactive)
REMARK    1  A    between atoms: C_1  and  C_2
REMARK    2  A    between atoms: C_2  and  C_3
REMARK    3  A    between atoms: C_3  and  C_4
REMARK    4  A    between atoms: C_3  and  C_5
REMARK    5  A    between atoms: C_3  and  N_6
REMARK    6  A    between atoms: C_7  and  C_9
REMARK    7  A    between atoms: C_9  and  C_11
REMARK    8  A    between atoms: C_9  and  N_18
REMARK    9  A    between atoms: N_18  and  C_19
REMARK   10  A    between atoms: C_19  and  C_20
REMARK   11  A    between atoms: C_20  and  C_21
REMARK   12  A    between atoms: C_26  and  C_27
REMARK   13  A    between atoms: C_28  and  C_30
REMARK   14  A    between atoms: C_30  and  N_31
REMARK                            x       y       z     vdW  Elec       q    Type
REMARK                         _______ _______ _______ _____ _____    ______ ____
ROOT
ATOM      1  N   UNL     1      -0.192   1.165   2.484  0.00  0.00    -0.284 N 
ATOM      2  C   UNL     1      -0.624   1.496   1.251  0.00  0.00    +0.238 C 
ATOM      3  O   UNL     1      -1.575   2.237   1.120  0.00  0.00    -0.274 OA
ENDROOT
BRANCH   1   4
ATOM      4  C   UNL     1      -0.811   1.772   3.665  0.00  0.00    +0.195 C 
BRANCH   4   5
ATOM      5  C   UNL     1      -2.227   1.273   3.802  0.00  0.00    +0.017 A 
ATOM      6  C   UNL     1      -2.861   0.687   2.722  0.00  0.00    +0.009 A 
ATOM      7  C   UNL     1      -4.157   0.224   2.849  0.00  0.00    +0.001 A 
ATOM      8  C   UNL     1      -4.825   0.357   4.052  0.00  0.00    +0.003 A 
ATOM      9  C   UNL     1      -4.196   0.949   5.131  0.00  0.00    +0.039 A 
ATOM     10  C   UNL     1      -2.895   1.407   5.007  0.00  0.00    +0.129 A 
ATOM     11  F   UNL     1      -2.279   1.986   6.061  0.00  0.00    -0.205 F 
ENDBRANCH   4   5
BRANCH   4  13
ATOM     12  N   UNL     1      -1.345   4.044   4.485  0.00  0.00    -0.308 N 
ATOM     13  C   UNL     1      -0.820   3.271   3.513  0.00  0.00    +0.239 C 
ATOM     14  O   UNL     1      -0.354   3.783   2.517  0.00  0.00    -0.273 OA
ATOM     15  H   UNL     1      -1.718   3.635   5.281  0.00  0.00    +0.149 HD
BRANCH  12  16
ATOM     16  C   UNL     1      -1.353   5.502   4.337  0.00  0.00    +0.029 C 
ATOM     17  C   UNL     1       0.084   6.008   4.198  0.00  0.00    +0.031 C 
ATOM     18  C   UNL     1      -2.151   5.884   3.089  0.00  0.00    +0.031 C 
BRANCH  16  20
ATOM     19  C   UNL     1      -2.008   7.658   5.416  0.00  0.00    +0.006 C 
ATOM     20  C   UNL     1      -2.000   6.135   5.570  0.00  0.00    +0.022 C 
ENDBRANCH  16  20
ENDBRANCH  12  16
ENDBRANCH   4  13
ENDBRANCH   1   4
BRANCH   1  21
ATOM     21  C   UNL     1       0.897   0.198   2.644  0.00  0.00    +0.113 C 
BRANCH  21  22
ATOM     22  C   UNL     1       2.226   0.945   2.776  0.00  0.00    +0.054 C 
BRANCH  22  23
ATOM     23  C   UNL     1       3.328  -0.040   3.073  0.00  0.00    -0.043 A 
ATOM     24  C   UNL     1       3.713  -0.274   4.380  0.00  0.00    +0.004 A 
ATOM     25  C   UNL     1       4.720  -1.181   4.652  0.00  0.00    +0.000 A 
ATOM     26  C   UNL     1       5.349  -1.847   3.616  0.00  0.00    +0.000 A 
ATOM     27  C   UNL     1       4.968  -1.609   2.309  0.00  0.00    +0.003 A 
ATOM     28  C   UNL     1       3.957  -0.706   2.038  0.00  0.00    -0.047 A 
ATOM     29  C   UNL     1       3.541  -0.447   0.613  0.00  0.00    +0.044 C 
ENDBRANCH  22  23
ENDBRANCH  21  22
ENDBRANCH   1  21
BRANCH   2  30
ATOM     30  C   UNL     1       0.075   0.946   0.035  0.00  0.00    +0.241 C 
BRANCH  30  31
ATOM     31  N   UNL     1      -0.579   1.451  -1.175  0.00  0.00    -0.235 N 
ATOM     32  C   UNL     1      -1.620   0.863  -1.853  0.00  0.00    +0.090 A 
ATOM     33  C   UNL     1      -2.369  -0.293  -1.661  0.00  0.00    +0.029 A 
ATOM     34  C   UNL     1      -3.373  -0.606  -2.534  0.00  0.00    +0.002 A 
ATOM     35  C   UNL     1      -3.656   0.225  -3.611  0.00  0.00    +0.002 A 
ATOM     36  C   UNL     1      -2.940   1.367  -3.818  0.00  0.00    +0.032 A 
ATOM     37  C   UNL     1      -1.906   1.710  -2.938  0.00  0.00    +0.113 A 
ATOM     38  N   UNL     1      -1.046   2.747  -2.885  0.00  0.00    -0.129 NA
ATOM     39  N   UNL     1      -0.262   2.626  -1.872  0.00  0.00    -0.064 NA
ENDBRANCH  30  31
ENDBRANCH   2  30
TORSDOF 10
