REMARK  Name = ZINC62496543
REMARK  7 active torsions:
REMARK  status: ('A' for Active; 'I' for Inactive)
REMARK    1  A    between atoms: C_1  and  C_2
REMARK    2  A    between atoms: C_5  and  C_9
REMARK    3  A    between atoms: C_6  and  C_8
REMARK    4  A    between atoms: C_9  and  C_10
REMARK    5  A    between atoms: N_14  and  C_23
REMARK    6  A    between atoms: C_17  and  O_22
REMARK    7  A    between atoms: C_23  and  C_24
REMARK                            x       y       z     vdW  Elec       q    Type
REMARK                         _______ _______ _______ _____ _____    ______ ____
ROOT
ATOM      1  C   UNL     1      -1.808  -4.514   0.582  0.00  0.00    +0.263 C 
ATOM      2  C   UNL     1      -1.982  -5.996   0.799  0.00  0.00    +0.262 C 
ATOM      3  O   UNL     1      -2.196  -6.728  -0.144  0.00  0.00    -0.271 OA
ATOM      4  N   UNL     1      -1.900  -6.504   2.046  0.00  0.00    -0.251 N 
ATOM      5  C   UNL     1      -1.779  -5.629   3.135  0.00  0.00    +0.083 A 
ATOM      6  C   UNL     1      -1.465  -6.114   4.395  0.00  0.00    +0.072 A 
ATOM      7  C   UNL     1      -1.337  -5.234   5.459  0.00  0.00    +0.119 A 
ATOM      8  C   UNL     1      -1.521  -3.873   5.263  0.00  0.00    +0.049 A 
ATOM      9  C   UNL     1      -1.839  -3.389   4.007  0.00  0.00    +0.051 A 
ATOM     10  C   UNL     1      -1.975  -4.264   2.942  0.00  0.00    +0.143 A 
ATOM     11  O   UNL     1      -2.319  -3.800   1.711  0.00  0.00    -0.477 OA
ENDROOT
BRANCH   7  12
ATOM     12  O   UNL     1      -1.029  -5.706   6.697  0.00  0.00    -0.507 OA
ATOM     13  H   UNL     1      -0.080  -5.752   6.876  0.00  0.00    +0.292 HD
ENDBRANCH   7  12
BRANCH   1  14
ATOM     14  C   UNL     1      -0.322  -4.196   0.409  0.00  0.00    +0.089 C 
BRANCH  14  19
ATOM     15  C   UNL     1       0.313   1.387  -0.939  0.00  0.00    +0.044 C 
ATOM     16  C   UNL     1       0.147  -0.069  -0.588  0.00  0.00    -0.050 A 
ATOM     17  C   UNL     1       0.333  -0.490   0.716  0.00  0.00    +0.003 A 
ATOM     18  C   UNL     1       0.181  -1.826   1.038  0.00  0.00    +0.004 A 
ATOM     19  C   UNL     1      -0.157  -2.740   0.058  0.00  0.00    -0.040 A 
ATOM     20  C   UNL     1      -0.344  -2.318  -1.245  0.00  0.00    -0.047 A 
ATOM     21  C   UNL     1      -0.196  -0.981  -1.567  0.00  0.00    +0.007 A 
ATOM     22  C   UNL     1      -0.712  -3.314  -2.314  0.00  0.00    +0.044 C 
ENDBRANCH  14  19
ENDBRANCH   1  14
BRANCH   4  23
ATOM     23  C   UNL     1      -1.937  -7.953   2.260  0.00  0.00    +0.232 C 
BRANCH  23  24
ATOM     24  C   UNL     1      -0.567  -8.490   2.220  0.00  0.00    +0.082 C 
ATOM     25  N   UNL     1       0.491  -8.904   2.188  0.00  0.00    -0.195 NA
ENDBRANCH  23  24
ENDBRANCH   4  23
TORSDOF 5
