REMARK  Name = ZINC59474751
REMARK  10 active torsions:
REMARK  status: ('A' for Active; 'I' for Inactive)
REMARK    1  A    between atoms: C_1  and  C_2
REMARK    2  A    between atoms: C_5  and  O_9
REMARK    3  A    between atoms: C_7  and  C_8
REMARK    4  A    between atoms: O_9  and  C_10
REMARK    5  A    between atoms: C_10  and  C_11
REMARK    6  A    between atoms: C_14  and  S_22
REMARK    7  A    between atoms: N_15  and  C_16
REMARK    8  A    between atoms: S_22  and  C_23
REMARK    9  A    between atoms: C_23  and  C_24
REMARK   10  A    between atoms: C_32  and  N_34
REMARK                            x       y       z     vdW  Elec       q    Type
REMARK                         _______ _______ _______ _____ _____    ______ ____
ROOT
ATOM      1  C   UNL     1       0.079  -6.266  -1.108  0.00  0.00    +0.176 A 
ATOM      2  N   UNL     1       1.139  -7.018  -1.011  0.00  0.00    -0.130 NA
ATOM      3  N   UNL     1       0.796  -8.247  -0.856  0.00  0.00    -0.122 NA
ATOM      4  C   UNL     1      -0.512  -8.349  -0.845  0.00  0.00    +0.197 A 
ATOM      5  N   UNL     1      -1.013  -7.085  -1.001  0.00  0.00    -0.271 N 
ENDROOT
BRANCH   5   6
ATOM      6  C   UNL     1      -2.364  -6.709  -1.044  0.00  0.00    +0.050 A 
ATOM      7  C   UNL     1      -2.891  -5.895  -0.051  0.00  0.00    +0.026 A 
ATOM      8  C   UNL     1      -4.221  -5.526  -0.096  0.00  0.00    +0.002 A 
ATOM      9  C   UNL     1      -5.027  -5.965  -1.130  0.00  0.00    +0.000 A 
ATOM     10  C   UNL     1      -4.505  -6.776  -2.121  0.00  0.00    +0.002 A 
ATOM     11  C   UNL     1      -3.174  -7.144  -2.084  0.00  0.00    +0.026 A 
ENDBRANCH   5   6
BRANCH   1  12
ATOM     12  C   UNL     1       0.058  -4.771  -1.298  0.00  0.00    +0.305 C 
BRANCH  12  13
ATOM     13  O   UNL     1       0.057  -4.129  -0.021  0.00  0.00    -0.484 OA
BRANCH  13  18
ATOM     14  C   UNL     1      -0.018   1.503   0.010  0.00  0.00    +0.044 C 
ATOM     15  C   UNL     1       0.002  -0.004   0.002  0.00  0.00    -0.047 A 
ATOM     16  C   UNL     1       0.006  -0.688  -1.200  0.00  0.00    +0.007 A 
ATOM     17  C   UNL     1       0.024  -2.069  -1.210  0.00  0.00    +0.046 A 
ATOM     18  C   UNL     1       0.039  -2.770  -0.013  0.00  0.00    +0.121 A 
ATOM     19  C   UNL     1       0.036  -2.082   1.191  0.00  0.00    +0.049 A 
ATOM     20  C   UNL     1       0.023  -0.701   1.196  0.00  0.00    -0.044 A 
ATOM     21  C   UNL     1       0.025   0.048   2.504  0.00  0.00    +0.044 C 
ENDBRANCH  13  18
ENDBRANCH  12  13
ENDBRANCH   1  12
BRANCH   4  22
ATOM     22  S   UNL     1      -1.446  -9.831  -0.659  0.00  0.00    -0.081 S 
BRANCH  22  23
ATOM     23  C   UNL     1      -0.187 -11.126  -0.491  0.00  0.00    +0.114 C 
BRANCH  23  24
ATOM     24  C   UNL     1      -0.860 -12.463  -0.323  0.00  0.00    -0.012 A 
ATOM     25  C   UNL     1      -1.225 -13.033   0.837  0.00  0.00    +0.088 A 
ATOM     26  N   UNL     1      -1.808 -14.248   0.597  0.00  0.00    -0.360 N 
ATOM     27  H   UNL     1      -2.152 -14.845   1.279  0.00  0.00    +0.165 HD
ATOM     28  C   UNL     1      -1.834 -14.495  -0.758  0.00  0.00    +0.049 A 
ATOM     29  C   UNL     1      -1.247 -13.385  -1.393  0.00  0.00    +0.004 A 
ATOM     30  C   UNL     1      -1.141 -13.355  -2.785  0.00  0.00    +0.012 A 
ATOM     31  C   UNL     1      -1.611 -14.404  -3.524  0.00  0.00    +0.033 A 
ATOM     32  C   UNL     1      -2.195 -15.499  -2.902  0.00  0.00    +0.128 A 
ATOM     33  C   UNL     1      -2.302 -15.553  -1.529  0.00  0.00    +0.059 A 
BRANCH  32  34
ATOM     34  N   UNL     1      -2.698 -16.625  -3.721  0.00  0.00    +0.056 N 
ATOM     35  O   UNL     1      -2.601 -16.587  -4.925  0.00  0.00    -0.126 OA
ATOM     36  O   UNL     1      -3.207 -17.582  -3.185  0.00  0.00    -0.126 OA
ENDBRANCH  32  34
ENDBRANCH  23  24
ENDBRANCH  22  23
ENDBRANCH   4  22
TORSDOF 8
