REMARK  Name = ZINC35641121
REMARK  12 active torsions:
REMARK  status: ('A' for Active; 'I' for Inactive)
REMARK    1  A    between atoms: C_1  and  C_2
REMARK    2  A    between atoms: C_2  and  O_3
REMARK    3  A    between atoms: O_3  and  C_4
REMARK    4  A    between atoms: C_4  and  C_6
REMARK    5  A    between atoms: C_7  and  C_23
REMARK    6  A    between atoms: N_8  and  C_22
REMARK    7  A    between atoms: C_12  and  C_14
REMARK    8  A    between atoms: C_19  and  O_20
REMARK    9  A    between atoms: O_20  and  C_21
REMARK   10  A    between atoms: C_23  and  N_24
REMARK   11  A    between atoms: N_24  and  C_25
REMARK   12  A    between atoms: N_24  and  C_26
REMARK                            x       y       z     vdW  Elec       q    Type
REMARK                         _______ _______ _______ _____ _____    ______ ____
ROOT
ATOM      1  C   UNL     1       1.798  -2.009   2.785  0.00  0.00    +0.077 C 
ATOM      2  C   UNL     1       1.784  -3.357   2.718  0.00  0.00    +0.010 C 
ATOM      3  N   UNL     1       2.002  -4.121   3.829  0.00  0.00    -0.264 N 
ATOM      4  C   UNL     1       2.242  -3.612   5.044  0.00  0.00    +0.307 C 
ATOM      5  O   UNL     1       2.425  -4.373   5.974  0.00  0.00    -0.252 OA
ATOM      6  N   UNL     1       2.288  -2.284   5.269  0.00  0.00    -0.288 N 
ATOM      7  C   UNL     1       2.071  -1.373   4.133  0.00  0.00    +0.147 C 
ATOM      8  C   UNL     1       1.972  -5.578   3.683  0.00  0.00    +0.139 C 
ATOM      9  H   UNL     1       2.463  -1.937   6.158  0.00  0.00    +0.151 HD
ENDROOT
BRANCH   7  10
ATOM     10  C   UNL     1       3.289  -0.496   3.995  0.00  0.00    +0.019 A 
ATOM     11  C   UNL     1       4.542  -1.002   4.284  0.00  0.00    +0.009 A 
ATOM     12  C   UNL     1       5.659  -0.199   4.158  0.00  0.00    +0.001 A 
ATOM     13  C   UNL     1       5.527   1.114   3.742  0.00  0.00    +0.004 A 
ATOM     14  C   UNL     1       4.277   1.625   3.452  0.00  0.00    +0.046 A 
ATOM     15  C   UNL     1       3.154   0.818   3.572  0.00  0.00    +0.125 A 
BRANCH  15  16
ATOM     16  O   UNL     1       1.924   1.317   3.282  0.00  0.00    -0.495 OA
ATOM     17  C   UNL     1       1.870   2.643   2.753  0.00  0.00    +0.277 C 
ENDBRANCH  15  16
ENDBRANCH   7  10
BRANCH   1  18
ATOM     18  C   UNL     1       1.572  -1.217   1.635  0.00  0.00    +0.339 C 
ATOM     19  O   UNL     1       2.509  -0.682   1.071  0.00  0.00    -0.245 OA
BRANCH  18  20
ATOM     20  O   UNL     1       0.319  -1.054   1.163  0.00  0.00    -0.462 OA
BRANCH  20  22
ATOM     21  C   UNL     1      -1.312  -0.147  -0.373  0.00  0.00    +0.048 C 
ATOM     22  C   UNL     1       0.175  -0.333  -0.062  0.00  0.00    +0.229 C 
ENDBRANCH  20  22
ENDBRANCH  18  20
ENDBRANCH   1  18
BRANCH   2  23
ATOM     23  C   UNL     1       1.522  -4.031   1.395  0.00  0.00    -0.026 C 
BRANCH  23  24
ATOM     24  N   UNL     1       2.777  -4.131   0.639  0.00  0.00    +0.383 N 
ATOM     25  C   UNL     1       3.715  -5.002   1.361  0.00  0.00    -0.095 C 
ATOM     26  H   UNL     1       3.182  -3.212   0.537  0.00  0.00    -0.081 HD
BRANCH  24  27
ATOM     27  C   UNL     1       2.505  -4.698  -0.688  0.00  0.00    -0.068 C 
ATOM     28  C   UNL     1       3.813  -4.802  -1.476  0.00  0.00    -0.015 C 
ATOM     29  C   UNL     1       3.530  -5.392  -2.859  0.00  0.00    -0.002 C 
ATOM     30  C   UNL     1       2.553  -4.485  -3.610  0.00  0.00    -0.000 C 
ATOM     31  C   UNL     1       1.245  -4.381  -2.822  0.00  0.00    -0.002 C 
ATOM     32  C   UNL     1       1.528  -3.791  -1.440  0.00  0.00    -0.015 C 
ENDBRANCH  24  27
ENDBRANCH  23  24
ENDBRANCH   2  23
TORSDOF 8
