REMARK  Name = ZINC12498302
REMARK  12 active torsions:
REMARK  status: ('A' for Active; 'I' for Inactive)
REMARK    1  A    between atoms: C_1  and  C_2
REMARK    2  A    between atoms: C_7  and  C_8
REMARK    3  A    between atoms: N_16  and  C_19
REMARK    4  A    between atoms: C_23  and  C_25
REMARK    5  A    between atoms: C_25  and  C_27
REMARK    6  A    between atoms: C_28  and  C_29
REMARK    7  A    between atoms: C_28  and  C_33
REMARK    8  A    between atoms: C_29  and  C_30
REMARK    9  A    between atoms: C_30  and  S_31
REMARK   10  A    between atoms: S_31  and  C_32
REMARK   11  A    between atoms: C_33  and  O_35
REMARK   12  A    between atoms: O_35  and  C_36
REMARK                            x       y       z     vdW  Elec       q    Type
REMARK                         _______ _______ _______ _____ _____    ______ ____
ROOT
ATOM      1  C   UNL     1       5.951   0.559  -0.384  0.00  0.00    -0.026 C 
ATOM      2  C   UNL     1       4.623   0.660   0.368  0.00  0.00    +0.077 C 
ATOM      3  C   UNL     1       3.884  -0.537  -0.353  0.00  0.00    +0.086 C 
ATOM      4  C   UNL     1       2.507  -0.273  -0.023  0.00  0.00    +0.229 C 
ATOM      5  O   UNL     1       1.631  -1.081   0.197  0.00  0.00    -0.275 OA
ATOM      6  N   UNL     1       2.405   1.096  -0.015  0.00  0.00    -0.210 N 
ATOM      7  C   UNL     1       3.622   1.716  -0.029  0.00  0.00    +0.229 C 
ATOM      8  O   UNL     1       3.849   2.875  -0.302  0.00  0.00    -0.275 OA
ATOM      9  C   UNL     1       4.893  -1.607  -0.278  0.00  0.00    +0.044 C 
ATOM     10  N   UNL     1       6.143  -0.893  -0.640  0.00  0.00    +0.395 N 
ATOM     11  H   UNL     1       6.920  -1.245  -0.069  0.00  0.00    -0.083 HD
ATOM     12  H   UNL     1       6.352  -1.044  -1.634  0.00  0.00    -0.083 HD
ENDROOT
BRANCH   1  19
ATOM     13  C   UNL     1       6.476   3.399  -0.438  0.00  0.00    +0.044 C 
ATOM     14  C   UNL     1       6.124   2.674  -1.711  0.00  0.00    -0.049 A 
ATOM     15  C   UNL     1       6.052   3.368  -2.904  0.00  0.00    +0.003 A 
ATOM     16  C   UNL     1       5.729   2.702  -4.072  0.00  0.00    +0.000 A 
ATOM     17  C   UNL     1       5.479   1.343  -4.046  0.00  0.00    +0.000 A 
ATOM     18  C   UNL     1       5.555   0.648  -2.854  0.00  0.00    +0.002 A 
ATOM     19  C   UNL     1       5.873   1.315  -1.685  0.00  0.00    -0.058 A 
ENDBRANCH   1  19
BRANCH   6  20
ATOM     20  C   UNL     1       1.183   1.784   0.000  0.00  0.00    +0.045 A 
ATOM     21  C   UNL     1      -0.013   1.076   0.008  0.00  0.00    +0.024 A 
ATOM     22  C   UNL     1      -1.221   1.748   0.017  0.00  0.00    +0.003 A 
ATOM     23  C   UNL     1      -1.249   3.127   0.030  0.00  0.00    +0.011 A 
ATOM     24  C   UNL     1      -0.052   3.850   0.022  0.00  0.00    +0.019 A 
ATOM     25  C   UNL     1       1.169   3.169   0.007  0.00  0.00    +0.035 A 
BRANCH  24  26
ATOM     26  C   UNL     1      -0.077   5.321   0.029  0.00  0.00    +0.160 C 
ATOM     27  O   UNL     1       0.963   5.946   0.022  0.00  0.00    -0.292 OA
ATOM     28  C   UNL     1      -1.395   6.052   0.045  0.00  0.00    +0.091 C 
ENDBRANCH  24  26
ENDBRANCH   6  20
BRANCH   9  29
ATOM     29  C   UNL     1       4.999  -2.149   1.125  0.00  0.00    +0.297 C 
ATOM     30  O   UNL     1       4.060  -2.058   1.880  0.00  0.00    -0.252 OA
BRANCH  29  31
ATOM     31  O   UNL     1       6.137  -2.731   1.535  0.00  0.00    -0.469 OA
ATOM     32  C   UNL     1       6.168  -3.230   2.898  0.00  0.00    +0.280 C 
ENDBRANCH  29  31
ENDBRANCH   9  29
BRANCH   9  33
ATOM     33  C   UNL     1       4.577  -2.727  -1.271  0.00  0.00    +0.010 C 
BRANCH  33  34
ATOM     34  C   UNL     1       5.643  -3.819  -1.165  0.00  0.00    +0.068 C 
BRANCH  34  35
ATOM     35  S   UNL     1       5.268  -5.146  -2.343  0.00  0.00    -0.164 S 
ATOM     36  C   UNL     1       6.607  -6.344  -2.095  0.00  0.00    +0.084 C 
ENDBRANCH  34  35
ENDBRANCH  33  34
ENDBRANCH   9  33
TORSDOF 8
