REMARK  Name = ZINC33713486
REMARK  10 active torsions:
REMARK  status: ('A' for Active; 'I' for Inactive)
REMARK    1  A    between atoms: C_1  and  C_2
REMARK    2  A    between atoms: C_2  and  C_3
REMARK    3  A    between atoms: C_8  and  N_9
REMARK    4  A    between atoms: N_12  and  C_13
REMARK    5  A    between atoms: C_16  and  C_19
REMARK    6  A    between atoms: C_21  and  C_31
REMARK    7  A    between atoms: C_22  and  C_30
REMARK    8  A    between atoms: C_31  and  O_33
REMARK    9  A    between atoms: O_33  and  C_34
REMARK   10  A    between atoms: C_34  and  C_35
REMARK                            x       y       z     vdW  Elec       q    Type
REMARK                         _______ _______ _______ _____ _____    ______ ____
ROOT
ATOM      1  C   UNL     1      -1.392  -3.497  -4.114  0.00  0.00    +0.035 A 
ATOM      2  C   UNL     1      -2.520  -3.529  -3.305  0.00  0.00    +0.024 A 
ATOM      3  C   UNL     1      -2.438  -3.110  -1.991  0.00  0.00    +0.007 A 
ATOM      4  C   UNL     1      -1.234  -2.661  -1.481  0.00  0.00    -0.022 A 
ATOM      5  C   UNL     1      -0.109  -2.623  -2.286  0.00  0.00    +0.007 A 
ATOM      6  C   UNL     1      -0.184  -3.045  -3.599  0.00  0.00    +0.024 A 
ENDROOT
BRANCH   4   7
ATOM      7  C   UNL     1      -1.147  -2.204  -0.048  0.00  0.00    +0.145 C 
ATOM      8  C   UNL     1      -1.166  -0.696   0.015  0.00  0.00    +0.082 C 
ATOM      9  C   UNL     1       0.017  -0.018   0.007  0.00  0.00    +0.053 C 
ATOM     10  N   UNL     1       1.176  -0.670   0.001  0.00  0.00    -0.230 NA
ATOM     11  C   UNL     1       1.251  -1.967   0.269  0.00  0.00    +0.157 C 
ATOM     12  N   UNL     1       0.121  -2.673   0.550  0.00  0.00    -0.298 N 
ATOM     13  C   UNL     1       0.090  -3.866   1.382  0.00  0.00    +0.109 C 
ATOM     14  C   UNL     1       1.273  -4.786   1.115  0.00  0.00    +0.030 C 
ATOM     15  C   UNL     1       2.572  -4.049   1.458  0.00  0.00    +0.079 C 
ATOM     16  S   UNL     1       2.833  -2.747   0.227  0.00  0.00    -0.090 S 
ATOM     17  C   UNL     1       0.011   1.489   0.013  0.00  0.00    +0.066 C 
BRANCH   8  18
ATOM     18  C   UNL     1      -2.385  -0.000   0.074  0.00  0.00    +0.339 C 
ATOM     19  O   UNL     1      -2.390   1.217   0.120  0.00  0.00    -0.245 OA
BRANCH  18  20
ATOM     20  O   UNL     1      -3.551  -0.681   0.081  0.00  0.00    -0.462 OA
BRANCH  20  21
ATOM     21  C   UNL     1      -4.752   0.090   0.143  0.00  0.00    +0.229 C 
ATOM     22  C   UNL     1      -5.961  -0.847   0.142  0.00  0.00    +0.048 C 
ENDBRANCH  20  21
ENDBRANCH  18  20
ENDBRANCH   8  18
ENDBRANCH   4   7
BRANCH   1  26
ATOM     23  N   UNL     1      -2.294  -5.408  -7.045  0.00  0.00    -0.269 N 
ATOM     24  C   UNL     1      -2.285  -4.941  -5.781  0.00  0.00    +0.308 C 
ATOM     25  O   UNL     1      -3.011  -5.440  -4.943  0.00  0.00    -0.252 OA
ATOM     26  N   UNL     1      -1.472  -3.920  -5.446  0.00  0.00    -0.269 N 
ATOM     27  H   UNL     1      -1.585  -5.008  -7.784  0.00  0.00    +0.156 HD
ATOM     28  H   UNL     1      -0.871  -3.419  -6.219  0.00  0.00    +0.156 HD
BRANCH  23  34
ATOM     29  C   UNL     1      -3.745  -6.409  -8.696  0.00  0.00    -0.026 A 
ATOM     30  C   UNL     1      -4.645  -7.392  -9.060  0.00  0.00    +0.005 A 
ATOM     31  C   UNL     1      -5.008  -8.369  -8.151  0.00  0.00    +0.000 A 
ATOM     32  C   UNL     1      -4.473  -8.366  -6.876  0.00  0.00    +0.002 A 
ATOM     33  C   UNL     1      -3.569  -7.389  -6.508  0.00  0.00    +0.023 A 
ATOM     34  C   UNL     1      -3.206  -6.403  -7.417  0.00  0.00    +0.038 A 
BRANCH  29  36
ATOM     35  C   UNL     1      -2.055  -5.758 -10.389  0.00  0.00    +0.009 C 
ATOM     36  C   UNL     1      -3.349  -5.345  -9.687  0.00  0.00    +0.033 C 
ENDBRANCH  29  36
ENDBRANCH  23  34
ENDBRANCH   1  26
TORSDOF 7
