REMARK  Name = ZINC01770945
REMARK  11 active torsions:
REMARK  status: ('A' for Active; 'I' for Inactive)
REMARK    1  A    between atoms: C_2  and  C_3
REMARK    2  A    between atoms: C_3  and  N_61
REMARK    3  A    between atoms: C_4  and  C_5
REMARK    4  A    between atoms: C_4  and  N_61
REMARK    5  A    between atoms: C_7  and  C_8
REMARK    6  A    between atoms: C_7  and  N_61
REMARK    7  A    between atoms: C_9  and  O_36
REMARK    8  A    between atoms: C_15  and  C_32
REMARK    9  A    between atoms: C_16  and  O_19
REMARK   10  A    between atoms: O_19  and  C_20
REMARK   11  A    between atoms: C_23  and  C_26
REMARK                            x       y       z     vdW  Elec       q    Type
REMARK                         _______ _______ _______ _____ _____    ______ ____
ROOT
ATOM      1  C   UNL     1       0.819  -1.931   0.012  0.00  0.00    +0.020 A 
ATOM      2  C   UNL     1       2.045  -2.553   0.182  0.00  0.00    +0.122 A 
ATOM      3  C   UNL     1       3.218  -1.804   0.236  0.00  0.00    +0.046 A 
ATOM      4  C   UNL     1       3.176  -0.444   0.122  0.00  0.00    +0.019 A 
ATOM      5  C   UNL     1       1.948   0.198  -0.050  0.00  0.00    +0.068 A 
ATOM      6  C   UNL     1       0.759  -0.550  -0.105  0.00  0.00    +0.144 A 
ATOM      7  O   UNL     1      -0.421   0.081  -0.272  0.00  0.00    -0.447 OA
ATOM      8  C   UNL     1      -0.513   1.412  -0.389  0.00  0.00    +0.254 A 
ATOM      9  C   UNL     1       0.562   2.224  -0.350  0.00  0.00    +0.222 A 
ATOM     10  C   UNL     1       1.859   1.663  -0.177  0.00  0.00    +0.235 A 
ATOM     11  O   UNL     1       2.855   2.365  -0.137  0.00  0.00    -0.283 OA
ENDROOT
BRANCH   8  12
ATOM     12  C   UNL     1      -1.876   2.028  -0.579  0.00  0.00    +0.454 C 
ATOM     13  F   UNL     1      -2.163   2.112  -1.945  0.00  0.00    -0.163 F 
ATOM     14  F   UNL     1      -2.839   1.232   0.052  0.00  0.00    -0.163 F 
ATOM     15  F   UNL     1      -1.890   3.310  -0.019  0.00  0.00    -0.163 F 
ENDBRANCH   8  12
BRANCH   2  16
ATOM     16  O   UNL     1       2.103  -3.905   0.297  0.00  0.00    -0.506 OA
ATOM     17  H   UNL     1       2.291  -4.362  -0.533  0.00  0.00    +0.292 HD
ENDBRANCH   2  16
BRANCH   1  18
ATOM     18  C   UNL     1      -0.444  -2.751  -0.045  0.00  0.00    -0.035 C 
BRANCH  18  19
ATOM     19  N   UNL     1      -0.823  -2.940  -1.461  0.00  0.00    +0.387 N 
ATOM     20  H   UNL     1      -0.720  -2.047  -1.956  0.00  0.00    -0.080 HD
BRANCH  19  21
ATOM     21  C   UNL     1       0.062  -3.943  -2.091  0.00  0.00    -0.051 C 
BRANCH  21  23
ATOM     22  C   UNL     1      -0.442  -6.330  -2.178  0.00  0.00    +0.002 C 
ATOM     23  C   UNL     1      -0.123  -5.292  -1.445  0.00  0.00    -0.053 C 
ENDBRANCH  21  23
ENDBRANCH  19  21
BRANCH  19  24
ATOM     24  C   UNL     1      -2.231  -3.381  -1.552  0.00  0.00    -0.051 C 
BRANCH  24  25
ATOM     25  C   UNL     1      -2.696  -3.221  -2.977  0.00  0.00    -0.053 C 
ATOM     26  C   UNL     1      -3.217  -4.240  -3.614  0.00  0.00    +0.002 C 
ENDBRANCH  24  25
ENDBRANCH  19  24
ENDBRANCH  18  19
ENDBRANCH   1  18
BRANCH   9  27
ATOM     27  O   UNL     1       0.409   3.570  -0.475  0.00  0.00    -0.448 OA
BRANCH  27  28
ATOM     28  C   UNL     1       0.221   4.298   0.657  0.00  0.00    +0.129 A 
ATOM     29  C   UNL     1       0.184   3.663   1.891  0.00  0.00    +0.047 A 
ATOM     30  C   UNL     1      -0.001   4.400   3.042  0.00  0.00    +0.012 A 
ATOM     31  C   UNL     1      -0.162   5.782   2.964  0.00  0.00    -0.018 A 
ATOM     32  C   UNL     1      -0.130   6.417   1.724  0.00  0.00    +0.012 A 
ATOM     33  C   UNL     1       0.061   5.675   0.577  0.00  0.00    +0.047 A 
BRANCH  31  34
ATOM     34  C   UNL     1      -0.367   6.577   4.200  0.00  0.00    -0.018 A 
ATOM     35  C   UNL     1      -0.522   7.960   4.125  0.00  0.00    +0.008 A 
ATOM     36  C   UNL     1      -0.717   8.694   5.277  0.00  0.00    +0.001 A 
ATOM     37  C   UNL     1      -0.748   8.060   6.506  0.00  0.00    +0.000 A 
ATOM     38  C   UNL     1      -0.589   6.689   6.588  0.00  0.00    +0.001 A 
ATOM     39  C   UNL     1      -0.399   5.944   5.441  0.00  0.00    +0.008 A 
ENDBRANCH  31  34
ENDBRANCH  27  28
ENDBRANCH   9  27
TORSDOF 11
