REMARK  Name = ZINC20215450
REMARK  12 active torsions:
REMARK  status: ('A' for Active; 'I' for Inactive)
REMARK    1  A    between atoms: C_1  and  C_2
REMARK    2  A    between atoms: C_2  and  N_3
REMARK    3  A    between atoms: C_4  and  C_17
REMARK    4  A    between atoms: N_8  and  C_9
REMARK    5  A    between atoms: C_12  and  C_16
REMARK    6  A    between atoms: C_13  and  C_15
REMARK    7  A    between atoms: C_20  and  S_23
REMARK    8  A    between atoms: S_23  and  N_26
REMARK    9  A    between atoms: N_26  and  C_27
REMARK   10  A    between atoms: N_26  and  C_29
REMARK   11  A    between atoms: C_27  and  C_28
REMARK   12  A    between atoms: C_29  and  C_30
REMARK                            x       y       z     vdW  Elec       q    Type
REMARK                         _______ _______ _______ _____ _____    ______ ____
ROOT
ATOM      1  N   UNL     1       4.902   0.010  -0.051  0.00  0.00    -0.321 N 
ATOM      2  C   UNL     1       3.787  -0.667   0.361  0.00  0.00    +0.058 A 
ATOM      3  C   UNL     1       3.826  -2.011   0.474  0.00  0.00    +0.075 A 
ATOM      4  S   UNL     1       5.505  -2.378  -0.008  0.00  0.00    -0.059 S 
ATOM      5  C   UNL     1       6.043  -0.706  -0.329  0.00  0.00    +0.152 A 
ATOM      6  N   UNL     1       7.222  -0.272  -0.732  0.00  0.00    -0.336 N 
ATOM      7  H   UNL     1       7.408   0.808  -0.828  0.00  0.00    +0.168 HD
ENDROOT
BRANCH   6   8
ATOM      8  C   UNL     1       8.213  -1.165  -1.031  0.00  0.00    +0.041 A 
ATOM      9  C   UNL     1       9.126  -1.556  -0.048  0.00  0.00    +0.026 A 
ATOM     10  C   UNL     1      10.120  -2.461  -0.355  0.00  0.00    +0.005 A 
ATOM     11  C   UNL     1      10.222  -2.973  -1.637  0.00  0.00    -0.047 A 
ATOM     12  C   UNL     1       9.326  -2.586  -2.618  0.00  0.00    -0.046 A 
ATOM     13  C   UNL     1       8.323  -1.686  -2.323  0.00  0.00    +0.029 A 
ATOM     14  C   UNL     1       9.446  -3.149  -4.010  0.00  0.00    +0.044 C 
ATOM     15  C   UNL     1      11.315  -3.957  -1.967  0.00  0.00    +0.044 C 
ENDBRANCH   6   8
BRANCH   2  16
ATOM     16  C   UNL     1       2.544   0.070   0.675  0.00  0.00    -0.001 A 
ATOM     17  C   UNL     1       1.782  -0.284   1.789  0.00  0.00    +0.012 A 
ATOM     18  C   UNL     1       0.623   0.407   2.076  0.00  0.00    +0.029 A 
ATOM     19  C   UNL     1       0.215   1.449   1.262  0.00  0.00    +0.106 A 
ATOM     20  C   UNL     1       0.966   1.805   0.156  0.00  0.00    +0.029 A 
ATOM     21  C   UNL     1       2.127   1.122  -0.143  0.00  0.00    +0.012 A 
BRANCH  19  22
ATOM     22  S   UNL     1      -1.270   2.322   1.631  0.00  0.00    +0.061 S 
ATOM     23  O   UNL     1      -1.718   2.897   0.411  0.00  0.00    -0.153 OA
ATOM     24  O   UNL     1      -2.078   1.442   2.401  0.00  0.00    -0.153 OA
BRANCH  22  25
ATOM     25  N   UNL     1      -0.862   3.582   2.626  0.00  0.00    -0.177 NA
BRANCH  25  26
ATOM     26  C   UNL     1      -0.499   4.880   2.053  0.00  0.00    +0.106 C 
ATOM     27  C   UNL     1      -1.732   5.785   2.017  0.00  0.00    +0.022 C 
ENDBRANCH  25  26
BRANCH  25  28
ATOM     28  C   UNL     1      -0.866   3.398   4.080  0.00  0.00    +0.106 C 
ATOM     29  C   UNL     1       0.546   3.047   4.552  0.00  0.00    +0.022 C 
ENDBRANCH  25  28
ENDBRANCH  22  25
ENDBRANCH  19  22
ENDBRANCH   2  16
BRANCH   1  31
ATOM     30  C   UNL     1       6.238   2.038   0.236  0.00  0.00    +0.027 C 
ATOM     31  C   UNL     1       4.883   1.468  -0.188  0.00  0.00    +0.121 C 
ENDBRANCH   1  31
TORSDOF 7
