REMARK  Name = ZINC39672923
REMARK  7 active torsions:
REMARK  status: ('A' for Active; 'I' for Inactive)
REMARK    1  A    between atoms: C_1  and  O_2
REMARK    2  A    between atoms: O_2  and  C_3
REMARK    3  A    between atoms: C_4  and  C_9
REMARK    4  A    between atoms: C_13  and  C_22
REMARK    5  A    between atoms: N_24  and  C_25
REMARK    6  A    between atoms: C_25  and  C_26
REMARK    7  A    between atoms: C_26  and  N_32
REMARK                            x       y       z     vdW  Elec       q    Type
REMARK                         _______ _______ _______ _____ _____    ______ ____
ROOT
ATOM      1  C   UNL     1      -0.938  -1.100  -2.014  0.00  0.00    +0.251 C 
ATOM      2  O   UNL     1      -1.499  -0.713  -1.007  0.00  0.00    -0.270 OA
ATOM      3  N   UNL     1      -1.627  -1.217  -3.167  0.00  0.00    -0.296 N 
ATOM      4  C   UNL     1      -1.161  -1.796  -4.449  0.00  0.00    +0.121 C 
ATOM      5  C   UNL     1      -2.379  -2.578  -4.990  0.00  0.00    +0.100 C 
ATOM      6  C   UNL     1      -3.597  -1.916  -4.324  0.00  0.00    -0.004 C 
ATOM      7  C   UNL     1      -3.025  -0.802  -3.436  0.00  0.00    +0.115 C 
ATOM      8  C   UNL     1      -4.348  -2.932  -3.469  0.00  0.00    -0.010 C 
ATOM      9  C   UNL     1      -5.587  -2.265  -2.863  0.00  0.00    -0.082 C 
ATOM     10  N   UNL     1      -6.452  -1.767  -3.939  0.00  0.00    +0.379 N 
ATOM     11  C   UNL     1      -5.755  -0.724  -4.701  0.00  0.00    -0.082 C 
ATOM     12  C   UNL     1      -4.523  -1.325  -5.384  0.00  0.00    -0.010 C 
ATOM     13  H   UNL     1      -6.691  -2.529  -4.556  0.00  0.00    -0.086 HD
ATOM     14  H   UNL     1      -7.296  -1.383  -3.541  0.00  0.00    -0.086 HD
ENDROOT
BRANCH   1  16
ATOM     15  C   UNL     1       1.199  -1.595  -0.724  0.00  0.00    +0.158 A 
ATOM     16  C   UNL     1       0.492  -1.440  -1.975  0.00  0.00    +0.087 A 
ATOM     17  C   UNL     1       1.222  -1.627  -3.129  0.00  0.00    +0.063 A 
ATOM     18  S   UNL     1       2.767  -1.990  -2.588  0.00  0.00    -0.081 S 
ATOM     19  C   UNL     1       2.511  -1.904  -0.829  0.00  0.00    +0.120 A 
ATOM     20 CL   UNL     1       3.665  -2.157   0.444  0.00  0.00    -0.072 Cl
BRANCH  15  22
ATOM     21  C   UNL     1       0.583  -0.120   1.038  0.00  0.00    +0.277 C 
ATOM     22  O   UNL     1       0.585  -1.435   0.481  0.00  0.00    -0.492 OA
ENDBRANCH  15  22
ENDBRANCH   1  16
BRANCH   5  23
ATOM     23  C   UNL     1      -2.287  -4.030  -4.597  0.00  0.00    +0.218 C 
ATOM     24  O   UNL     1      -1.766  -4.342  -3.547  0.00  0.00    -0.275 OA
ATOM     25  N   UNL     1      -2.784  -4.981  -5.412  0.00  0.00    -0.313 N 
ATOM     26  H   UNL     1      -3.265  -4.729  -6.215  0.00  0.00    +0.149 HD
BRANCH  25  27
ATOM     27  C   UNL     1      -2.599  -6.397  -5.083  0.00  0.00    +0.126 C 
BRANCH  27  28
ATOM     28  C   UNL     1      -3.072  -7.259  -6.255  0.00  0.00    +0.038 C 
ATOM     29  C   UNL     1      -4.495  -6.855  -6.644  0.00  0.00    +0.024 C 
ATOM     30  C   UNL     1      -5.428  -7.063  -5.449  0.00  0.00    +0.002 C 
ATOM     31  C   UNL     1      -5.410  -8.537  -5.038  0.00  0.00    +0.000 C 
ATOM     32  C   UNL     1      -3.987  -8.941  -4.650  0.00  0.00    +0.002 C 
ATOM     33  C   UNL     1      -3.054  -8.733  -5.845  0.00  0.00    +0.024 C 
BRANCH  28  34
ATOM     34  N   UNL     1      -2.176  -7.059  -7.402  0.00  0.00    -0.291 NA
ATOM     35  C   UNL     1      -0.806  -7.484  -7.081  0.00  0.00    +0.113 C 
ATOM     36  C   UNL     1       0.079  -7.315  -8.319  0.00  0.00    +0.175 C 
ATOM     37  O   UNL     1       0.022  -5.955  -8.757  0.00  0.00    -0.377 OA
ATOM     38  C   UNL     1      -1.297  -5.508  -9.079  0.00  0.00    +0.175 C 
ATOM     39  C   UNL     1      -2.196  -5.659  -7.849  0.00  0.00    +0.113 C 
ENDBRANCH  28  34
ENDBRANCH  27  28
ENDBRANCH  25  27
ENDBRANCH   5  23
TORSDOF 6
