REMARK  Name = ZINC36660367
REMARK  11 active torsions:
REMARK  status: ('A' for Active; 'I' for Inactive)
REMARK    1  A    between atoms: C_1  and  C_2
REMARK    2  A    between atoms: C_4  and  C_36
REMARK    3  A    between atoms: N_11  and  C_12
REMARK    4  A    between atoms: C_12  and  C_13
REMARK    5  A    between atoms: C_13  and  C_14
REMARK    6  A    between atoms: C_14  and  N_15
REMARK    7  A    between atoms: N_15  and  C_16
REMARK    8  A    between atoms: N_15  and  C_17
REMARK    9  A    between atoms: C_18  and  C_20
REMARK   10  A    between atoms: N_25  and  S_26
REMARK   11  A    between atoms: S_26  and  C_29
REMARK                            x       y       z     vdW  Elec       q    Type
REMARK                         _______ _______ _______ _____ _____    ______ ____
ROOT
ATOM      1  C   UNL     1      -2.079   1.347   0.274  0.00  0.00    +0.044 C 
ATOM      2  C   UNL     1      -1.673  -0.103   0.207  0.00  0.00    -0.048 A 
ATOM      3  C   UNL     1      -1.562  -0.719  -1.032  0.00  0.00    +0.008 A 
ATOM      4  C   UNL     1      -1.190  -2.049  -1.095  0.00  0.00    -0.034 A 
ATOM      5  C   UNL     1      -0.937  -2.738   0.065  0.00  0.00    +0.044 A 
ATOM      6  C   UNL     1      -1.040  -2.144   1.343  0.00  0.00    +0.081 A 
ATOM      7  C   UNL     1      -1.417  -0.781   1.369  0.00  0.00    +0.032 A 
ATOM      8  N   UNL     1      -0.759  -2.952   2.388  0.00  0.00    -0.224 NA
ATOM      9  C   UNL     1      -0.412  -4.209   2.235  0.00  0.00    +0.168 A 
ATOM     10  S   UNL     1      -0.448  -4.400   0.458  0.00  0.00    -0.052 S 
ATOM     11  N   UNL     1      -0.098  -5.148   3.204  0.00  0.00    -0.249 N 
ATOM     12  C   UNL     1       0.113  -6.432   2.855  0.00  0.00    +0.240 C 
ATOM     13  O   UNL     1       0.307  -7.269   3.710  0.00  0.00    -0.273 OA
ATOM     14  C   UNL     1      -1.063  -2.738  -2.429  0.00  0.00    +0.045 C 
ENDROOT
BRANCH  12  15
ATOM     15  C   UNL     1       0.108  -6.828   1.401  0.00  0.00    +0.166 C 
ATOM     16  C   UNL     1       1.424  -6.380   0.730  0.00  0.00    +0.031 C 
ATOM     17  C   UNL     1       2.290  -7.667   0.769  0.00  0.00    +0.019 C 
ATOM     18  C   UNL     1       1.222  -8.767   0.549  0.00  0.00    +0.110 C 
ATOM     19  N   UNL     1       0.030  -8.291   1.281  0.00  0.00    -0.165 NA
BRANCH  19  20
ATOM     20  S   UNL     1      -1.190  -9.244   1.870  0.00  0.00    +0.062 S 
ATOM     21  O   UNL     1      -0.641 -10.542   2.049  0.00  0.00    -0.153 OA
ATOM     22  O   UNL     1      -1.793  -8.520   2.934  0.00  0.00    -0.153 OA
BRANCH  20  23
ATOM     23  C   UNL     1      -2.404  -9.380   0.601  0.00  0.00    +0.106 A 
ATOM     24  C   UNL     1      -3.431  -8.458   0.526  0.00  0.00    +0.031 A 
ATOM     25  C   UNL     1      -4.384  -8.563  -0.470  0.00  0.00    +0.040 A 
ATOM     26  C   UNL     1      -4.310  -9.594  -1.392  0.00  0.00    +0.124 A 
ATOM     27  C   UNL     1      -3.281 -10.517  -1.315  0.00  0.00    +0.040 A 
ATOM     28  C   UNL     1      -2.326 -10.406  -0.322  0.00  0.00    +0.031 A 
ATOM     29  F   UNL     1      -5.241  -9.698  -2.365  0.00  0.00    -0.205 F 
ENDBRANCH  20  23
ENDBRANCH  19  20
ENDBRANCH  12  15
BRANCH  11  30
ATOM     30  C   UNL     1       0.006  -4.744   4.609  0.00  0.00    +0.114 C 
BRANCH  30  31
ATOM     31  C   UNL     1      -1.368  -4.855   5.273  0.00  0.00    +0.001 C 
BRANCH  31  32
ATOM     32  C   UNL     1      -1.243  -4.521   6.761  0.00  0.00    -0.078 C 
BRANCH  32  33
ATOM     33  N   UNL     1      -2.562  -4.627   7.399  0.00  0.00    +0.376 N 
ATOM     34  C   UNL     1      -2.423  -4.423   8.848  0.00  0.00    -0.097 C 
ATOM     35  C   UNL     1      -3.458  -3.603   6.845  0.00  0.00    -0.097 C 
ATOM     36  H   UNL     1      -2.948  -5.542   7.224  0.00  0.00    -0.083 HD
ENDBRANCH  32  33
ENDBRANCH  31  32
ENDBRANCH  30  31
ENDBRANCH  11  30
TORSDOF 7
