REMARK  Name = ZINC07484163
REMARK  5 active torsions:
REMARK  status: ('A' for Active; 'I' for Inactive)
REMARK    1  A    between atoms: C_5  and  C_7
REMARK    2  A    between atoms: C_10  and  S_13
REMARK    3  A    between atoms: N_11  and  N_12
REMARK    4  A    between atoms: S_13  and  C_14
REMARK    5  A    between atoms: C_14  and  C_15
REMARK                            x       y       z     vdW  Elec       q    Type
REMARK                         _______ _______ _______ _____ _____    ______ ____
ROOT
ATOM      1  C   UNL     1       0.524  -7.114   2.069  0.00  0.00    +0.184 A 
ATOM      2  N   UNL     1      -0.745  -6.807   1.933  0.00  0.00    -0.127 NA
ATOM      3  N   UNL     1      -0.880  -5.533   1.827  0.00  0.00    -0.121 NA
ATOM      4  C   UNL     1       0.296  -4.949   1.880  0.00  0.00    +0.209 A 
ATOM      5  N   UNL     1       1.230  -5.934   2.040  0.00  0.00    -0.224 N 
ENDROOT
BRANCH   1  10
ATOM      6  C   UNL     1       2.563  -9.995   3.353  0.00  0.00    +0.001 A 
ATOM      7  C   UNL     1       2.143 -11.016   2.518  0.00  0.00    +0.003 A 
ATOM      8  C   UNL     1       1.199 -10.774   1.538  0.00  0.00    +0.039 A 
ATOM      9  C   UNL     1       0.664  -9.508   1.389  0.00  0.00    +0.134 A 
ATOM     10  C   UNL     1       1.087  -8.472   2.225  0.00  0.00    +0.056 A 
ATOM     11  C   UNL     1       2.041  -8.726   3.212  0.00  0.00    +0.014 A 
ATOM     12  F   UNL     1      -0.263  -9.272   0.434  0.00  0.00    -0.205 F 
ENDBRANCH   1  10
BRANCH   5  13
ATOM     13  N   UNL     1       2.583  -5.779   2.148  0.00  0.00    -0.295 N 
ATOM     14  H   UNL     1       2.867  -5.748   3.115  0.00  0.00    +0.163 HD
ATOM     15  H   UNL     1       3.071  -6.508   1.650  0.00  0.00    +0.163 HD
ENDBRANCH   5  13
BRANCH   4  16
ATOM     16  S   UNL     1       0.610  -3.219   1.773  0.00  0.00    -0.075 S 
BRANCH  16  17
ATOM     17  C   UNL     1      -1.081  -2.605   1.574  0.00  0.00    +0.173 C 
BRANCH  17  18
ATOM     18  C   UNL     1      -1.059  -1.102   1.459  0.00  0.00    +0.226 C 
ATOM     19  O   UNL     1      -0.005  -0.506   1.506  0.00  0.00    -0.275 OA
ATOM     20  N   UNL     1      -2.212  -0.422   1.304  0.00  0.00    -0.297 N 
ATOM     21  C   UNL     1      -3.508  -1.116   1.353  0.00  0.00    +0.108 C 
ATOM     22  C   UNL     1      -4.303  -0.772   0.090  0.00  0.00    +0.019 C 
ATOM     23  C   UNL     1      -4.404   0.749  -0.052  0.00  0.00    +0.007 C 
ATOM     24  C   UNL     1      -2.995   1.339  -0.193  0.00  0.00    +0.010 C 
ATOM     25  C   UNL     1      -2.204   1.028   1.080  0.00  0.00    +0.079 C 
ATOM     26  C   UNL     1      -0.768   1.532   0.949  0.00  0.00    +0.023 C 
ATOM     27  C   UNL     1      -0.095   0.875  -0.258  0.00  0.00    +0.002 C 
ATOM     28  C   UNL     1      -0.880   1.224  -1.525  0.00  0.00    +0.000 C 
ATOM     29  C   UNL     1      -2.308   0.691  -1.397  0.00  0.00    +0.005 C 
ENDBRANCH  17  18
ENDBRANCH  16  17
ENDBRANCH   4  16
TORSDOF 5
