REMARK  Name = ZINC59271199
REMARK  7 active torsions:
REMARK  status: ('A' for Active; 'I' for Inactive)
REMARK    1  A    between atoms: C_1  and  C_2
REMARK    2  A    between atoms: C_2  and  C_3
REMARK    3  A    between atoms: C_2  and  C_4
REMARK    4  A    between atoms: C_4  and  C_6
REMARK    5  A    between atoms: C_4  and  O_19
REMARK    6  A    between atoms: C_6  and  N_8
REMARK    7  A    between atoms: O_19  and  C_20
REMARK                            x       y       z     vdW  Elec       q    Type
REMARK                         _______ _______ _______ _____ _____    ______ ____
ROOT
ATOM      1  C   UNL     1      -1.423  -1.974   0.355  0.00  0.00    +0.280 C 
ATOM      2  O   UNL     1      -1.844  -2.724  -0.503  0.00  0.00    -0.270 OA
ENDROOT
BRANCH   1   3
ATOM      3  N   UNL     1      -0.933  -2.467   1.489  0.00  0.00    -0.144 NA
ATOM      4  C   UNL     1      -0.801  -3.783   1.639  0.00  0.00    +0.199 A 
ATOM      5  N   UNL     1      -1.018  -4.711   0.670  0.00  0.00    -0.326 N 
ATOM      6  H   UNL     1      -1.294  -4.527  -0.241  0.00  0.00    +0.169 HD
ATOM      7  C   UNL     1      -0.775  -5.970   1.210  0.00  0.00    +0.065 A 
ATOM      8  C   UNL     1      -0.838  -7.253   0.687  0.00  0.00    +0.028 A 
ATOM      9  C   UNL     1      -0.533  -8.337   1.486  0.00  0.00    +0.002 A 
ATOM     10  C   UNL     1      -0.164  -8.150   2.807  0.00  0.00    +0.002 A 
ATOM     11  C   UNL     1      -0.098  -6.877   3.337  0.00  0.00    +0.028 A 
ATOM     12  C   UNL     1      -0.403  -5.780   2.543  0.00  0.00    +0.065 A 
ATOM     13  N   UNL     1      -0.422  -4.410   2.783  0.00  0.00    -0.326 N 
ATOM     14  H   UNL     1      -0.204  -3.977   3.623  0.00  0.00    +0.169 HD
ENDBRANCH   1   3
BRANCH   1  15
ATOM     15  C   UNL     1      -1.455  -0.483   0.135  0.00  0.00    +0.263 C 
BRANCH  15  17
ATOM     16  C   UNL     1      -0.057   1.567  -0.152  0.00  0.00    +0.011 C 
ATOM     17  C   UNL     1      -0.024   0.054   0.072  0.00  0.00    +0.033 C 
ATOM     18  C   UNL     1       0.694  -0.251   1.388  0.00  0.00    +0.011 C 
ENDBRANCH  15  17
BRANCH  15  19
ATOM     19  O   UNL     1      -2.126  -0.198  -1.094  0.00  0.00    -0.478 OA
BRANCH  19  20
ATOM     20  C   UNL     1      -2.869   0.939  -1.142  0.00  0.00    +0.136 A 
ATOM     21  C   UNL     1      -3.031   1.712  -0.001  0.00  0.00    +0.047 A 
ATOM     22  C   UNL     1      -3.788   2.866  -0.052  0.00  0.00    +0.004 A 
ATOM     23  C   UNL     1      -4.384   3.252  -1.238  0.00  0.00    +0.001 A 
ATOM     24  C   UNL     1      -4.226   2.484  -2.377  0.00  0.00    +0.019 A 
ATOM     25  C   UNL     1      -3.465   1.331  -2.333  0.00  0.00    +0.059 A 
ATOM     26 BR   UNL     1      -3.241   0.284  -3.892  0.00  0.00    -0.047 Br
ENDBRANCH  19  20
ENDBRANCH  15  19
ENDBRANCH   1  15
TORSDOF 5
