REMARK  Name = ZINC31784228
REMARK  9 active torsions:
REMARK  status: ('A' for Active; 'I' for Inactive)
REMARK    1  A    between atoms: C_1  and  C_2
REMARK    2  A    between atoms: C_5  and  C_8
REMARK    3  A    between atoms: C_10  and  C_13
REMARK    4  A    between atoms: C_13  and  C_15
REMARK    5  A    between atoms: C_13  and  N_16
REMARK    6  A    between atoms: N_19  and  C_22
REMARK    7  A    between atoms: C_22  and  N_23
REMARK    8  A    between atoms: C_27  and  C_35
REMARK    9  A    between atoms: C_32  and  C_34
REMARK                            x       y       z     vdW  Elec       q    Type
REMARK                         _______ _______ _______ _____ _____    ______ ____
ROOT
ATOM      1  N   UNL     1      -4.066   5.566  -2.196  0.00  0.00    +0.389 N 
ATOM      2  C   UNL     1      -3.798   4.668  -3.328  0.00  0.00    -0.062 C 
ATOM      3  C   UNL     1      -4.363   3.279  -3.019  0.00  0.00    +0.067 C 
ATOM      4  N   UNL     1      -3.749   2.766  -1.786  0.00  0.00    -0.290 NA
ATOM      5  C   UNL     1      -4.017   3.664  -0.654  0.00  0.00    +0.067 C 
ATOM      6  C   UNL     1      -3.452   5.052  -0.963  0.00  0.00    -0.062 C 
ATOM      7  H   UNL     1      -5.154   5.604  -2.042  0.00  0.00    -0.081 HD
ENDROOT
BRANCH   1   8
ATOM      8  C   UNL     1      -3.604   6.930  -2.485  0.00  0.00    +0.019 C 
ATOM      9  C   UNL     1      -4.502   7.556  -3.555  0.00  0.00    -0.003 C 
BRANCH   8  12
ATOM     10  C   UNL     1      -3.233   9.093   0.361  0.00  0.00    +0.202 A 
ATOM     11  N   UNL     1      -2.743   8.575  -0.788  0.00  0.00    -0.193 NA
ATOM     12  C   UNL     1      -3.667   7.759  -1.228  0.00  0.00    +0.214 A 
ATOM     13  O   UNL     1      -4.680   7.804  -0.357  0.00  0.00    -0.339 OA
ATOM     14  N   UNL     1      -4.415   8.566   0.549  0.00  0.00    -0.056 NA
BRANCH  10  19
ATOM     15  C   UNL     1      -0.606  12.903   3.790  0.00  0.00    +0.044 C 
ATOM     16  C   UNL     1      -1.294  11.906   2.893  0.00  0.00    -0.050 A 
ATOM     17  C   UNL     1      -2.552  11.436   3.222  0.00  0.00    +0.004 A 
ATOM     18  C   UNL     1      -3.186  10.523   2.404  0.00  0.00    +0.012 A 
ATOM     19  C   UNL     1      -2.557  10.075   1.244  0.00  0.00    +0.022 A 
ATOM     20  C   UNL     1      -1.287  10.548   0.920  0.00  0.00    +0.012 A 
ATOM     21  C   UNL     1      -0.664  11.465   1.743  0.00  0.00    +0.004 A 
ENDBRANCH  10  19
ENDBRANCH   8  12
ENDBRANCH   1   8
BRANCH   4  22
ATOM     22  C   UNL     1      -4.211   1.402  -1.497  0.00  0.00    +0.204 C 
BRANCH  22  23
ATOM     23  N   UNL     1      -3.209   0.710  -0.682  0.00  0.00    -0.211 N 
ATOM     24  C   UNL     1      -2.190  -0.015  -1.187  0.00  0.00    +0.248 C 
ATOM     25  O   UNL     1      -1.937  -0.210  -2.357  0.00  0.00    -0.273 OA
ATOM     26  C   UNL     1      -1.429  -0.532   0.012  0.00  0.00    +0.118 C 
ATOM     27  C   UNL     1      -1.441  -2.056   0.034  0.00  0.00    +0.019 C 
ATOM     28  C   UNL     1      -0.695  -2.556   1.274  0.00  0.00    +0.006 C 
ATOM     29  C   UNL     1       0.745  -2.041   1.243  0.00  0.00    +0.001 C 
ATOM     30  C   UNL     1       0.743  -0.511   1.242  0.00  0.00    +0.006 C 
ATOM     31  C   UNL     1       0.002  -0.004   0.002  0.00  0.00    +0.019 C 
ATOM     32  C   UNL     1      -0.019   1.526   0.010  0.00  0.00    +0.010 C 
ATOM     33  C   UNL     1      -0.754  -2.590  -1.224  0.00  0.00    +0.010 C 
ATOM     34  N   UNL     1      -2.167   0.006   1.162  0.00  0.00    -0.284 N 
ATOM     35  C   UNL     1      -3.192   0.719   0.657  0.00  0.00    +0.310 C 
ATOM     36  O   UNL     1      -4.009   1.304   1.339  0.00  0.00    -0.252 OA
ATOM     37  H   UNL     1      -1.829  -0.216   2.185  0.00  0.00    +0.151 HD
ENDBRANCH  22  23
ENDBRANCH   4  22
TORSDOF 5
