REMARK  Name = ZINC35706098
REMARK  10 active torsions:
REMARK  status: ('A' for Active; 'I' for Inactive)
REMARK    1  A    between atoms: C_1  and  C_2
REMARK    2  A    between atoms: C_5  and  C_8
REMARK    3  A    between atoms: C_21  and  C_23
REMARK    4  A    between atoms: C_23  and  N_24
REMARK    5  A    between atoms: N_24  and  C_25
REMARK    6  A    between atoms: C_25  and  C_26
REMARK    7  A    between atoms: C_26  and  N_27
REMARK    8  A    between atoms: N_27  and  C_28
REMARK    9  A    between atoms: N_27  and  C_29
REMARK   10  A    between atoms: C_30  and  C_32
REMARK                            x       y       z     vdW  Elec       q    Type
REMARK                         _______ _______ _______ _____ _____    ______ ____
ROOT
ATOM      1  C   UNL     1      -0.209  -4.318   0.073  0.00  0.00    +0.093 A 
ATOM      2  C   UNL     1      -0.032  -4.979   1.293  0.00  0.00    +0.033 A 
ATOM      3  C   UNL     1      -0.039  -6.362   1.289  0.00  0.00    +0.047 A 
ATOM      4  C   UNL     1      -0.221  -7.013   0.068  0.00  0.00    +0.144 A 
ATOM      5  N   UNL     1      -0.381  -6.304  -1.041  0.00  0.00    -0.134 NA
ATOM      6  N   UNL     1      -0.380  -5.021  -1.038  0.00  0.00    -0.147 NA
ATOM      7  N   UNL     1      -0.235  -8.401   0.014  0.00  0.00    -0.312 N 
ATOM      8  C   UNL     1      -0.311  -9.049  -1.304  0.00  0.00    +0.108 C 
ATOM      9  C   UNL     1       0.638 -10.243  -1.429  0.00  0.00    +0.038 C 
ATOM     10  C   UNL     1       1.974  -9.924  -0.788  0.00  0.00    +0.109 C 
ATOM     11  N   UNL     1       1.881 -10.248   0.636  0.00  0.00    -0.299 N 
ATOM     12  C   UNL     1       1.318  -9.392   1.621  0.00  0.00    +0.126 C 
ATOM     13  C   UNL     1      -0.166  -9.141   1.262  0.00  0.00    +0.125 C 
ATOM     14  C   UNL     1       2.362 -11.440   1.041  0.00  0.00    +0.233 C 
ATOM     15  O   UNL     1       2.851 -12.202   0.234  0.00  0.00    -0.274 OA
ENDROOT
BRANCH   1  20
ATOM     16  C   UNL     1      -0.216   1.438  -0.119  0.00  0.00    +0.044 C 
ATOM     17  C   UNL     1      -0.214  -0.069  -0.069  0.00  0.00    -0.050 A 
ATOM     18  C   UNL     1      -0.393  -0.797  -1.231  0.00  0.00    +0.004 A 
ATOM     19  C   UNL     1      -0.392  -2.176  -1.191  0.00  0.00    +0.010 A 
ATOM     20  C   UNL     1      -0.210  -2.836   0.023  0.00  0.00    +0.002 A 
ATOM     21  C   UNL     1      -0.030  -2.096   1.191  0.00  0.00    +0.010 A 
ATOM     22  C   UNL     1      -0.027  -0.717   1.138  0.00  0.00    +0.004 A 
ENDBRANCH   1  20
BRANCH  14  23
ATOM     23  C   UNL     1       2.292 -11.826   2.496  0.00  0.00    +0.203 C 
BRANCH  23  24
ATOM     24  N   UNL     1       2.876 -13.157   2.676  0.00  0.00    -0.290 N 
ATOM     25  C   UNL     1       2.113 -14.256   2.506  0.00  0.00    +0.254 C 
ATOM     26  O   UNL     1       2.569 -15.357   2.752  0.00  0.00    -0.269 OA
BRANCH  25  27
ATOM     27  C   UNL     1       0.736 -14.124   2.022  0.00  0.00    +0.074 A 
ATOM     28  C   UNL     1      -0.242 -15.099   1.892  0.00  0.00    +0.021 A 
ATOM     29  C   UNL     1      -1.453 -14.668   1.405  0.00  0.00    +0.008 A 
ATOM     30  C   UNL     1      -1.609 -13.358   1.093  0.00  0.00    +0.046 A 
ATOM     31  S   UNL     1      -0.122 -12.667   1.457  0.00  0.00    -0.092 S 
ENDBRANCH  25  27
BRANCH  24  32
ATOM     32  C   UNL     1       4.287 -13.295   3.042  0.00  0.00    +0.090 C 
BRANCH  32  33
ATOM     33  C   UNL     1       4.420 -13.311   4.567  0.00  0.00    -0.060 C 
BRANCH  33  34
ATOM     34  N   UNL     1       5.835 -13.449   4.934  0.00  0.00    +0.377 N 
ATOM     35  C   UNL     1       5.976 -13.344   6.392  0.00  0.00    -0.097 C 
ATOM     36  C   UNL     1       6.332 -14.758   4.487  0.00  0.00    -0.097 C 
ATOM     37  H   UNL     1       6.371 -12.717   4.491  0.00  0.00    -0.083 HD
ENDBRANCH  33  34
ENDBRANCH  32  33
ENDBRANCH  24  32
ENDBRANCH  23  24
ENDBRANCH  14  23
TORSDOF 7
