REMARK  Name = ZINC38604551
REMARK  7 active torsions:
REMARK  status: ('A' for Active; 'I' for Inactive)
REMARK    1  A    between atoms: C_1  and  C_2
REMARK    2  A    between atoms: N_12  and  C_13
REMARK    3  A    between atoms: C_13  and  C_14
REMARK    4  A    between atoms: N_16  and  C_17
REMARK    5  A    between atoms: C_25  and  C_27
REMARK    6  A    between atoms: C_27  and  O_29
REMARK    7  A    between atoms: O_29  and  C_30
REMARK                            x       y       z     vdW  Elec       q    Type
REMARK                         _______ _______ _______ _____ _____    ______ ____
ROOT
ATOM      1  C   UNL     1       0.472   0.562   4.739  0.00  0.00    +0.234 C 
ATOM      2  O   UNL     1      -0.202  -0.027   3.921  0.00  0.00    -0.274 OA
ATOM      3  N   UNL     1      -0.109   1.099   5.830  0.00  0.00    -0.285 N 
ATOM      4  H   UNL     1       0.433   1.545   6.498  0.00  0.00    +0.155 HD
ENDROOT
BRANCH   3   5
ATOM      5  C   UNL     1      -1.460   1.017   5.993  0.00  0.00    +0.053 C 
ATOM      6  C   UNL     1      -2.224   1.643   6.962  0.00  0.00    +0.019 A 
ATOM      7  C   UNL     1      -1.889   2.511   8.029  0.00  0.00    +0.026 A 
ATOM      8  C   UNL     1      -2.866   2.984   8.842  0.00  0.00    +0.019 A 
ATOM      9  C   UNL     1      -4.207   2.635   8.656  0.00  0.00    +0.017 A 
ATOM     10  C   UNL     1      -4.600   1.809   7.657  0.00  0.00    +0.027 A 
ATOM     11  C   UNL     1      -3.636   1.273   6.763  0.00  0.00    +0.045 A 
ATOM     12  N   UNL     1      -3.759   0.463   5.732  0.00  0.00    -0.367 N 
ATOM     13  C   UNL     1      -2.435   0.227   5.148  0.00  0.00    +0.234 C 
ATOM     14 BR   UNL     1      -2.403   4.143  10.263  0.00  0.00    -0.050 Br
ATOM     15  H   UNL     1      -4.592   0.086   5.408  0.00  0.00    +0.161 HD
BRANCH  13  16
ATOM     16  C   UNL     1      -2.100  -1.241   5.204  0.00  0.00    +0.335 C 
ATOM     17  O   UNL     1      -2.334  -1.876   6.205  0.00  0.00    -0.248 OA
BRANCH  16  18
ATOM     18  O   UNL     1      -1.542  -1.844   4.143  0.00  0.00    -0.466 OA
ATOM     19  C   UNL     1      -1.251  -3.237   4.266  0.00  0.00    +0.280 C 
ENDBRANCH  16  18
ENDBRANCH  13  16
ENDBRANCH   3   5
BRANCH   1  20
ATOM     20  C   UNL     1       1.960   0.692   4.536  0.00  0.00    +0.201 C 
BRANCH  20  31
ATOM     21  C   UNL     1       2.323   2.277   2.303  0.00  0.00    +0.028 C 
ATOM     22  C   UNL     1       2.357   0.774   2.021  0.00  0.00    +0.071 C 
ATOM     23  C   UNL     1       3.650   0.413   1.278  0.00  0.00    +0.027 C 
ATOM     24  C   UNL     1       3.629  -1.079   0.946  0.00  0.00    +0.039 C 
ATOM     25  C   UNL     1       3.324  -1.889   2.178  0.00  0.00    -0.024 A 
ATOM     26  C   UNL     1       3.676  -3.229   2.203  0.00  0.00    +0.043 A 
ATOM     27  C   UNL     1       3.407  -4.000   3.318  0.00  0.00    +0.124 A 
ATOM     28  C   UNL     1       2.783  -3.437   4.419  0.00  0.00    +0.040 A 
ATOM     29  C   UNL     1       2.431  -2.102   4.401  0.00  0.00    +0.026 A 
ATOM     30  C   UNL     1       2.702  -1.325   3.280  0.00  0.00    +0.034 A 
ATOM     31  N   UNL     1       2.342   0.029   3.287  0.00  0.00    -0.318 N 
ATOM     32  F   UNL     1       3.753  -5.306   3.335  0.00  0.00    -0.205 F 
ENDBRANCH  20  31
ENDBRANCH   1  20
TORSDOF 5
