REMARK  Name = ZINC39982605
REMARK  7 active torsions:
REMARK  status: ('A' for Active; 'I' for Inactive)
REMARK    1  A    between atoms: C_1  and  C_2
REMARK    2  A    between atoms: C_2  and  C_4
REMARK    3  A    between atoms: C_2  and  S_18
REMARK    4  A    between atoms: N_9  and  C_12
REMARK    5  A    between atoms: S_18  and  C_19
REMARK    6  A    between atoms: C_23  and  C_28
REMARK    7  A    between atoms: N_24  and  C_25
REMARK                            x       y       z     vdW  Elec       q    Type
REMARK                         _______ _______ _______ _____ _____    ______ ____
ROOT
ATOM      1  C   UNL     1      -0.307  -0.133  -2.745  0.00  0.00    +0.238 C 
ATOM      2  N   UNL     1      -1.648  -0.694  -2.513  0.00  0.00    -0.237 N 
ATOM      3  N   UNL     1      -2.488   0.389  -2.228  0.00  0.00    -0.169 NA
ATOM      4  C   UNL     1      -1.833   1.519  -2.258  0.00  0.00    +0.147 C 
ATOM      5  N   UNL     1      -0.482   1.318  -2.568  0.00  0.00    -0.282 N 
ATOM      6  H   UNL     1      -1.900  -1.630  -2.550  0.00  0.00    +0.171 HD
ENDROOT
BRANCH   4   7
ATOM      7  C   UNL     1      -2.410   2.775  -2.014  0.00  0.00    +0.022 C 
ATOM      8  C   UNL     1      -3.720   3.037  -1.613  0.00  0.00    +0.006 A 
ATOM      9  C   UNL     1      -4.820   2.197  -1.338  0.00  0.00    +0.010 A 
ATOM     10  C   UNL     1      -6.004   2.740  -0.957  0.00  0.00    +0.001 A 
ATOM     11  C   UNL     1      -6.168   4.120  -0.826  0.00  0.00    +0.002 A 
ATOM     12  C   UNL     1      -5.154   4.987  -1.074  0.00  0.00    +0.026 A 
ATOM     13  C   UNL     1      -3.887   4.494  -1.477  0.00  0.00    +0.043 A 
ATOM     14  N   UNL     1      -2.762   5.116  -1.771  0.00  0.00    -0.380 N 
ATOM     15  C   UNL     1      -1.739   4.126  -2.124  0.00  0.00    +0.152 C 
ATOM     16  H   UNL     1      -2.630   6.077  -1.752  0.00  0.00    +0.160 HD
ENDBRANCH   4   7
BRANCH   5  17
ATOM     17  C   UNL     1       0.553   2.347  -2.692  0.00  0.00    +0.078 C 
ATOM     18  C   UNL     1       1.179   2.557  -4.072  0.00  0.00    +0.024 C 
ATOM     19  C   UNL     1       1.985   1.880  -2.962  0.00  0.00    +0.024 C 
ENDBRANCH   5  17
BRANCH   1  20
ATOM     20  S   UNL     1       0.872  -0.782  -1.529  0.00  0.00    -0.106 S 
BRANCH  20  22
ATOM     21  C   UNL     1       0.112   1.184   0.214  0.00  0.00    +0.029 C 
ATOM     22  C   UNL     1       0.141  -0.339   0.071  0.00  0.00    +0.133 C 
BRANCH  22  23
ATOM     23  C   UNL     1       0.968  -0.932   1.182  0.00  0.00    +0.228 C 
ATOM     24  O   UNL     1       2.141  -1.182   0.999  0.00  0.00    -0.274 OA
ATOM     25  N   UNL     1       0.405  -1.185   2.380  0.00  0.00    -0.298 N 
ATOM     26  C   UNL     1      -1.016  -0.893   2.615  0.00  0.00    +0.126 C 
ATOM     27  C   UNL     1      -1.706  -2.173   3.103  0.00  0.00    +0.124 C 
ATOM     28  N   UNL     1      -0.910  -2.746   4.198  0.00  0.00    -0.327 N 
ATOM     29  C   UNL     1       0.511  -3.038   3.964  0.00  0.00    +0.124 C 
ATOM     30  C   UNL     1       1.199  -1.763   3.473  0.00  0.00    +0.126 C 
BRANCH  28  31
ATOM     31  C   UNL     1      -1.494  -3.008   5.440  0.00  0.00    +0.030 A 
ATOM     32  C   UNL     1      -2.806  -2.624   5.687  0.00  0.00    +0.023 A 
ATOM     33  C   UNL     1      -3.380  -2.885   6.915  0.00  0.00    +0.002 A 
ATOM     34  C   UNL     1      -2.651  -3.528   7.899  0.00  0.00    +0.000 A 
ATOM     35  C   UNL     1      -1.345  -3.912   7.656  0.00  0.00    +0.002 A 
ATOM     36  C   UNL     1      -0.766  -3.659   6.428  0.00  0.00    +0.023 A 
ENDBRANCH  28  31
ENDBRANCH  22  23
ENDBRANCH  20  22
ENDBRANCH   1  20
TORSDOF 6
