REMARK  Name = ZINC63139425
REMARK  7 active torsions:
REMARK  status: ('A' for Active; 'I' for Inactive)
REMARK    1  A    between atoms: C_1  and  O_2
REMARK    2  A    between atoms: O_2  and  C_3
REMARK    3  A    between atoms: C_6  and  C_9
REMARK    4  A    between atoms: C_9  and  C_10
REMARK    5  A    between atoms: C_10  and  N_11
REMARK    6  A    between atoms: C_31  and  C_33
REMARK    7  A    between atoms: C_37  and  N_39
REMARK                            x       y       z     vdW  Elec       q    Type
REMARK                         _______ _______ _______ _____ _____    ______ ____
ROOT
ATOM      1  N   UNL     1       4.532  -3.066  -5.468  0.00  0.00    -0.291 N 
ATOM      2  C   UNL     1       4.562  -4.515  -5.364  0.00  0.00    +0.203 C 
ATOM      3  C   UNL     1       5.305  -5.147  -6.494  0.00  0.00    +0.234 C 
ATOM      4  O   UNL     1       5.392  -6.356  -6.505  0.00  0.00    -0.274 OA
ATOM      5  N   UNL     1       5.881  -4.473  -7.497  0.00  0.00    -0.279 N 
ATOM      6  C   UNL     1       5.828  -3.019  -7.603  0.00  0.00    +0.167 C 
ATOM      7  C   UNL     1       5.091  -2.387  -6.469  0.00  0.00    +0.237 C 
ATOM      8  O   UNL     1       4.998  -1.178  -6.456  0.00  0.00    -0.274 OA
ATOM      9  C   UNL     1       5.169  -2.613  -8.934  0.00  0.00    +0.065 C 
ATOM     10  C   UNL     1       5.803  -3.466 -10.005  0.00  0.00    -0.034 C 
ATOM     11  C   UNL     1       6.364  -3.150 -11.165  0.00  0.00    -0.001 A 
ATOM     12  C   UNL     1       6.477  -1.869 -11.882  0.00  0.00    +0.010 A 
ATOM     13  C   UNL     1       7.151  -1.901 -13.062  0.00  0.00    +0.001 A 
ATOM     14  C   UNL     1       7.718  -3.063 -13.594  0.00  0.00    +0.002 A 
ATOM     15  C   UNL     1       7.654  -4.285 -13.007  0.00  0.00    +0.026 A 
ATOM     16  C   UNL     1       6.963  -4.381 -11.764  0.00  0.00    +0.043 A 
ATOM     17  N   UNL     1       6.733  -5.413 -11.007  0.00  0.00    -0.375 N 
ATOM     18  C   UNL     1       5.915  -4.981  -9.874  0.00  0.00    +0.131 C 
ATOM     19  C   UNL     1       6.598  -5.254  -8.531  0.00  0.00    +0.133 C 
ATOM     20  H   UNL     1       7.050  -6.316 -11.167  0.00  0.00    +0.160 HD
ENDROOT
BRANCH  19  21
ATOM     21  C   UNL     1       8.039  -4.818  -8.593  0.00  0.00    -0.023 A 
ATOM     22  C   UNL     1       8.351  -3.500  -8.871  0.00  0.00    +0.005 A 
ATOM     23  C   UNL     1       9.673  -3.101  -8.928  0.00  0.00    +0.003 A 
ATOM     24  C   UNL     1      10.683  -4.019  -8.706  0.00  0.00    +0.033 A 
ATOM     25  C   UNL     1      10.371  -5.336  -8.427  0.00  0.00    +0.127 A 
ATOM     26  C   UNL     1       9.048  -5.734  -8.366  0.00  0.00    +0.038 A 
BRANCH  25  27
ATOM     27  N   UNL     1      11.452  -6.319  -8.190  0.00  0.00    +0.056 N 
ATOM     28  O   UNL     1      12.608  -5.969  -8.240  0.00  0.00    -0.126 OA
ATOM     29  O   UNL     1      11.178  -7.471  -7.946  0.00  0.00    -0.126 OA
ENDBRANCH  25  27
ENDBRANCH  19  21
BRANCH   1  30
ATOM     30  C   UNL     1       3.846  -2.310  -4.417  0.00  0.00    +0.113 C 
BRANCH  30  31
ATOM     31  C   UNL     1       2.374  -2.131  -4.796  0.00  0.00    +0.054 C 
BRANCH  31  35
ATOM     32  C   UNL     1       0.371   0.073  -1.731  0.00  0.00    +0.120 A 
ATOM     33  C   UNL     1       0.966   0.741  -2.792  0.00  0.00    +0.046 A 
ATOM     34  C   UNL     1       1.614   0.026  -3.781  0.00  0.00    +0.007 A 
ATOM     35  C   UNL     1       1.668  -1.354  -3.715  0.00  0.00    -0.046 A 
ATOM     36  C   UNL     1       1.075  -2.022  -2.660  0.00  0.00    +0.007 A 
ATOM     37  C   UNL     1       0.432  -1.312  -1.665  0.00  0.00    +0.046 A 
BRANCH  32  39
ATOM     38  C   UNL     1      -0.289   2.196  -0.890  0.00  0.00    +0.277 C 
ATOM     39  O   UNL     1      -0.266   0.773  -0.756  0.00  0.00    -0.495 OA
ENDBRANCH  32  39
ENDBRANCH  31  35
ENDBRANCH  30  31
ENDBRANCH   1  30
TORSDOF 6
