REMARK  Name = ZINC06135361
REMARK  10 active torsions:
REMARK  status: ('A' for Active; 'I' for Inactive)
REMARK    1  A    between atoms: C_1  and  C_2
REMARK    2  A    between atoms: C_2  and  C_3
REMARK    3  A    between atoms: C_10  and  C_15
REMARK    4  A    between atoms: C_15  and  C_17
REMARK    5  A    between atoms: C_15  and  N_74
REMARK    6  A    between atoms: N_21  and  C_22
REMARK    7  A    between atoms: C_22  and  C_23
REMARK    8  A    between atoms: N_31  and  C_34
REMARK    9  A    between atoms: C_39  and  O_40
REMARK   10  A    between atoms: O_40  and  C_41
REMARK                            x       y       z     vdW  Elec       q    Type
REMARK                         _______ _______ _______ _____ _____    ______ ____
ROOT
ATOM      1  C   UNL     1       3.512   0.638  -0.028  0.00  0.00    +0.039 C 
ENDROOT
BRANCH   1   9
ATOM      2  C   UNL     1       6.380   1.261   5.420  0.00  0.00    -0.047 A 
ATOM      3  C   UNL     1       6.112  -0.020   5.884  0.00  0.00    +0.005 A 
ATOM      4  C   UNL     1       5.398  -0.912   5.114  0.00  0.00    +0.026 A 
ATOM      5  C   UNL     1       4.940  -0.528   3.858  0.00  0.00    +0.049 A 
ATOM      6  C   UNL     1       5.213   0.771   3.390  0.00  0.00    -0.001 A 
ATOM      7  C   UNL     1       5.940   1.660   4.190  0.00  0.00    +0.013 A 
ATOM      8  C   UNL     1       4.726   1.167   2.068  0.00  0.00    +0.017 A 
ATOM      9  C   UNL     1       4.027   0.263   1.338  0.00  0.00    +0.011 A 
ATOM     10  C   UNL     1       3.775  -1.026   1.855  0.00  0.00    +0.251 A 
ATOM     11  O   UNL     1       3.139  -1.821   1.185  0.00  0.00    -0.268 OA
ATOM     12  N   UNL     1       4.222  -1.399   3.067  0.00  0.00    -0.322 N 
ATOM     13  H   UNL     1       4.032  -2.323   3.399  0.00  0.00    +0.169 HD
BRANCH   2  15
ATOM     14  C   UNL     1       6.199   3.014   7.164  0.00  0.00    +0.009 C 
ATOM     15  C   UNL     1       7.162   2.219   6.280  0.00  0.00    +0.032 C 
ENDBRANCH   2  15
ENDBRANCH   1   9
BRANCH   1  21
ATOM     16  C   UNL     1       5.460  -0.427  -0.995  0.00  0.00    -0.058 C 
ATOM     17  C   UNL     1       5.915  -1.506  -1.981  0.00  0.00    +0.086 C 
ATOM     18  N   UNL     1       5.431  -1.171  -3.327  0.00  0.00    -0.331 N 
ATOM     19  C   UNL     1       3.965  -1.079  -3.349  0.00  0.00    +0.086 C 
ATOM     20  C   UNL     1       3.509  -0.001  -2.364  0.00  0.00    -0.058 C 
ATOM     21  N   UNL     1       3.983  -0.361  -1.010  0.00  0.00    +0.391 N 
ATOM     22  H   UNL     1       3.605  -1.281  -0.758  0.00  0.00    -0.080 HD
BRANCH  18  23
ATOM     23  C   UNL     1       5.890  -2.098  -4.270  0.00  0.00    +0.072 A 
ATOM     24  C   UNL     1       5.494  -3.426  -4.189  0.00  0.00    +0.027 A 
ATOM     25  C   UNL     1       5.949  -4.340  -5.121  0.00  0.00    +0.002 A 
ATOM     26  C   UNL     1       6.797  -3.935  -6.135  0.00  0.00    +0.004 A 
ATOM     27  C   UNL     1       7.196  -2.613  -6.221  0.00  0.00    +0.047 A 
ATOM     28  C   UNL     1       6.741  -1.690  -5.295  0.00  0.00    +0.141 A 
BRANCH  28  29
ATOM     29  O   UNL     1       7.128  -0.389  -5.382  0.00  0.00    -0.493 OA
ATOM     30  C   UNL     1       8.001  -0.043  -6.459  0.00  0.00    +0.277 C 
ENDBRANCH  28  29
ENDBRANCH  18  23
ENDBRANCH   1  21
BRANCH   1  31
ATOM     31  C   UNL     1       2.005   0.637  -0.014  0.00  0.00    +0.143 A 
ATOM     32  N   UNL     1       1.223  -0.415  -0.012  0.00  0.00    -0.115 NA
ATOM     33  N   UNL     1       0.002  -0.004   0.002  0.00  0.00    -0.023 NA
ATOM     34  N   UNL     1      -0.015   1.283   0.009  0.00  0.00    -0.044 NA
ATOM     35  N   UNL     1       1.200   1.716  -0.000  0.00  0.00    -0.228 N 
BRANCH  35  36
ATOM     36  C   UNL     1       1.625   3.118   0.003  0.00  0.00    +0.178 C 
BRANCH  36  37
ATOM     37  C   UNL     1       1.787   3.599   1.446  0.00  0.00    +0.140 C 
ATOM     38  C   UNL     1       2.288   5.064   1.472  0.00  0.00    +0.035 C 
ATOM     39  C   UNL     1       1.773   5.528   2.862  0.00  0.00    +0.031 C 
ATOM     40  C   UNL     1       0.447   4.749   2.996  0.00  0.00    +0.160 C 
ATOM     41  O   UNL     1       0.512   3.627   2.108  0.00  0.00    -0.375 OA
ENDBRANCH  36  37
ENDBRANCH  35  36
ENDBRANCH   1  31
TORSDOF 8
