REMARK  Name = ZINC36037372
REMARK  14 active torsions:
REMARK  status: ('A' for Active; 'I' for Inactive)
REMARK    1  A    between atoms: C_1  and  C_2
REMARK    2  A    between atoms: C_2  and  C_3
REMARK    3  A    between atoms: C_3  and  C_4
REMARK    4  A    between atoms: C_5  and  C_35
REMARK    5  A    between atoms: C_6  and  C_28
REMARK    6  A    between atoms: C_12  and  C_23
REMARK    7  A    between atoms: C_14  and  C_18
REMARK    8  A    between atoms: C_18  and  O_20
REMARK    9  A    between atoms: O_20  and  C_21
REMARK   10  A    between atoms: C_21  and  C_22
REMARK   11  A    between atoms: C_31  and  C_34
REMARK   12  A    between atoms: C_35  and  O_37
REMARK   13  A    between atoms: O_37  and  C_38
REMARK   14  A    between atoms: C_38  and  C_39
REMARK                            x       y       z     vdW  Elec       q    Type
REMARK                         _______ _______ _______ _____ _____    ______ ____
ROOT
ATOM      1  C   UNL     1      -1.435  -2.439   1.074  0.00  0.00    +0.019 C 
ATOM      2  C   UNL     1      -1.011  -3.323   1.994  0.00  0.00    +0.065 C 
ATOM      3  C   UNL     1      -0.716  -4.747   1.627  0.00  0.00    +0.092 C 
ATOM      4  C   UNL     1      -1.349  -5.109   0.307  0.00  0.00    +0.025 C 
ATOM      5  C   UNL     1      -1.764  -4.147  -0.545  0.00  0.00    +0.016 C 
ATOM      6  N   UNL     1      -1.621  -2.826  -0.224  0.00  0.00    -0.320 N 
ATOM      7  C   UNL     1      -2.403  -4.501  -1.865  0.00  0.00    +0.061 C 
ATOM      8  C   UNL     1      -1.832  -5.827  -2.374  0.00  0.00    +0.053 C 
ATOM      9  C   UNL     1      -2.095  -6.906  -1.319  0.00  0.00    +0.176 C 
ATOM     10  C   UNL     1      -1.491  -6.471  -0.012  0.00  0.00    +0.176 C 
ATOM     11  O   UNL     1      -1.119  -7.311   0.783  0.00  0.00    -0.291 OA
ATOM     12  H   UNL     1      -1.649  -2.157  -0.925  0.00  0.00    +0.152 HD
ENDROOT
BRANCH   3  13
ATOM     13  C   UNL     1       0.776  -4.934   1.527  0.00  0.00    -0.035 A 
ATOM     14  C   UNL     1       1.506  -4.188   0.621  0.00  0.00    +0.005 A 
ATOM     15  C   UNL     1       2.875  -4.358   0.529  0.00  0.00    +0.003 A 
ATOM     16  C   UNL     1       3.514  -5.275   1.344  0.00  0.00    -0.050 A 
ATOM     17  C   UNL     1       2.783  -6.020   2.251  0.00  0.00    +0.003 A 
ATOM     18  C   UNL     1       1.415  -5.846   2.345  0.00  0.00    +0.005 A 
ATOM     19  C   UNL     1       5.005  -5.462   1.243  0.00  0.00    +0.044 C 
ENDBRANCH   3  13
BRANCH   8  20
ATOM     20  C   UNL     1      -2.503  -6.204  -3.669  0.00  0.00    -0.006 A 
ATOM     21  C   UNL     1      -1.944  -6.627  -4.829  0.00  0.00    +0.011 A 
ATOM     22  C   UNL     1      -2.766  -6.920  -5.901  0.00  0.00    +0.008 A 
ATOM     23  C   UNL     1      -4.106  -6.777  -5.761  0.00  0.00    +0.045 A 
ATOM     24  S   UNL     1      -4.243  -6.217  -4.071  0.00  0.00    -0.101 S 
ENDBRANCH   8  20
BRANCH   9  25
ATOM     25  C   UNL     1      -3.581  -7.096  -1.151  0.00  0.00    +0.318 C 
ATOM     26  O   UNL     1      -4.211  -6.343  -0.447  0.00  0.00    -0.250 OA
BRANCH  25  27
ATOM     27  O   UNL     1      -4.205  -8.101  -1.786  0.00  0.00    -0.464 OA
BRANCH  27  28
ATOM     28  C   UNL     1      -5.614  -8.221  -1.582  0.00  0.00    +0.229 C 
ATOM     29  C   UNL     1      -6.145  -9.414  -2.379  0.00  0.00    +0.048 C 
ENDBRANCH  27  28
ENDBRANCH  25  27
ENDBRANCH   9  25
BRANCH   2  30
ATOM     30  C   UNL     1      -0.840  -2.901   3.333  0.00  0.00    +0.338 C 
ATOM     31  O   UNL     1       0.276  -2.672   3.761  0.00  0.00    -0.245 OA
BRANCH  30  32
ATOM     32  O   UNL     1      -1.913  -2.754   4.137  0.00  0.00    -0.462 OA
BRANCH  32  33
ATOM     33  C   UNL     1      -1.667  -2.326   5.478  0.00  0.00    +0.229 C 
ATOM     34  C   UNL     1      -2.994  -2.216   6.231  0.00  0.00    +0.048 C 
ENDBRANCH  32  33
ENDBRANCH  30  32
ENDBRANCH   2  30
BRANCH   1  35
ATOM     35  C   UNL     1      -1.713  -1.014   1.478  0.00  0.00    +0.051 C 
BRANCH  35  37
ATOM     36  C   UNL     1      -0.742   1.282   1.656  0.00  0.00    +0.004 C 
ATOM     37  C   UNL     1      -0.461  -0.165   1.246  0.00  0.00    +0.002 C 
ENDBRANCH  35  37
ENDBRANCH   1  35
TORSDOF 10
