REMARK  Name = ZINC43223208
REMARK  9 active torsions:
REMARK  status: ('A' for Active; 'I' for Inactive)
REMARK    1  A    between atoms: C_4  and  C_7
REMARK    2  A    between atoms: C_7  and  O_8
REMARK    3  A    between atoms: O_8  and  C_9
REMARK    4  A    between atoms: C_14  and  N_16
REMARK    5  A    between atoms: C_17  and  C_19
REMARK    6  A    between atoms: C_24  and  C_26
REMARK    7  A    between atoms: N_28  and  C_29
REMARK    8  A    between atoms: C_29  and  C_30
REMARK    9  A    between atoms: C_30  and  C_32
REMARK                            x       y       z     vdW  Elec       q    Type
REMARK                         _______ _______ _______ _____ _____    ______ ____
ROOT
ATOM      1  C   UNL     1       3.084  -2.088   5.697  0.00  0.00    +0.068 C 
ATOM      2  C   UNL     1       1.789  -1.607   5.009  0.00  0.00    -0.069 C 
ATOM      3  N   UNL     1       0.845  -2.746   5.149  0.00  0.00    +0.380 N 
ATOM      4  C   UNL     1       1.098  -3.263   6.519  0.00  0.00    -0.069 C 
ATOM      5  C   UNL     1       2.632  -3.177   6.692  0.00  0.00    +0.068 C 
ATOM      6  H   UNL     1      -0.108  -2.427   5.062  0.00  0.00    -0.086 HD
ATOM      7  H   UNL     1       1.045  -3.457   4.461  0.00  0.00    -0.086 HD
ENDROOT
BRANCH   1   9
ATOM      8  N   UNL     1       4.527  -1.892   3.697  0.00  0.00    -0.310 N 
ATOM      9  C   UNL     1       4.032  -2.670   4.680  0.00  0.00    +0.215 C 
ATOM     10  O   UNL     1       4.350  -3.839   4.746  0.00  0.00    -0.276 OA
ATOM     11  H   UNL     1       4.273  -0.957   3.644  0.00  0.00    +0.149 HD
BRANCH   8  16
ATOM     12  C   UNL     1       5.385  -1.642   1.400  0.00  0.00    +0.139 C 
ATOM     13  C   UNL     1       6.560  -0.639   1.518  0.00  0.00    +0.033 C 
ATOM     14  C   UNL     1       7.664  -1.484   2.201  0.00  0.00    +0.004 C 
ATOM     15  C   UNL     1       6.898  -2.354   3.219  0.00  0.00    +0.025 C 
ATOM     16  C   UNL     1       5.448  -2.458   2.708  0.00  0.00    +0.102 C 
BRANCH  12  17
ATOM     17  O   UNL     1       4.141  -0.946   1.304  0.00  0.00    -0.370 OA
BRANCH  17  18
ATOM     18  C   UNL     1       3.711  -0.707  -0.038  0.00  0.00    +0.195 C 
BRANCH  18  22
ATOM     19  C   UNL     1      -0.017   1.378   0.010  0.00  0.00    +0.000 A 
ATOM     20  C   UNL     1       1.171   2.086   0.002  0.00  0.00    +0.000 A 
ATOM     21  C   UNL     1       2.377   1.411  -0.013  0.00  0.00    +0.006 A 
ATOM     22  C   UNL     1       2.396   0.029  -0.020  0.00  0.00    -0.022 A 
ATOM     23  C   UNL     1       1.208  -0.679  -0.012  0.00  0.00    +0.006 A 
ATOM     24  C   UNL     1       0.002  -0.004   0.002  0.00  0.00    +0.000 A 
ENDBRANCH  18  22
ENDBRANCH  17  18
ENDBRANCH  12  17
ENDBRANCH   8  16
ENDBRANCH   1   9
BRANCH   5  25
ATOM     25  C   UNL     1       2.979  -2.775   8.102  0.00  0.00    +0.215 C 
ATOM     26  O   UNL     1       3.538  -1.718   8.311  0.00  0.00    -0.276 OA
ATOM     27  N   UNL     1       2.670  -3.588   9.131  0.00  0.00    -0.308 N 
ATOM     28  H   UNL     1       2.224  -4.433   8.964  0.00  0.00    +0.149 HD
BRANCH  27  29
ATOM     29  C   UNL     1       3.008  -3.197  10.501  0.00  0.00    +0.184 C 
BRANCH  29  30
ATOM     30  C   UNL     1       2.558  -4.273  11.456  0.00  0.00    +0.180 C 
ATOM     31  O   UNL     1       2.009  -5.268  11.034  0.00  0.00    -0.290 OA
BRANCH  30  32
ATOM     32  C   UNL     1       2.785  -4.115  12.902  0.00  0.00    +0.019 A 
ATOM     33  C   UNL     1       3.413  -2.966  13.394  0.00  0.00    +0.011 A 
ATOM     34  C   UNL     1       3.621  -2.826  14.750  0.00  0.00    +0.001 A 
ATOM     35  C   UNL     1       3.211  -3.819  15.623  0.00  0.00    +0.000 A 
ATOM     36  C   UNL     1       2.590  -4.959  15.144  0.00  0.00    +0.001 A 
ATOM     37  C   UNL     1       2.369  -5.111  13.791  0.00  0.00    +0.011 A 
ENDBRANCH  30  32
ENDBRANCH  29  30
ENDBRANCH  27  29
ENDBRANCH   5  25
TORSDOF 9
