REMARK  Name = ZINC05795421
REMARK  6 active torsions:
REMARK  status: ('A' for Active; 'I' for Inactive)
REMARK    1  A    between atoms: C_1  and  N_2
REMARK    2  A    between atoms: N_2  and  C_3
REMARK    3  A    between atoms: N_2  and  C_4
REMARK    4  A    between atoms: C_7  and  C_10
REMARK    5  A    between atoms: N_16  and  N_17
REMARK    6  A    between atoms: C_18  and  C_19
REMARK                            x       y       z     vdW  Elec       q    Type
REMARK                         _______ _______ _______ _____ _____    ______ ____
ROOT
ATOM      1  C   UNL     1      -2.502   1.003   0.019  0.00  0.00    +0.184 A 
ATOM      2  N   UNL     1      -2.635  -0.267   0.287  0.00  0.00    -0.152 NA
ATOM      3  N   UNL     1      -3.994  -0.593   0.182  0.00  0.00    -0.253 N 
ATOM      4  H   UNL     1      -4.386  -1.468   0.327  0.00  0.00    +0.191 HD
ATOM      5  C   UNL     1      -4.656   0.532  -0.158  0.00  0.00    +0.197 A 
ATOM      6  S   UNL     1      -6.344   0.672  -0.411  0.00  0.00    -0.010 S 
ATOM      7  N   UNL     1      -3.752   1.526  -0.257  0.00  0.00    -0.188 N 
ENDROOT
BRANCH   1  11
ATOM      8  C   UNL     1       1.153   3.172   0.008  0.00  0.00    +0.029 A 
ATOM      9  C   UNL     1       1.171   1.782   0.000  0.00  0.00    +0.024 A 
ATOM     10  C   UNL     1      -0.013   1.076   0.008  0.00  0.00    +0.013 A 
ATOM     11  C   UNL     1      -1.230   1.758   0.017  0.00  0.00    +0.021 A 
ATOM     12  C   UNL     1      -1.245   3.154   0.030  0.00  0.00    +0.013 A 
ATOM     13  C   UNL     1      -0.059   3.854   0.023  0.00  0.00    +0.024 A 
BRANCH   8  15
ATOM     14  C   UNL     1       3.630   3.167  -0.017  0.00  0.00    +0.129 C 
ATOM     15  N   UNL     1       2.353   3.884   0.000  0.00  0.00    -0.336 N 
ATOM     16  C   UNL     1       2.335   5.349   0.008  0.00  0.00    +0.129 C 
ENDBRANCH   8  15
ENDBRANCH   1  11
BRANCH   7  17
ATOM     17  N   UNL     1      -4.029   2.859  -0.587  0.00  0.00    -0.170 NA
ATOM     18  C   UNL     1      -4.018   3.236  -1.829  0.00  0.00    +0.144 C 
BRANCH  18  19
ATOM     19  C   UNL     1      -4.310   4.639  -2.176  0.00  0.00    +0.031 A 
ATOM     20  C   UNL     1      -4.606   5.564  -1.171  0.00  0.00    +0.051 A 
ATOM     21  C   UNL     1      -4.872   6.877  -1.503  0.00  0.00    +0.021 A 
ATOM     22  C   UNL     1      -4.859   7.276  -2.828  0.00  0.00    +0.003 A 
ATOM     23  C   UNL     1      -4.573   6.364  -3.829  0.00  0.00    +0.021 A 
ATOM     24  C   UNL     1      -4.298   5.049  -3.512  0.00  0.00    +0.051 A 
ATOM     25 CL   UNL     1      -3.940   3.907  -4.770  0.00  0.00    -0.083 Cl
ATOM     26 CL   UNL     1      -4.630   5.065   0.492  0.00  0.00    -0.083 Cl
ENDBRANCH  18  19
ENDBRANCH   7  17
TORSDOF 4
