REMARK  Name = ZINC01897991
REMARK  12 active torsions:
REMARK  status: ('A' for Active; 'I' for Inactive)
REMARK    1  A    between atoms: C_1  and  C_2
REMARK    2  A    between atoms: C_2  and  C_3
REMARK    3  A    between atoms: C_3  and  C_4
REMARK    4  A    between atoms: C_4  and  C_5
REMARK    5  A    between atoms: C_5  and  C_6
REMARK    6  A    between atoms: C_6  and  C_7
REMARK    7  A    between atoms: C_7  and  O_8
REMARK    8  A    between atoms: O_8  and  C_9
REMARK    9  A    between atoms: C_9  and  C_11
REMARK   10  A    between atoms: N_22  and  C_25
REMARK   11  A    between atoms: C_23  and  N_24
REMARK   12  A    between atoms: C_29  and  N_31
REMARK                            x       y       z     vdW  Elec       q    Type
REMARK                         _______ _______ _______ _____ _____    ______ ____
ROOT
ATOM      1  C   UNL     1       2.959  -8.037   4.784  0.00  0.00    +0.126 A 
ATOM      2  C   UNL     1       4.013  -8.899   4.225  0.00  0.00    +0.125 A 
ATOM      3  C   UNL     1       3.607 -10.270   4.548  0.00  0.00    +0.167 A 
ATOM      4  N   UNL     1       4.366 -11.276   4.169  0.00  0.00    -0.225 NA
ATOM      5  C   UNL     1       5.498 -11.040   3.494  0.00  0.00    +0.092 A 
ATOM      6  C   UNL     1       6.316 -12.110   3.085  0.00  0.00    +0.030 A 
ATOM      7  C   UNL     1       7.464 -11.861   2.399  0.00  0.00    +0.002 A 
ATOM      8  C   UNL     1       7.848 -10.557   2.093  0.00  0.00    +0.002 A 
ATOM      9  C   UNL     1       7.085  -9.497   2.472  0.00  0.00    +0.030 A 
ATOM     10  C   UNL     1       5.889  -9.714   3.182  0.00  0.00    +0.090 A 
ATOM     11  N   UNL     1       5.130  -8.678   3.561  0.00  0.00    -0.241 NA
ATOM     12  N   UNL     1       2.413 -10.185   5.238  0.00  0.00    -0.280 N 
ATOM     13  C   UNL     1       2.033  -8.885   5.384  0.00  0.00    +0.119 A 
ENDROOT
BRANCH  12  14
ATOM     14  C   UNL     1       1.695 -11.285   5.726  0.00  0.00    +0.052 A 
ATOM     15  C   UNL     1       1.150 -12.207   4.843  0.00  0.00    +0.028 A 
ATOM     16  C   UNL     1       0.443 -13.290   5.326  0.00  0.00    +0.024 A 
ATOM     17  C   UNL     1       0.278 -13.457   6.690  0.00  0.00    +0.071 A 
ATOM     18  C   UNL     1       0.820 -12.540   7.573  0.00  0.00    +0.146 A 
ATOM     19  C   UNL     1       1.533 -11.457   7.094  0.00  0.00    +0.060 A 
ATOM     20 CL   UNL     1      -0.611 -14.820   7.295  0.00  0.00    -0.081 Cl
BRANCH  18  21
ATOM     21  N   UNL     1       0.641 -12.721   9.031  0.00  0.00    +0.058 N 
ATOM     22  O   UNL     1       1.114 -11.919   9.802  0.00  0.00    -0.126 OA
ATOM     23  O   UNL     1       0.021 -13.670   9.450  0.00  0.00    -0.126 OA
ENDBRANCH  18  21
ENDBRANCH  12  14
BRANCH  13  24
ATOM     24  N   UNL     1       0.896  -8.470   6.027  0.00  0.00    -0.343 N 
ATOM     25  H   UNL     1       0.690  -7.524   6.088  0.00  0.00    +0.144 HD
ATOM     26  H   UNL     1       0.297  -9.123   6.423  0.00  0.00    +0.144 HD
ENDBRANCH  13  24
BRANCH   1  27
ATOM     27  C   UNL     1       2.902  -6.623   4.728  0.00  0.00    +0.345 C 
ATOM     28  O   UNL     1       3.412  -5.958   5.611  0.00  0.00    -0.245 OA
BRANCH  27  29
ATOM     29  O   UNL     1       2.283  -6.013   3.696  0.00  0.00    -0.461 OA
BRANCH  29  30
ATOM     30  C   UNL     1       2.264  -4.584   3.704  0.00  0.00    +0.232 C 
BRANCH  30  31
ATOM     31  C   UNL     1       1.524  -4.077   2.464  0.00  0.00    +0.041 C 
BRANCH  31  32
ATOM     32  C   UNL     1       1.503  -2.548   2.473  0.00  0.00    +0.003 C 
BRANCH  32  33
ATOM     33  C   UNL     1       0.763  -2.041   1.233  0.00  0.00    +0.000 C 
BRANCH  33  34
ATOM     34  C   UNL     1       0.742  -0.511   1.242  0.00  0.00    -0.000 C 
BRANCH  34  36
ATOM     35  C   UNL     1      -0.019   1.526   0.010  0.00  0.00    +0.004 C 
ATOM     36  C   UNL     1       0.002  -0.004   0.002  0.00  0.00    -0.003 C 
ENDBRANCH  34  36
ENDBRANCH  33  34
ENDBRANCH  32  33
ENDBRANCH  31  32
ENDBRANCH  30  31
ENDBRANCH  29  30
ENDBRANCH  27  29
ENDBRANCH   1  27
TORSDOF 11
