REMARK  Name = ZINC22472776
REMARK  7 active torsions:
REMARK  status: ('A' for Active; 'I' for Inactive)
REMARK    1  A    between atoms: C_1  and  N_2
REMARK    2  A    between atoms: N_2  and  C_3
REMARK    3  A    between atoms: C_3  and  C_4
REMARK    4  A    between atoms: C_4  and  C_5
REMARK    5  A    between atoms: C_5  and  N_6
REMARK    6  A    between atoms: C_9  and  O_10
REMARK    7  A    between atoms: C_18  and  C_20
REMARK                            x       y       z     vdW  Elec       q    Type
REMARK                         _______ _______ _______ _____ _____    ______ ____
ROOT
ATOM      1  C   UNL     1      -2.262   1.566   0.358  0.00  0.00    +0.114 C 
ENDROOT
BRANCH   1   2
ATOM      2  N   UNL     1      -1.024   2.235   0.766  0.00  0.00    -0.384 N 
ATOM      3  C   UNL     1       0.163   1.535   0.785  0.00  0.00    +0.053 A 
ATOM      4  C   UNL     1       0.209   0.213   0.425  0.00  0.00    +0.113 A 
ATOM      5  C   UNL     1       1.431  -0.470   0.449  0.00  0.00    +0.286 A 
ATOM      6  O   UNL     1       2.574   0.132   0.816  0.00  0.00    -0.425 OA
ATOM      7  C   UNL     1       2.606   1.432   1.182  0.00  0.00    +0.141 A 
ATOM      8  C   UNL     1       1.421   2.186   1.185  0.00  0.00    +0.041 A 
ATOM      9  C   UNL     1       1.450   3.529   1.562  0.00  0.00    +0.013 A 
ATOM     10  C   UNL     1       2.644   4.108   1.931  0.00  0.00    +0.001 A 
ATOM     11  C   UNL     1       3.813   3.363   1.927  0.00  0.00    +0.004 A 
ATOM     12  C   UNL     1       3.799   2.034   1.558  0.00  0.00    +0.047 A 
ATOM     13  H   UNL     1      -1.041   3.295   1.058  0.00  0.00    +0.160 HD
BRANCH   5  14
ATOM     14  O   UNL     1       1.459  -1.646   0.127  0.00  0.00    -0.480 OA
ATOM     15  H   UNL     1       2.411  -2.197   0.140  0.00  0.00    +0.295 HD
ENDBRANCH   5  14
ENDBRANCH   1   2
BRANCH   1  16
ATOM     16  C   UNL     1      -3.424   2.560   0.426  0.00  0.00    +0.040 C 
BRANCH  16  17
ATOM     17  C   UNL     1      -4.717   1.862   0.000  0.00  0.00    +0.109 C 
BRANCH  17  19
ATOM     18  C   UNL     1      -6.169   3.623  -1.107  0.00  0.00    +0.132 C 
ATOM     19  N   UNL     1      -5.829   2.813   0.065  0.00  0.00    -0.300 N 
ATOM     20  C   UNL     1      -6.540   2.942   1.203  0.00  0.00    +0.248 C 
ATOM     21  O   UNL     1      -6.199   2.342   2.204  0.00  0.00    -0.270 OA
BRANCH  20  22
ATOM     22  C   UNL     1      -7.733   3.813   1.234  0.00  0.00    +0.055 A 
ATOM     23  C   UNL     1      -8.404   4.125   0.049  0.00  0.00    +0.016 A 
ATOM     24  C   UNL     1      -9.516   4.938   0.085  0.00  0.00    +0.021 A 
ATOM     25  C   UNL     1      -9.970   5.445   1.292  0.00  0.00    +0.042 A 
ATOM     26  C   UNL     1      -9.311   5.140   2.470  0.00  0.00    +0.040 A 
ATOM     27  C   UNL     1      -8.198   4.323   2.449  0.00  0.00    +0.054 A 
ATOM     28 CL   UNL     1      -7.375   3.934   3.928  0.00  0.00    -0.083 Cl
ATOM     29 CL   UNL     1     -11.373   6.468   1.326  0.00  0.00    -0.083 Cl
ENDBRANCH  20  22
ENDBRANCH  17  19
ENDBRANCH  16  17
ENDBRANCH   1  16
TORSDOF 6
