REMARK  Name = ZINC39888462
REMARK  6 active torsions:
REMARK  status: ('A' for Active; 'I' for Inactive)
REMARK    1  A    between atoms: C_5  and  C_7
REMARK    2  A    between atoms: C_10  and  C_12
REMARK    3  A    between atoms: N_13  and  N_14
REMARK    4  A    between atoms: C_19  and  C_22
REMARK    5  A    between atoms: C_22  and  C_23
REMARK    6  A    between atoms: C_27  and  C_29
REMARK                            x       y       z     vdW  Elec       q    Type
REMARK                         _______ _______ _______ _____ _____    ______ ____
ROOT
ATOM      1  N   UNL     1       3.675  -6.141  -2.868  0.00  0.00    -0.127 NA
ATOM      2  C   UNL     1       4.505  -5.942  -3.871  0.00  0.00    +0.183 C 
ATOM      3  N   UNL     1       4.932  -4.741  -4.397  0.00  0.00    -0.263 N 
ATOM      4  C   UNL     1       5.776  -4.671  -5.412  0.00  0.00    +0.232 C 
ATOM      5  O   UNL     1       6.148  -3.611  -5.870  0.00  0.00    -0.274 OA
ATOM      6  C   UNL     1       6.251  -6.003  -5.971  0.00  0.00    +0.144 C 
ATOM      7  S   UNL     1       5.349  -7.164  -4.864  0.00  0.00    -0.075 S 
ATOM      8  H   UNL     1       4.602  -3.916  -4.007  0.00  0.00    +0.157 HD
ENDROOT
BRANCH   1  10
ATOM      9  C   UNL     1       2.324  -5.332  -1.258  0.00  0.00    +0.181 C 
ATOM     10  N   UNL     1       3.150  -5.134  -2.255  0.00  0.00    -0.152 NA
BRANCH   9  14
ATOM     11  C   UNL     1       1.251  -2.158  -0.022  0.00  0.00    +0.137 A 
ATOM     12  C   UNL     1       0.558  -2.971   0.826  0.00  0.00    +0.050 A 
ATOM     13  C   UNL     1       0.868  -4.292   0.475  0.00  0.00    +0.051 A 
ATOM     14  C   UNL     1       1.748  -4.226  -0.585  0.00  0.00    +0.148 A 
ATOM     15  O   UNL     1       1.961  -2.925  -0.872  0.00  0.00    -0.454 OA
BRANCH  11  20
ATOM     16  C   UNL     1      -0.017   1.375   0.010  0.00  0.00    +0.001 A 
ATOM     17  C   UNL     1       1.170   2.087   0.002  0.00  0.00    +0.001 A 
ATOM     18  C   UNL     1       2.384   1.423  -0.013  0.00  0.00    +0.021 A 
ATOM     19  C   UNL     1       2.418   0.042  -0.021  0.00  0.00    +0.052 A 
ATOM     20  C   UNL     1       1.223  -0.683  -0.013  0.00  0.00    +0.036 A 
ATOM     21  C   UNL     1       0.002  -0.004   0.002  0.00  0.00    +0.013 A 
ATOM     22 CL   UNL     1       3.942  -0.790  -0.041  0.00  0.00    -0.083 Cl
ENDBRANCH  11  20
ENDBRANCH   9  14
ENDBRANCH   1  10
BRANCH   6  23
ATOM     23  C   UNL     1       7.765  -6.160  -5.818  0.00  0.00    +0.059 C 
BRANCH  23  24
ATOM     24  C   UNL     1       8.208  -7.433  -6.492  0.00  0.00    -0.045 A 
ATOM     25  C   UNL     1       8.240  -8.617  -5.779  0.00  0.00    +0.005 A 
ATOM     26  C   UNL     1       8.647  -9.785  -6.396  0.00  0.00    +0.021 A 
ATOM     27  C   UNL     1       9.022  -9.769  -7.728  0.00  0.00    +0.053 A 
ATOM     28  C   UNL     1       8.989  -8.584  -8.441  0.00  0.00    +0.073 A 
ATOM     29  C   UNL     1       8.577  -7.418  -7.824  0.00  0.00    +0.017 A 
ATOM     30 CL   UNL     1       9.534 -11.235  -8.504  0.00  0.00    -0.083 Cl
BRANCH  28  31
ATOM     31  C   UNL     1       9.398  -8.565  -9.891  0.00  0.00    +0.419 C 
ATOM     32  F   UNL     1       9.282  -7.264 -10.392  0.00  0.00    -0.166 F 
ATOM     33  F   UNL     1      10.725  -8.993 -10.008  0.00  0.00    -0.166 F 
ATOM     34  F   UNL     1       8.566  -9.422 -10.621  0.00  0.00    -0.166 F 
ENDBRANCH  28  31
ENDBRANCH  23  24
ENDBRANCH   6  23
TORSDOF 6
