REMARK  Name = ZINC04436473
REMARK  8 active torsions:
REMARK  status: ('A' for Active; 'I' for Inactive)
REMARK    1  A    between atoms: C_1  and  C_2
REMARK    2  A    between atoms: C_5  and  C_9
REMARK    3  A    between atoms: C_6  and  C_8
REMARK    4  A    between atoms: C_11  and  C_22
REMARK    5  A    between atoms: C_12  and  C_17
REMARK    6  A    between atoms: C_17  and  N_50
REMARK    7  A    between atoms: C_22  and  O_24
REMARK    8  A    between atoms: O_24  and  C_25
REMARK                            x       y       z     vdW  Elec       q    Type
REMARK                         _______ _______ _______ _____ _____    ______ ____
ROOT
ATOM      1  C   UNL     1       2.158   4.753  -0.409  0.00  0.00    +0.144 C 
ATOM      2  C   UNL     1       2.836   4.551  -1.749  0.00  0.00    +0.076 C 
ATOM      3  C   UNL     1       3.239   5.649  -2.422  0.00  0.00    +0.008 C 
ATOM      4  N   UNL     1       3.041   6.900  -1.912  0.00  0.00    -0.274 N 
ATOM      5  C   UNL     1       2.448   7.137  -0.735  0.00  0.00    +0.304 C 
ATOM      6  O   UNL     1       2.316   8.287  -0.364  0.00  0.00    -0.252 OA
ATOM      7  N   UNL     1       1.993   6.142   0.052  0.00  0.00    -0.288 N 
ATOM      8  H   UNL     1       3.347   7.660  -2.431  0.00  0.00    +0.156 HD
ATOM      9  H   UNL     1       1.566   6.335   0.901  0.00  0.00    +0.151 HD
ENDROOT
BRANCH   1  14
ATOM     10  C   UNL     1      -3.076   2.318  -0.680  0.00  0.00    +0.044 C 
ATOM     11  C   UNL     1      -1.712   2.956  -0.609  0.00  0.00    -0.050 A 
ATOM     12  C   UNL     1      -1.102   3.413  -1.762  0.00  0.00    +0.004 A 
ATOM     13  C   UNL     1       0.151   3.993  -1.698  0.00  0.00    +0.006 A 
ATOM     14  C   UNL     1       0.792   4.121  -0.479  0.00  0.00    -0.020 A 
ATOM     15  C   UNL     1       0.179   3.669   0.674  0.00  0.00    -0.045 A 
ATOM     16  C   UNL     1      -1.074   3.089   0.610  0.00  0.00    +0.007 A 
ATOM     17  C   UNL     1       0.877   3.809   2.003  0.00  0.00    +0.044 C 
ENDBRANCH   1  14
BRANCH   2  18
ATOM     18  C   UNL     1       3.040   3.255  -2.277  0.00  0.00    +0.338 C 
ATOM     19  O   UNL     1       3.937   2.556  -1.844  0.00  0.00    -0.245 OA
BRANCH  18  20
ATOM     20  O   UNL     1       2.240   2.793  -3.261  0.00  0.00    -0.465 OA
ATOM     21  C   UNL     1       2.433   1.438  -3.672  0.00  0.00    +0.280 C 
ENDBRANCH  18  20
ENDBRANCH   2  18
BRANCH   3  22
ATOM     22  C   UNL     1       3.919   5.492  -3.758  0.00  0.00    -0.026 C 
BRANCH  22  27
ATOM     23  C   UNL     1       6.056   5.228  -2.622  0.00  0.00    -0.078 C 
ATOM     24  C   UNL     1       7.536   5.468  -3.013  0.00  0.00    -0.020 C 
ATOM     25  C   UNL     1       7.494   5.434  -4.558  0.00  0.00    -0.020 C 
ATOM     26  C   UNL     1       6.033   5.746  -4.929  0.00  0.00    -0.078 C 
ATOM     27  N   UNL     1       5.331   5.971  -3.664  0.00  0.00    +0.383 N 
ATOM     28  H   UNL     1       5.332   6.973  -3.440  0.00  0.00    -0.081 HD
ENDBRANCH  22  27
ENDBRANCH   3  22
TORSDOF 5
