REMARK  Name = ZINC34749414
REMARK  8 active torsions:
REMARK  status: ('A' for Active; 'I' for Inactive)
REMARK    1  A    between atoms: C_1  and  C_2
REMARK    2  A    between atoms: C_2  and  C_3
REMARK    3  A    between atoms: C_4  and  C_37
REMARK    4  A    between atoms: N_10  and  C_27
REMARK    5  A    between atoms: N_16  and  C_19
REMARK    6  A    between atoms: C_19  and  C_20
REMARK    7  A    between atoms: C_27  and  C_28
REMARK    8  A    between atoms: N_30  and  C_31
REMARK                            x       y       z     vdW  Elec       q    Type
REMARK                         _______ _______ _______ _____ _____    ______ ____
ROOT
ATOM      1  C   UNL     1      -1.468  -0.471   0.035  0.00  0.00    -0.023 A 
ATOM      2  C   UNL     1      -2.140  -0.632   1.185  0.00  0.00    -0.007 A 
ATOM      3  S   UNL     1      -3.747  -1.190   0.651  0.00  0.00    -0.073 S 
ATOM      4  C   UNL     1      -3.469  -1.192  -1.102  0.00  0.00    +0.117 A 
ATOM      5  C   UNL     1      -2.138  -0.752  -1.223  0.00  0.00    +0.076 A 
ATOM      6  C   UNL     1      -1.635  -0.651  -2.558  0.00  0.00    +0.264 A 
ATOM      7  O   UNL     1      -0.491  -0.283  -2.761  0.00  0.00    -0.267 OA
ATOM      8  N   UNL     1      -2.442  -0.967  -3.588  0.00  0.00    -0.271 N 
ATOM      9  C   UNL     1      -3.725  -1.380  -3.380  0.00  0.00    +0.202 A 
ATOM     10  N   UNL     1      -4.211  -1.492  -2.161  0.00  0.00    -0.208 NA
ATOM     11  N   UNL     1      -4.518  -1.693  -4.456  0.00  0.00    -0.304 N 
ATOM     12  C   UNL     1      -4.570  -3.066  -4.983  0.00  0.00    +0.089 C 
ATOM     13  C   UNL     1      -6.040  -3.481  -5.111  0.00  0.00    -0.059 C 
ATOM     14  N   UNL     1      -6.758  -2.492  -5.924  0.00  0.00    +0.387 N 
ATOM     15  C   UNL     1      -6.773  -1.195  -5.236  0.00  0.00    -0.059 C 
ATOM     16  C   UNL     1      -5.344  -0.667  -5.111  0.00  0.00    +0.089 C 
ATOM     17  C   UNL     1      -1.653  -0.397   2.592  0.00  0.00    +0.052 C 
ATOM     18  H   UNL     1      -6.297  -2.393  -6.816  0.00  0.00    -0.081 HD
ENDROOT
BRANCH   1  20
ATOM     19  C   UNL     1      -0.005   1.530  -0.013  0.00  0.00    +0.009 C 
ATOM     20  C   UNL     1      -0.037   0.002   0.049  0.00  0.00    +0.033 C 
ENDBRANCH   1  20
BRANCH  14  21
ATOM     21  C   UNL     1      -8.138  -2.946  -6.138  0.00  0.00    +0.019 C 
BRANCH  21  22
ATOM     22  C   UNL     1      -8.841  -1.996  -7.073  0.00  0.00    +0.199 C 
ATOM     23  O   UNL     1      -8.250  -1.034  -7.517  0.00  0.00    -0.278 OA
ATOM     24  N   UNL     1     -10.126  -2.214  -7.415  0.00  0.00    -0.303 N 
ATOM     25  C   UNL     1     -10.960  -3.331  -6.948  0.00  0.00    +0.108 C 
ATOM     26  C   UNL     1     -12.341  -3.184  -7.620  0.00  0.00    +0.020 C 
ATOM     27  C   UNL     1     -12.031  -2.313  -8.866  0.00  0.00    +0.020 C 
ATOM     28  C   UNL     1     -10.931  -1.368  -8.316  0.00  0.00    +0.108 C 
ENDBRANCH  21  22
ENDBRANCH  14  21
BRANCH   8  29
ATOM     29  C   UNL     1      -1.933  -0.865  -4.958  0.00  0.00    +0.223 C 
BRANCH  29  30
ATOM     30  C   UNL     1      -1.232  -2.146  -5.330  0.00  0.00    +0.233 C 
ATOM     31  O   UNL     1      -1.164  -3.055  -4.529  0.00  0.00    -0.274 OA
ATOM     32  N   UNL     1      -0.680  -2.282  -6.552  0.00  0.00    -0.311 N 
ATOM     33  H   UNL     1      -0.734  -1.555  -7.192  0.00  0.00    +0.149 HD
BRANCH  32  34
ATOM     34  C   UNL     1       0.002  -3.527  -6.913  0.00  0.00    +0.073 C 
ATOM     35  C   UNL     1      -1.024  -4.540  -7.425  0.00  0.00    +0.022 C 
ATOM     36  C   UNL     1      -0.312  -5.841  -7.803  0.00  0.00    +0.002 C 
ATOM     37  C   UNL     1       0.717  -5.559  -8.899  0.00  0.00    +0.000 C 
ATOM     38  C   UNL     1       1.743  -4.546  -8.387  0.00  0.00    +0.002 C 
ATOM     39  C   UNL     1       1.031  -3.246  -8.010  0.00  0.00    +0.022 C 
ENDBRANCH  32  34
ENDBRANCH  29  30
ENDBRANCH   8  29
TORSDOF 6
