REMARK  Name = ZINC64031845
REMARK  4 active torsions:
REMARK  status: ('A' for Active; 'I' for Inactive)
REMARK    1  A    between atoms: C_1  and  C_2
REMARK    2  A    between atoms: N_23  and  C_24
REMARK    3  A    between atoms: C_24  and  C_25
REMARK    4  A    between atoms: C_25  and  C_26
REMARK                            x       y       z     vdW  Elec       q    Type
REMARK                         _______ _______ _______ _____ _____    ______ ____
ROOT
ATOM      1  C   UNL     1      -0.019   1.526   0.010  0.00  0.00    +0.033 C 
ATOM      2  C   UNL     1       0.002  -0.004   0.002  0.00  0.00    +0.110 C 
ATOM      3  C   UNL     1       0.701  -0.487  -1.240  0.00  0.00    +0.060 A 
ATOM      4  C   UNL     1       1.956  -0.997  -1.250  0.00  0.00    +0.052 A 
ATOM      5  N   UNL     1       2.276  -1.331  -2.529  0.00  0.00    -0.292 N 
ATOM      6  H   UNL     1       3.115  -1.718  -2.823  0.00  0.00    +0.187 HD
ATOM      7  N   UNL     1       1.180  -1.018  -3.348  0.00  0.00    -0.194 N 
ATOM      8  C   UNL     1       0.212  -0.500  -2.561  0.00  0.00    +0.279 A 
ATOM      9  O   UNL     1      -0.883  -0.115  -2.927  0.00  0.00    -0.265 OA
ATOM     10  C   UNL     1       1.105  -1.207  -4.717  0.00  0.00    +0.196 A 
ATOM     11  N   UNL     1       0.114  -0.930  -5.533  0.00  0.00    -0.221 NA
ATOM     12  C   UNL     1       0.179  -1.170  -6.861  0.00  0.00    +0.081 A 
ATOM     13  C   UNL     1      -0.808  -0.921  -7.842  0.00  0.00    +0.029 A 
ATOM     14  C   UNL     1      -0.580  -1.227  -9.158  0.00  0.00    +0.002 A 
ATOM     15  C   UNL     1       0.619  -1.788  -9.575  0.00  0.00    +0.001 A 
ATOM     16  C   UNL     1       1.606  -2.045  -8.642  0.00  0.00    +0.017 A 
ATOM     17  C   UNL     1       1.387  -1.742  -7.322  0.00  0.00    +0.041 A 
ATOM     18  S   UNL     1       2.334  -1.883  -5.825  0.00  0.00    -0.048 S 
ATOM     19  C   UNL     1       2.801  -1.142  -0.011  0.00  0.00    +0.151 C 
ATOM     20  C   UNL     1       1.932  -0.985   1.204  0.00  0.00    +0.222 C 
ATOM     21  O   UNL     1       2.385  -1.339   2.272  0.00  0.00    -0.275 OA
ATOM     22  N   UNL     1       0.702  -0.484   1.187  0.00  0.00    -0.294 N 
ENDROOT
BRANCH  22  23
ATOM     23  C   UNL     1      -0.009  -0.409   2.466  0.00  0.00    +0.113 C 
BRANCH  23  24
ATOM     24  C   UNL     1      -0.791  -1.705   2.692  0.00  0.00    +0.052 C 
BRANCH  24  25
ATOM     25  C   UNL     1      -1.522  -1.627   4.007  0.00  0.00    -0.040 C 
ATOM     26  C   UNL     1      -2.805  -1.249   4.203  0.00  0.00    +0.000 A 
ATOM     27  C   UNL     1      -3.864  -0.812   3.285  0.00  0.00    +0.030 A 
ATOM     28  C   UNL     1      -5.078  -0.490   3.790  0.00  0.00    +0.042 A 
ATOM     29  C   UNL     1      -5.348  -0.563   5.165  0.00  0.00    +0.022 A 
ATOM     30  C   UNL     1      -4.426  -0.956   6.069  0.00  0.00    +0.027 A 
ATOM     31  C   UNL     1      -3.116  -1.318   5.649  0.00  0.00    +0.043 A 
ATOM     32  N   UNL     1      -2.066  -1.723   6.321  0.00  0.00    -0.380 N 
ATOM     33  C   UNL     1      -0.970  -1.964   5.375  0.00  0.00    +0.144 C 
ATOM     34 CL   UNL     1      -6.333   0.027   2.708  0.00  0.00    -0.084 Cl
ATOM     35  H   UNL     1      -2.022  -1.847   7.282  0.00  0.00    +0.160 HD
ENDBRANCH  24  25
ENDBRANCH  23  24
ENDBRANCH  22  23
TORSDOF 3
