REMARK  Name = ZINC38944989
REMARK  8 active torsions:
REMARK  status: ('A' for Active; 'I' for Inactive)
REMARK    1  A    between atoms: C_1  and  C_2
REMARK    2  A    between atoms: C_2  and  C_3
REMARK    3  A    between atoms: C_3  and  S_4
REMARK    4  A    between atoms: S_4  and  N_7
REMARK    5  A    between atoms: C_13  and  N_17
REMARK    6  A    between atoms: C_18  and  C_20
REMARK    7  A    between atoms: C_21  and  C_22
REMARK    8  A    between atoms: C_25  and  N_28
REMARK                            x       y       z     vdW  Elec       q    Type
REMARK                         _______ _______ _______ _____ _____    ______ ____
ROOT
ATOM      1  N   UNL     1      -3.006  -2.775   0.027  0.00  0.00    -0.177 NA
ATOM      2  C   UNL     1      -3.734  -2.973   1.292  0.00  0.00    +0.114 C 
ATOM      3  C   UNL     1      -4.840  -1.921   1.366  0.00  0.00    +0.052 C 
ATOM      4  C   UNL     1      -5.609  -1.859   0.073  0.00  0.00    -0.042 A 
ATOM      5  C   UNL     1      -6.878  -1.292   0.105  0.00  0.00    +0.006 A 
ATOM      6  C   UNL     1      -7.635  -1.194  -1.042  0.00  0.00    +0.023 A 
ATOM      7  C   UNL     1      -7.125  -1.664  -2.246  0.00  0.00    +0.034 A 
ATOM      8  C   UNL     1      -5.861  -2.233  -2.278  0.00  0.00    +0.028 A 
ATOM      9  C   UNL     1      -5.106  -2.334  -1.119  0.00  0.00    -0.027 A 
ATOM     10  C   UNL     1      -3.752  -2.982  -1.219  0.00  0.00    +0.144 C 
ENDROOT
BRANCH   7  11
ATOM     11  N   UNL     1      -7.882  -1.564  -3.417  0.00  0.00    -0.282 N 
ATOM     12  C   UNL     1      -9.221  -1.705  -3.368  0.00  0.00    +0.241 C 
ATOM     13  O   UNL     1      -9.781  -1.834  -2.295  0.00  0.00    -0.270 OA
ATOM     14  H   UNL     1      -7.443  -1.394  -4.265  0.00  0.00    +0.155 HD
BRANCH  12  15
ATOM     15  C   UNL     1     -10.003  -1.702  -4.606  0.00  0.00    +0.068 C 
ATOM     16  C   UNL     1     -11.343  -1.842  -4.557  0.00  0.00    +0.013 C 
BRANCH  16  17
ATOM     17  C   UNL     1     -12.130  -1.839  -5.801  0.00  0.00    -0.025 A 
ATOM     18  C   UNL     1     -11.490  -1.696  -7.036  0.00  0.00    +0.010 A 
ATOM     19  C   UNL     1     -12.234  -1.695  -8.197  0.00  0.00    +0.033 A 
ATOM     20  C   UNL     1     -13.610  -1.833  -8.143  0.00  0.00    +0.126 A 
ATOM     21  C   UNL     1     -14.250  -1.975  -6.924  0.00  0.00    +0.033 A 
ATOM     22  C   UNL     1     -13.520  -1.985  -5.754  0.00  0.00    +0.010 A 
BRANCH  20  23
ATOM     23  N   UNL     1     -14.400  -1.830  -9.394  0.00  0.00    +0.056 N 
ATOM     24  O   UNL     1     -13.844  -1.706 -10.460  0.00  0.00    -0.126 OA
ATOM     25  O   UNL     1     -15.602  -1.951  -9.349  0.00  0.00    -0.126 OA
ENDBRANCH  20  23
ENDBRANCH  16  17
ENDBRANCH  12  15
ENDBRANCH   7  11
BRANCH   1  26
ATOM     26  S   UNL     1      -1.411  -2.329   0.012  0.00  0.00    +0.032 S 
ATOM     27  O   UNL     1      -0.911  -2.814  -1.226  0.00  0.00    -0.158 OA
ATOM     28  O   UNL     1      -0.889  -2.809   1.243  0.00  0.00    -0.158 OA
BRANCH  26  29
ATOM     29  C   UNL     1      -1.434  -0.515   0.009  0.00  0.00    +0.185 C 
BRANCH  29  31
ATOM     30  C   UNL     1      -0.018   1.544  -0.007  0.00  0.00    +0.005 C 
ATOM     31  C   UNL     1       0.001   0.014  -0.004  0.00  0.00    +0.021 C 
ENDBRANCH  29  31
ENDBRANCH  26  29
ENDBRANCH   1  26
TORSDOF 7
