REMARK  Name = ZINC64746058
REMARK  8 active torsions:
REMARK  status: ('A' for Active; 'I' for Inactive)
REMARK    1  A    between atoms: C_1  and  C_2
REMARK    2  A    between atoms: C_2  and  N_3
REMARK    3  A    between atoms: C_12  and  N_26
REMARK    4  A    between atoms: C_13  and  C_17
REMARK    5  A    between atoms: C_20  and  C_23
REMARK    6  A    between atoms: C_23  and  C_24
REMARK    7  A    between atoms: C_23  and  C_25
REMARK    8  A    between atoms: N_26  and  C_27
REMARK                            x       y       z     vdW  Elec       q    Type
REMARK                         _______ _______ _______ _____ _____    ______ ____
ROOT
ATOM      1  N   UNL     1      -1.376  -0.512   0.012  0.00  0.00    +0.382 N 
ATOM      2  C   UNL     1      -2.028  -0.130   1.271  0.00  0.00    -0.060 C 
ATOM      3  C   UNL     1      -3.498  -0.559   1.236  0.00  0.00    +0.088 C 
ATOM      4  N   UNL     1      -3.556  -1.998   0.935  0.00  0.00    -0.312 N 
ATOM      5  C   UNL     1      -2.794  -2.496  -0.221  0.00  0.00    +0.088 C 
ATOM      6  C   UNL     1      -1.357  -1.975  -0.116  0.00  0.00    -0.060 C 
ATOM      7  C   UNL     1      -4.307  -2.860   1.718  0.00  0.00    +0.184 A 
ATOM      8  N   UNL     1      -4.464  -4.150   1.599  0.00  0.00    -0.140 NA
ATOM      9  N   UNL     1      -5.262  -4.867   2.484  0.00  0.00    -0.190 N 
ATOM     10  C   UNL     1      -5.665  -6.178   2.688  0.00  0.00    +0.150 A 
ATOM     11  C   UNL     1      -6.482  -6.194   3.778  0.00  0.00    +0.114 A 
ATOM     12  N   UNL     1      -6.584  -4.920   4.239  0.00  0.00    -0.218 NA
ATOM     13  C   UNL     1      -5.869  -4.144   3.481  0.00  0.00    +0.199 A 
ATOM     14  S   UNL     1      -5.301  -2.491   3.155  0.00  0.00    -0.013 S 
ATOM     15  H   UNL     1      -1.886  -0.115  -0.762  0.00  0.00    -0.082 HD
ENDROOT
BRANCH  11  16
ATOM     16  C   UNL     1      -7.142  -7.386   4.357  0.00  0.00    +0.004 A 
ATOM     17  C   UNL     1      -7.585  -8.415   3.524  0.00  0.00    +0.010 A 
ATOM     18  C   UNL     1      -8.199  -9.524   4.070  0.00  0.00    +0.004 A 
ATOM     19  C   UNL     1      -8.376  -9.617   5.439  0.00  0.00    -0.045 A 
ATOM     20  C   UNL     1      -7.939  -8.600   6.269  0.00  0.00    +0.004 A 
ATOM     21  C   UNL     1      -7.319  -7.489   5.737  0.00  0.00    +0.010 A 
BRANCH  19  22
ATOM     22  C   UNL     1      -9.048 -10.830   6.028  0.00  0.00    +0.013 C 
ATOM     23  C   UNL     1      -8.088 -11.527   6.994  0.00  0.00    +0.012 C 
ATOM     24  C   UNL     1     -10.308 -10.400   6.782  0.00  0.00    +0.012 C 
ENDBRANCH  19  22
ENDBRANCH  11  16
BRANCH   1  26
ATOM     25  C   UNL     1      -0.019   1.526   0.010  0.00  0.00    -0.017 C 
ATOM     26  C   UNL     1       0.002  -0.004   0.002  0.00  0.00    -0.082 C 
ENDBRANCH   1  26
BRANCH  10  27
ATOM     27  N   UNL     1      -5.298  -7.284   1.915  0.00  0.00    -0.324 N 
ATOM     28  H   UNL     1      -5.634  -8.165   2.139  0.00  0.00    +0.148 HD
BRANCH  27  29
ATOM     29  C   UNL     1      -4.406  -7.110   0.766  0.00  0.00    +0.072 C 
ATOM     30  C   UNL     1      -5.228  -6.775  -0.496  0.00  0.00    +0.022 C 
ATOM     31  C   UNL     1      -4.492  -7.520  -1.638  0.00  0.00    +0.002 C 
ATOM     32  C   UNL     1      -4.063  -8.845  -0.960  0.00  0.00    +0.002 C 
ATOM     33  C   UNL     1      -3.665  -8.426   0.470  0.00  0.00    +0.022 C 
ENDBRANCH  27  29
ENDBRANCH  10  27
TORSDOF 5
