REMARK  Name = ZINC33140346
REMARK  4 active torsions:
REMARK  status: ('A' for Active; 'I' for Inactive)
REMARK    1  A    between atoms: C_4  and  C_7
REMARK    2  A    between atoms: C_9  and  C_12
REMARK    3  A    between atoms: C_14  and  N_22
REMARK    4  A    between atoms: N_25  and  C_28
REMARK                            x       y       z     vdW  Elec       q    Type
REMARK                         _______ _______ _______ _____ _____    ______ ____
ROOT
ATOM      1  C   UNL     1       2.460   1.310  -0.014  0.00  0.00    +0.052 A 
ATOM      2  C   UNL     1       2.380  -0.076  -0.021  0.00  0.00    +0.055 A 
ATOM      3  C   UNL     1       1.123  -0.692  -0.012  0.00  0.00    +0.100 A 
ATOM      4  N   UNL     1       0.002  -0.004   0.002  0.00  0.00    -0.343 N 
ATOM      5  C   UNL     1      -0.016   1.333   0.009  0.00  0.00    +0.048 A 
ATOM      6  C   UNL     1       1.201   2.056   0.002  0.00  0.00    +0.011 A 
ATOM      7  C   UNL     1       1.180   3.455   0.009  0.00  0.00    +0.011 A 
ATOM      8  C   UNL     1      -0.016   4.110   0.024  0.00  0.00    +0.001 A 
ATOM      9  C   UNL     1      -1.216   3.403   0.032  0.00  0.00    +0.002 A 
ATOM     10  C   UNL     1      -1.230   2.042   0.031  0.00  0.00    +0.026 A 
ATOM     11  H   UNL     1      -0.965  -0.528   0.008  0.00  0.00    +0.167 HD
ENDROOT
BRANCH   3  12
ATOM     12  N   UNL     1       1.057  -2.078  -0.019  0.00  0.00    -0.314 N 
ATOM     13  C   UNL     1       1.784  -2.634  -1.169  0.00  0.00    +0.125 C 
ATOM     14  C   UNL     1       1.755  -4.162  -1.096  0.00  0.00    +0.124 C 
ATOM     15  N   UNL     1       0.360  -4.624  -1.085  0.00  0.00    -0.325 N 
ATOM     16  C   UNL     1      -0.366  -4.067   0.065  0.00  0.00    +0.124 C 
ATOM     17  C   UNL     1      -0.338  -2.539  -0.007  0.00  0.00    +0.125 C 
BRANCH  15  18
ATOM     18  C   UNL     1       0.294  -6.021  -1.091  0.00  0.00    +0.065 A 
ATOM     19  C   UNL     1      -0.938  -6.659  -1.156  0.00  0.00    +0.026 A 
ATOM     20  C   UNL     1      -1.000  -8.039  -1.166  0.00  0.00    +0.002 A 
ATOM     21  C   UNL     1       0.162  -8.786  -1.102  0.00  0.00    +0.003 A 
ATOM     22  C   UNL     1       1.391  -8.155  -1.032  0.00  0.00    +0.040 A 
ATOM     23  C   UNL     1       1.461  -6.774  -1.026  0.00  0.00    +0.144 A 
ATOM     24  F   UNL     1       2.661  -6.158  -0.957  0.00  0.00    -0.204 F 
ENDBRANCH  15  18
ENDBRANCH   3  12
BRANCH   1  27
ATOM     25  C   UNL     1       5.840   2.457  -0.039  0.00  0.00    +0.202 A 
ATOM     26  N   UNL     1       4.957   1.438  -0.036  0.00  0.00    -0.187 NA
ATOM     27  C   UNL     1       3.765   2.004  -0.022  0.00  0.00    +0.259 A 
ATOM     28  O   UNL     1       3.964   3.331  -0.023  0.00  0.00    -0.332 OA
ATOM     29  N   UNL     1       5.153   3.570  -0.027  0.00  0.00    -0.056 NA
BRANCH  25  33
ATOM     30  C   UNL     1      10.079   2.114  -0.081  0.00  0.00    +0.000 A 
ATOM     31  C   UNL     1       9.489   3.365  -0.068  0.00  0.00    +0.001 A 
ATOM     32  C   UNL     1       8.114   3.482  -0.055  0.00  0.00    +0.012 A 
ATOM     33  C   UNL     1       7.320   2.337  -0.053  0.00  0.00    +0.022 A 
ATOM     34  C   UNL     1       7.920   1.079  -0.060  0.00  0.00    +0.012 A 
ATOM     35  C   UNL     1       9.296   0.974  -0.080  0.00  0.00    +0.001 A 
ENDBRANCH  25  33
ENDBRANCH   1  27
TORSDOF 4
