REMARK  Name = ZINC03877802
REMARK  9 active torsions:
REMARK  status: ('A' for Active; 'I' for Inactive)
REMARK    1  A    between atoms: C_1  and  C_2
REMARK    2  A    between atoms: C_5  and  N_8
REMARK    3  A    between atoms: N_18  and  C_19
REMARK    4  A    between atoms: C_19  and  C_21
REMARK    5  A    between atoms: C_19  and  C_31
REMARK    6  A    between atoms: C_22  and  C_23
REMARK    7  A    between atoms: C_31  and  C_32
REMARK    8  A    between atoms: C_31  and  C_33
REMARK    9  A    between atoms: C_31  and  C_34
REMARK                            x       y       z     vdW  Elec       q    Type
REMARK                         _______ _______ _______ _____ _____    ______ ____
ROOT
ATOM      1  N   UNL     1       2.180   0.479  -0.015  0.00  0.00    -0.268 N 
ATOM      2  C   UNL     1       1.253  -0.397  -0.463  0.00  0.00    +0.163 C 
ATOM      3  S   UNL     1       1.629  -1.915  -1.158  0.00  0.00    -0.016 S 
ATOM      4  N   UNL     1       0.007   0.063  -0.301  0.00  0.00    -0.180 NA
ATOM      5  C   UNL     1      -0.020   1.254   0.254  0.00  0.00    +0.111 C 
ATOM      6  C   UNL     1       1.419   1.620   0.485  0.00  0.00    +0.094 C 
ATOM      7  C   UNL     1       1.708   1.901   1.967  0.00  0.00    +0.034 C 
ATOM      8  C   UNL     1       2.975   2.784   1.942  0.00  0.00    +0.003 C 
ATOM      9  C   UNL     1       3.033   3.434   0.547  0.00  0.00    +0.003 C 
ATOM     10  C   UNL     1       1.799   2.924  -0.231  0.00  0.00    +0.034 C 
ATOM     11  N   UNL     1      -1.116   1.998   0.551  0.00  0.00    -0.326 N 
ATOM     12  H   UNL     1      -1.013   2.870   0.962  0.00  0.00    +0.148 HD
ENDROOT
BRANCH   1  17
ATOM     13  C   UNL     1       7.817  -0.146  -0.067  0.00  0.00    +0.044 C 
ATOM     14  C   UNL     1       6.320   0.020  -0.053  0.00  0.00    -0.050 A 
ATOM     15  C   UNL     1       5.587  -0.412   1.037  0.00  0.00    +0.005 A 
ATOM     16  C   UNL     1       4.215  -0.262   1.053  0.00  0.00    +0.024 A 
ATOM     17  C   UNL     1       3.570   0.325  -0.028  0.00  0.00    +0.036 A 
ATOM     18  C   UNL     1       4.307   0.753  -1.124  0.00  0.00    +0.024 A 
ATOM     19  C   UNL     1       5.680   0.605  -1.131  0.00  0.00    +0.005 A 
ENDBRANCH   1  17
BRANCH  11  20
ATOM     20  C   UNL     1      -2.454   1.484   0.249  0.00  0.00    +0.100 C 
BRANCH  20  21
ATOM     21  C   UNL     1      -2.929   0.593   1.398  0.00  0.00    -0.016 C 
ATOM     22  C   UNL     1      -2.976   1.409   2.691  0.00  0.00    +0.013 C 
ATOM     23  C   UNL     1      -4.327   0.056   1.083  0.00  0.00    +0.013 C 
ATOM     24  C   UNL     1      -1.960  -0.579   1.570  0.00  0.00    +0.013 C 
ENDBRANCH  20  21
BRANCH  20  25
ATOM     25  C   UNL     1      -3.409   2.637   0.080  0.00  0.00    -0.004 C 
ATOM     26  C   UNL     1      -4.049   2.805  -1.069  0.00  0.00    +0.007 C 
BRANCH  26  27
ATOM     27  C   UNL     1      -4.985   3.937  -1.235  0.00  0.00    -0.007 A 
ATOM     28  C   UNL     1      -5.202   4.826  -0.182  0.00  0.00    +0.011 A 
ATOM     29  C   UNL     1      -6.074   5.883  -0.344  0.00  0.00    +0.020 A 
ATOM     30  C   UNL     1      -6.742   6.056  -1.546  0.00  0.00    +0.042 A 
ATOM     31  C   UNL     1      -6.535   5.175  -2.592  0.00  0.00    +0.040 A 
ATOM     32  C   UNL     1      -5.660   4.116  -2.444  0.00  0.00    +0.049 A 
ATOM     33 CL   UNL     1      -5.402   3.011  -3.758  0.00  0.00    -0.083 Cl
ATOM     34 CL   UNL     1      -7.842   7.385  -1.739  0.00  0.00    -0.083 Cl
ENDBRANCH  26  27
ENDBRANCH  20  25
ENDBRANCH  11  20
TORSDOF 5
