REMARK  Name = ZINC19500684
REMARK  12 active torsions:
REMARK  status: ('A' for Active; 'I' for Inactive)
REMARK    1  A    between atoms: C_1  and  C_2
REMARK    2  A    between atoms: C_2  and  C_3
REMARK    3  A    between atoms: C_3  and  C_5
REMARK    4  A    between atoms: C_3  and  N_16
REMARK    5  A    between atoms: N_9  and  C_10
REMARK    6  A    between atoms: C_10  and  C_11
REMARK    7  A    between atoms: N_16  and  C_17
REMARK    8  A    between atoms: N_16  and  C_32
REMARK    9  A    between atoms: C_17  and  C_18
REMARK   10  A    between atoms: C_22  and  C_31
REMARK   11  A    between atoms: C_24  and  C_30
REMARK   12  A    between atoms: C_32  and  C_33
REMARK                            x       y       z     vdW  Elec       q    Type
REMARK                         _______ _______ _______ _____ _____    ______ ____
ROOT
ATOM      1  N   UNL     1      -0.681   3.549   1.337  0.00  0.00    +0.391 N 
ATOM      2  H   UNL     1      -1.229   3.596   0.384  0.00  0.00    -0.080 HD
ENDROOT
BRANCH   1   3
ATOM      3  C   UNL     1       0.570   4.303   1.174  0.00  0.00    +0.003 C 
BRANCH   3   4
ATOM      4  C   UNL     1       1.339   4.284   2.470  0.00  0.00    +0.139 A 
ATOM      5  N   UNL     1       0.845   4.421   3.676  0.00  0.00    -0.115 NA
ATOM      6  N   UNL     1       1.819   4.348   4.516  0.00  0.00    -0.023 NA
ATOM      7  N   UNL     1       2.922   4.168   3.877  0.00  0.00    -0.044 NA
ATOM      8  N   UNL     1       2.667   4.118   2.614  0.00  0.00    -0.223 N 
BRANCH   8   9
ATOM      9  C   UNL     1       3.641   3.921   1.537  0.00  0.00    +0.221 C 
BRANCH   9  10
ATOM     10  C   UNL     1       4.161   5.259   1.078  0.00  0.00    +0.126 A 
ATOM     11  C   UNL     1       5.235   5.898   1.576  0.00  0.00    +0.046 A 
ATOM     12  C   UNL     1       5.358   7.110   0.859  0.00  0.00    +0.041 A 
ATOM     13  C   UNL     1       4.352   7.139  -0.034  0.00  0.00    +0.195 A 
ATOM     14  O   UNL     1       3.634   6.013   0.100  0.00  0.00    -0.466 OA
ENDBRANCH   9  10
ENDBRANCH   8   9
ENDBRANCH   3   4
BRANCH   3  16
ATOM     15  C   UNL     1      -0.462   5.774  -0.562  0.00  0.00    +0.002 C 
ATOM     16  C   UNL     1       0.248   5.750   0.794  0.00  0.00    -0.011 C 
ENDBRANCH   3  16
ENDBRANCH   1   3
BRANCH   1  17
ATOM     17  C   UNL     1      -1.528   4.151   2.375  0.00  0.00    -0.036 C 
BRANCH  17  18
ATOM     18  C   UNL     1      -2.922   3.589   2.274  0.00  0.00    +0.001 A 
ATOM     19  C   UNL     1      -3.281   2.531   3.042  0.00  0.00    +0.017 A 
ATOM     20  C   UNL     1      -4.645   2.012   2.924  0.00  0.00    -0.001 A 
ATOM     21  C   UNL     1      -5.075   0.926   3.695  0.00  0.00    +0.013 A 
ATOM     22  C   UNL     1      -6.353   0.462   3.557  0.00  0.00    -0.050 A 
ATOM     23  C   UNL     1      -7.228   1.059   2.659  0.00  0.00    +0.008 A 
ATOM     24  C   UNL     1      -6.826   2.129   1.890  0.00  0.00    -0.026 A 
ATOM     25  C   UNL     1      -5.529   2.619   2.013  0.00  0.00    +0.052 A 
ATOM     26  N   UNL     1      -5.101   3.689   1.257  0.00  0.00    -0.322 N 
ATOM     27  H   UNL     1      -5.787   4.168   0.543  0.00  0.00    +0.169 HD
ATOM     28  C   UNL     1      -3.848   4.162   1.376  0.00  0.00    +0.251 A 
ATOM     29  O   UNL     1      -3.503   5.110   0.691  0.00  0.00    -0.268 OA
ATOM     30  C   UNL     1      -7.786   2.767   0.919  0.00  0.00    +0.046 C 
ATOM     31  C   UNL     1      -6.816  -0.707   4.386  0.00  0.00    +0.044 C 
ENDBRANCH  17  18
ENDBRANCH   1  17
BRANCH   1  32
ATOM     32  C   UNL     1      -0.409   2.136   1.633  0.00  0.00    -0.045 C 
BRANCH  32  33
ATOM     33  C   UNL     1       0.085   1.436   0.365  0.00  0.00    +0.102 C 
ATOM     34  C   UNL     1       0.285  -0.073   0.628  0.00  0.00    +0.032 C 
ATOM     35  C   UNL     1       1.544  -0.434  -0.190  0.00  0.00    +0.030 C 
ATOM     36  C   UNL     1       1.957   0.900  -0.851  0.00  0.00    +0.160 C 
ATOM     37  O   UNL     1       1.395   1.923  -0.000  0.00  0.00    -0.378 OA
ENDBRANCH  32  33
ENDBRANCH   1  32
TORSDOF 9
