REMARK  Name = ZINC13032217
REMARK  14 active torsions:
REMARK  status: ('A' for Active; 'I' for Inactive)
REMARK    1  A    between atoms: C_1  and  C_2
REMARK    2  A    between atoms: C_2  and  C_3
REMARK    3  A    between atoms: C_8  and  N_9
REMARK    4  A    between atoms: N_9  and  C_10
REMARK    5  A    between atoms: C_10  and  C_12
REMARK    6  A    between atoms: C_10  and  C_18
REMARK    7  A    between atoms: C_15  and  C_17
REMARK    8  A    between atoms: N_20  and  C_21
REMARK    9  A    between atoms: C_21  and  C_22
REMARK   10  A    between atoms: C_21  and  C_23
REMARK   11  A    between atoms: C_21  and  C_24
REMARK   12  A    between atoms: C_24  and  C_25
REMARK   13  A    between atoms: C_26  and  C_28
REMARK   14  A    between atoms: C_28  and  N_29
REMARK                            x       y       z     vdW  Elec       q    Type
REMARK                         _______ _______ _______ _____ _____    ______ ____
ROOT
ATOM      1  N   UNL     1      -5.804   3.476  -1.777  0.00  0.00    -0.251 N 
ATOM      2  C   UNL     1      -4.543   3.188  -1.398  0.00  0.00    +0.242 C 
ATOM      3  O   UNL     1      -3.673   3.058  -2.233  0.00  0.00    -0.273 OA
ENDROOT
BRANCH   1   9
ATOM      4  C   UNL     1      -6.754   4.948  -0.115  0.00  0.00    -0.026 A 
ATOM      5  C   UNL     1      -7.722   5.215   0.834  0.00  0.00    +0.005 A 
ATOM      6  C   UNL     1      -8.710   4.284   1.096  0.00  0.00    +0.000 A 
ATOM      7  C   UNL     1      -8.736   3.086   0.407  0.00  0.00    +0.002 A 
ATOM      8  C   UNL     1      -7.774   2.815  -0.546  0.00  0.00    +0.024 A 
ATOM      9  C   UNL     1      -6.780   3.748  -0.812  0.00  0.00    +0.041 A 
BRANCH   4  11
ATOM     10  C   UNL     1      -6.142   6.914  -1.497  0.00  0.00    +0.009 C 
ATOM     11  C   UNL     1      -5.673   5.960  -0.396  0.00  0.00    +0.033 C 
ENDBRANCH   4  11
ENDBRANCH   1   9
BRANCH   1  12
ATOM     12  C   UNL     1      -6.152   3.505  -3.200  0.00  0.00    +0.233 C 
BRANCH  12  13
ATOM     13  C   UNL     1      -7.125   4.627  -3.456  0.00  0.00    +0.135 A 
ATOM     14  C   UNL     1      -7.119   5.446  -4.523  0.00  0.00    +0.047 A 
ATOM     15  C   UNL     1      -8.199   6.343  -4.358  0.00  0.00    +0.045 A 
ATOM     16  C   UNL     1      -8.801   6.018  -3.200  0.00  0.00    +0.102 A 
ATOM     17  O   UNL     1      -8.151   4.974  -2.661  0.00  0.00    -0.462 OA
ATOM     18  C   UNL     1     -10.007   6.704  -2.611  0.00  0.00    +0.086 C 
ENDBRANCH  12  13
BRANCH  12  19
ATOM     19  C   UNL     1      -6.784   2.193  -3.589  0.00  0.00    +0.242 C 
ATOM     20  O   UNL     1      -6.934   1.323  -2.758  0.00  0.00    -0.273 OA
ATOM     21  N   UNL     1      -7.181   1.988  -4.860  0.00  0.00    -0.308 N 
ATOM     22  H   UNL     1      -7.061   2.684  -5.525  0.00  0.00    +0.149 HD
BRANCH  21  23
ATOM     23  C   UNL     1      -7.795   0.712  -5.238  0.00  0.00    +0.029 C 
ATOM     24  C   UNL     1      -6.811  -0.427  -4.970  0.00  0.00    +0.031 C 
ATOM     25  C   UNL     1      -9.066   0.493  -4.414  0.00  0.00    +0.031 C 
BRANCH  23  26
ATOM     26  C   UNL     1      -8.152   0.739  -6.726  0.00  0.00    +0.022 C 
ATOM     27  C   UNL     1      -8.793  -0.593  -7.121  0.00  0.00    +0.006 C 
ENDBRANCH  23  26
ENDBRANCH  21  23
ENDBRANCH  12  19
ENDBRANCH   1  12
BRANCH   2  28
ATOM     28  C   UNL     1      -4.213   3.028   0.064  0.00  0.00    +0.242 C 
BRANCH  28  29
ATOM     29  N   UNL     1      -2.821   2.595   0.206  0.00  0.00    -0.235 N 
ATOM     30  C   UNL     1      -2.363   1.300   0.243  0.00  0.00    +0.090 A 
ATOM     31  C   UNL     1      -2.977   0.054   0.163  0.00  0.00    +0.029 A 
ATOM     32  C   UNL     1      -2.221  -1.082   0.238  0.00  0.00    +0.002 A 
ATOM     33  C   UNL     1      -0.842  -1.005   0.383  0.00  0.00    +0.002 A 
ATOM     34  C   UNL     1      -0.215   0.204   0.459  0.00  0.00    +0.032 A 
ATOM     35  C   UNL     1      -0.967   1.385   0.390  0.00  0.00    +0.113 A 
ATOM     36  N   UNL     1      -0.639   2.691   0.436  0.00  0.00    -0.129 NA
ATOM     37  N   UNL     1      -1.694   3.420   0.331  0.00  0.00    -0.064 NA
ENDBRANCH  28  29
ENDBRANCH   2  28
TORSDOF 9
