REMARK  Name = ZINC57608182
REMARK  10 active torsions:
REMARK  status: ('A' for Active; 'I' for Inactive)
REMARK    1  A    between atoms: C_1  and  C_2
REMARK    2  A    between atoms: C_2  and  C_3
REMARK    3  A    between atoms: C_10  and  C_15
REMARK    4  A    between atoms: C_15  and  C_17
REMARK    5  A    between atoms: C_15  and  N_27
REMARK    6  A    between atoms: N_21  and  C_22
REMARK    7  A    between atoms: N_27  and  C_28
REMARK    8  A    between atoms: N_27  and  C_34
REMARK    9  A    between atoms: C_28  and  C_29
REMARK   10  A    between atoms: C_34  and  C_35
REMARK                            x       y       z     vdW  Elec       q    Type
REMARK                         _______ _______ _______ _____ _____    ______ ____
ROOT
ATOM      1  C   UNL     1      -5.810  -2.613  -3.244  0.00  0.00    +0.163 C 
ENDROOT
BRANCH   1   9
ATOM      2  C   UNL     1      -0.177  -0.189  -2.420  0.00  0.00    -0.047 A 
ATOM      3  C   UNL     1      -0.444   0.414  -1.198  0.00  0.00    +0.005 A 
ATOM      4  C   UNL     1      -1.691   0.309  -0.620  0.00  0.00    +0.026 A 
ATOM      5  C   UNL     1      -2.693  -0.406  -1.266  0.00  0.00    +0.049 A 
ATOM      6  C   UNL     1      -2.419  -1.015  -2.505  0.00  0.00    -0.001 A 
ATOM      7  C   UNL     1      -1.147  -0.892  -3.075  0.00  0.00    +0.013 A 
ATOM      8  C   UNL     1      -3.481  -1.766  -3.177  0.00  0.00    +0.021 A 
ATOM      9  C   UNL     1      -4.695  -1.848  -2.579  0.00  0.00    +0.042 A 
ATOM     10  C   UNL     1      -4.918  -1.218  -1.336  0.00  0.00    +0.254 A 
ATOM     11  O   UNL     1      -6.017  -1.304  -0.816  0.00  0.00    -0.268 OA
ATOM     12  N   UNL     1      -3.950  -0.527  -0.711  0.00  0.00    -0.322 N 
ATOM     13  H   UNL     1      -4.137  -0.107   0.143  0.00  0.00    +0.169 HD
BRANCH   2  15
ATOM     14  C   UNL     1       1.243   1.187  -3.916  0.00  0.00    +0.009 C 
ATOM     15  C   UNL     1       1.194  -0.060  -3.032  0.00  0.00    +0.032 C 
ENDBRANCH   2  15
ENDBRANCH   1   9
BRANCH   1  16
ATOM     16  C   UNL     1      -7.016  -1.722  -3.386  0.00  0.00    +0.173 A 
ATOM     17  N   UNL     1      -7.883  -1.423  -2.449  0.00  0.00    -0.111 NA
ATOM     18  N   UNL     1      -8.766  -0.637  -2.959  0.00  0.00    -0.023 NA
ATOM     19  N   UNL     1      -8.486  -0.425  -4.198  0.00  0.00    -0.044 NA
ATOM     20  N   UNL     1      -7.411  -1.073  -4.497  0.00  0.00    -0.224 N 
BRANCH  20  21
ATOM     21  C   UNL     1      -6.746  -1.100  -5.802  0.00  0.00    +0.111 C 
ATOM     22  C   UNL     1      -6.258   0.315  -6.176  0.00  0.00    +0.027 C 
ATOM     23  C   UNL     1      -6.490   0.405  -7.705  0.00  0.00    +0.002 C 
ATOM     24  C   UNL     1      -7.829  -0.352  -7.893  0.00  0.00    +0.002 C 
ATOM     25  C   UNL     1      -7.745  -1.524  -6.894  0.00  0.00    +0.027 C 
ENDBRANCH  20  21
ENDBRANCH   1  16
BRANCH   1  26
ATOM     26  N   UNL     1      -6.157  -3.783  -2.426  0.00  0.00    -0.279 NA
BRANCH  26  27
ATOM     27  C   UNL     1      -7.115  -4.649  -3.126  0.00  0.00    +0.159 C 
BRANCH  27  28
ATOM     28  C   UNL     1      -8.500  -4.068  -3.005  0.00  0.00    +0.119 A 
ATOM     29  C   UNL     1      -9.122  -3.317  -3.931  0.00  0.00    +0.046 A 
ATOM     30  C   UNL     1     -10.394  -2.990  -3.407  0.00  0.00    +0.041 A 
ATOM     31  C   UNL     1     -10.473  -3.561  -2.192  0.00  0.00    +0.195 A 
ATOM     32  O   UNL     1      -9.325  -4.217  -1.955  0.00  0.00    -0.467 OA
ENDBRANCH  27  28
ENDBRANCH  26  27
BRANCH  26  33
ATOM     33  C   UNL     1      -4.954  -4.532  -2.039  0.00  0.00    +0.117 C 
BRANCH  33  34
ATOM     34  C   UNL     1      -4.421  -3.990  -0.711  0.00  0.00    +0.132 C 
ATOM     35  C   UNL     1      -3.252  -4.870  -0.219  0.00  0.00    +0.035 C 
ATOM     36  C   UNL     1      -3.506  -4.929   1.312  0.00  0.00    +0.031 C 
ATOM     37  C   UNL     1      -5.055  -4.914   1.354  0.00  0.00    +0.160 C 
ATOM     38  O   UNL     1      -5.451  -4.040   0.282  0.00  0.00    -0.375 OA
ENDBRANCH  33  34
ENDBRANCH  26  33
ENDBRANCH   1  26
TORSDOF 9
