REMARK  Name = ZINC12614250
REMARK  8 active torsions:
REMARK  status: ('A' for Active; 'I' for Inactive)
REMARK    1  A    between atoms: C_1  and  C_2
REMARK    2  A    between atoms: C_2  and  C_4
REMARK    3  A    between atoms: C_2  and  O_16
REMARK    4  A    between atoms: O_16  and  C_17
REMARK    5  A    between atoms: C_17  and  C_19
REMARK    6  A    between atoms: C_22  and  N_27
REMARK    7  A    between atoms: C_24  and  O_25
REMARK    8  A    between atoms: O_25  and  C_26
REMARK                            x       y       z     vdW  Elec       q    Type
REMARK                         _______ _______ _______ _____ _____    ______ ____
ROOT
ATOM      1  O   UNL     1       2.666   0.327  -1.344  0.00  0.00    -0.450 OA
ENDROOT
BRANCH   1   3
ATOM      2  C   UNL     1       3.610   1.800   0.351  0.00  0.00    +0.060 C 
ATOM      3  C   UNL     1       2.449   0.874  -0.017  0.00  0.00    +0.239 C 
BRANCH   3   4
ATOM      4  C   UNL     1       1.160   1.655  -0.000  0.00  0.00    +0.151 A 
ATOM      5  N   UNL     1      -0.011   0.966   0.007  0.00  0.00    -0.307 N 
ATOM      6  H   UNL     1       0.002  -0.004   0.002  0.00  0.00    +0.170 HD
ATOM      7  C   UNL     1      -1.196   1.620   0.017  0.00  0.00    +0.259 A 
ATOM      8  O   UNL     1      -2.252   1.016   0.018  0.00  0.00    -0.267 OA
ATOM      9  C   UNL     1      -1.157   3.090   0.030  0.00  0.00    +0.065 A 
ATOM     10  C   UNL     1      -2.319   3.858   0.044  0.00  0.00    +0.015 A 
ATOM     11  C   UNL     1      -2.225   5.233   0.051  0.00  0.00    +0.001 A 
ATOM     12  C   UNL     1      -0.983   5.855   0.043  0.00  0.00    +0.002 A 
ATOM     13  C   UNL     1       0.177   5.115   0.028  0.00  0.00    +0.028 A 
ATOM     14  C   UNL     1       0.107   3.720   0.021  0.00  0.00    +0.078 A 
ATOM     15  N   UNL     1       1.225   2.952   0.007  0.00  0.00    -0.230 NA
ENDBRANCH   3   4
ENDBRANCH   1   3
BRANCH   1  16
ATOM     16  C   UNL     1       3.348  -0.833  -1.424  0.00  0.00    +0.343 C 
ATOM     17  O   UNL     1       3.748  -1.373  -0.411  0.00  0.00    -0.245 OA
BRANCH  16  18
ATOM     18  C   UNL     1       3.606  -1.446  -2.736  0.00  0.00    +0.102 A 
ATOM     19  C   UNL     1       3.140  -0.829  -3.903  0.00  0.00    +0.040 A 
ATOM     20  C   UNL     1       3.385  -1.395  -5.121  0.00  0.00    +0.063 A 
ATOM     21  C   UNL     1       4.089  -2.596  -5.210  0.00  0.00    +0.047 A 
ATOM     22  C   UNL     1       4.552  -3.223  -4.061  0.00  0.00    +0.070 A 
ATOM     23  C   UNL     1       4.315  -2.655  -2.821  0.00  0.00    +0.136 A 
ATOM     24 CL   UNL     1       2.811  -0.620  -6.564  0.00  0.00    -0.082 Cl
BRANCH  21  25
ATOM     25  N   UNL     1       4.328  -3.167  -6.456  0.00  0.00    -0.357 N 
ATOM     26  H   UNL     1       4.817  -4.002  -6.520  0.00  0.00    +0.142 HD
ATOM     27  H   UNL     1       4.005  -2.731  -7.260  0.00  0.00    +0.142 HD
ENDBRANCH  21  25
BRANCH  23  28
ATOM     28  O   UNL     1       4.765  -3.262  -1.695  0.00  0.00    -0.494 OA
ATOM     29  C   UNL     1       5.479  -4.489  -1.861  0.00  0.00    +0.277 C 
ENDBRANCH  23  28
ENDBRANCH  16  18
ENDBRANCH   1  16
TORSDOF 6
