REMARK  Name = ZINC24193077
REMARK  9 active torsions:
REMARK  status: ('A' for Active; 'I' for Inactive)
REMARK    1  A    between atoms: C_1  and  C_2
REMARK    2  A    between atoms: C_2  and  O_3
REMARK    3  A    between atoms: O_3  and  C_4
REMARK    4  A    between atoms: C_4  and  C_6
REMARK    5  A    between atoms: C_7  and  C_35
REMARK    6  A    between atoms: C_12  and  C_28
REMARK    7  A    between atoms: C_14  and  S_19
REMARK    8  A    between atoms: S_19  and  C_22
REMARK    9  A    between atoms: C_31  and  C_34
REMARK                            x       y       z     vdW  Elec       q    Type
REMARK                         _______ _______ _______ _____ _____    ______ ____
ROOT
ATOM      1  C   UNL     1       2.741   2.391  -4.747  0.00  0.00    +0.120 A 
ATOM      2  C   UNL     1       3.935   2.891  -4.246  0.00  0.00    +0.062 A 
ATOM      3  N   UNL     1       4.188   2.706  -2.977  0.00  0.00    -0.229 NA
ATOM      4  C   UNL     1       3.346   2.054  -2.189  0.00  0.00    +0.169 A 
ATOM      5  S   UNL     1       2.051   1.651  -3.274  0.00  0.00    -0.045 S 
ATOM      6  N   UNL     1       3.465   1.772  -0.842  0.00  0.00    -0.231 N 
ATOM      7  C   UNL     1       2.490   1.048  -0.016  0.00  0.00    +0.166 C 
ATOM      8  C   UNL     1       3.078   1.001   1.375  0.00  0.00    +0.148 C 
ATOM      9  C   UNL     1       4.252   1.632   1.323  0.00  0.00    +0.264 C 
ATOM     10  C   UNL     1       4.496   2.111  -0.045  0.00  0.00    +0.295 C 
ATOM     11  O   UNL     1       5.484   2.722  -0.404  0.00  0.00    -0.266 OA
ATOM     12  O   UNL     1       5.095   1.806   2.376  0.00  0.00    -0.281 OA
ATOM     13  C   UNL     1       4.904   3.629  -5.133  0.00  0.00    +0.067 C 
ENDROOT
BRANCH   7  14
ATOM     14  C   UNL     1       1.175   1.783   0.000  0.00  0.00    -0.021 A 
ATOM     15  C   UNL     1      -0.013   1.076   0.008  0.00  0.00    +0.006 A 
ATOM     16  C   UNL     1      -1.219   1.751   0.017  0.00  0.00    +0.004 A 
ATOM     17  C   UNL     1      -1.238   3.133   0.030  0.00  0.00    -0.050 A 
ATOM     18  C   UNL     1      -0.050   3.840   0.022  0.00  0.00    +0.004 A 
ATOM     19  C   UNL     1       1.156   3.165   0.008  0.00  0.00    +0.006 A 
ATOM     20  C   UNL     1      -2.553   3.869   0.047  0.00  0.00    +0.044 C 
ENDBRANCH   7  14
BRANCH   8  21
ATOM     21  S   UNL     1       2.351   0.255   2.796  0.00  0.00    +0.027 S 
ATOM     22  O   UNL     1       1.941  -1.048   2.406  0.00  0.00    -0.164 OA
ATOM     23  O   UNL     1       3.246   0.480   3.876  0.00  0.00    -0.164 OA
BRANCH  21  24
ATOM     24  C   UNL     1       0.882   1.156   3.163  0.00  0.00    +0.093 A 
ATOM     25  C   UNL     1       0.932   2.241   4.018  0.00  0.00    +0.027 A 
ATOM     26  C   UNL     1      -0.220   2.950   4.303  0.00  0.00    +0.002 A 
ATOM     27  C   UNL     1      -1.423   2.570   3.739  0.00  0.00    +0.000 A 
ATOM     28  C   UNL     1      -1.474   1.481   2.888  0.00  0.00    +0.002 A 
ATOM     29  C   UNL     1      -0.322   0.774   2.600  0.00  0.00    +0.027 A 
ENDBRANCH  21  24
ENDBRANCH   8  21
BRANCH   1  30
ATOM     30  C   UNL     1       2.199   2.452  -6.103  0.00  0.00    +0.348 C 
ATOM     31  O   UNL     1       2.826   3.008  -6.984  0.00  0.00    -0.244 OA
BRANCH  30  32
ATOM     32  O   UNL     1       1.002   1.892  -6.377  0.00  0.00    -0.461 OA
BRANCH  32  34
ATOM     33  C   UNL     1      -0.829   1.302  -7.840  0.00  0.00    +0.048 C 
ATOM     34  C   UNL     1       0.533   1.989  -7.723  0.00  0.00    +0.229 C 
ENDBRANCH  32  34
ENDBRANCH  30  32
ENDBRANCH   1  30
TORSDOF 6
