REMARK  Name = ZINC02881409
REMARK  13 active torsions:
REMARK  status: ('A' for Active; 'I' for Inactive)
REMARK    1  A    between atoms: C_1  and  C_2
REMARK    2  A    between atoms: C_2  and  C_3
REMARK    3  A    between atoms: C_2  and  C_4
REMARK    4  A    between atoms: C_4  and  C_6
REMARK    5  A    between atoms: C_4  and  N_27
REMARK    6  A    between atoms: C_9  and  S_14
REMARK    7  A    between atoms: N_10  and  C_11
REMARK    8  A    between atoms: C_11  and  C_12
REMARK    9  A    between atoms: S_14  and  C_15
REMARK   10  A    between atoms: C_15  and  C_16
REMARK   11  A    between atoms: C_16  and  C_18
REMARK   12  A    between atoms: C_22  and  N_24
REMARK   13  A    between atoms: C_29  and  C_31
REMARK                            x       y       z     vdW  Elec       q    Type
REMARK                         _______ _______ _______ _____ _____    ______ ____
ROOT
ATOM      1  C   UNL     1      -4.122  -5.013  -0.007  0.00  0.00    +0.155 A 
ATOM      2  N   UNL     1      -2.855  -4.710  -0.011  0.00  0.00    -0.132 NA
ATOM      3  N   UNL     1      -2.707  -3.433  -0.010  0.00  0.00    -0.122 NA
ATOM      4  C   UNL     1      -3.882  -2.848   0.005  0.00  0.00    +0.192 A 
ATOM      5  N   UNL     1      -4.822  -3.838   0.004  0.00  0.00    -0.301 N 
ENDROOT
BRANCH   1   6
ATOM      6  C   UNL     1      -4.709  -6.401  -0.012  0.00  0.00    +0.144 C 
BRANCH   6   7
ATOM      7  N   UNL     1      -3.994  -7.237   0.956  0.00  0.00    -0.301 N 
ATOM      8  H   UNL     1      -3.082  -7.019   1.204  0.00  0.00    +0.150 HD
ATOM      9  C   UNL     1      -4.604  -8.308   1.502  0.00  0.00    +0.245 C 
ATOM     10  O   UNL     1      -5.747  -8.580   1.190  0.00  0.00    -0.270 OA
BRANCH   9  11
ATOM     11  C   UNL     1      -3.883  -9.151   2.479  0.00  0.00    +0.037 A 
ATOM     12  C   UNL     1      -2.568  -8.844   2.834  0.00  0.00    +0.013 A 
ATOM     13  C   UNL     1      -1.902  -9.633   3.749  0.00  0.00    +0.001 A 
ATOM     14  C   UNL     1      -2.531 -10.731   4.308  0.00  0.00    +0.000 A 
ATOM     15  C   UNL     1      -3.833 -11.044   3.956  0.00  0.00    +0.001 A 
ATOM     16  C   UNL     1      -4.511 -10.261   3.046  0.00  0.00    +0.013 A 
ENDBRANCH   9  11
ENDBRANCH   6   7
BRANCH   6  18
ATOM     17  C   UNL     1      -5.166  -8.417  -1.415  0.00  0.00    +0.009 C 
ATOM     18  C   UNL     1      -4.571  -7.008  -1.410  0.00  0.00    +0.011 C 
ATOM     19  C   UNL     1      -5.317  -6.135  -2.421  0.00  0.00    +0.009 C 
ENDBRANCH   6  18
ENDBRANCH   1   6
BRANCH   5  20
ATOM     20  C   UNL     1      -6.278  -3.675   0.012  0.00  0.00    +0.152 C 
BRANCH  20  21
ATOM     21  C   UNL     1      -6.785  -3.611  -1.406  0.00  0.00    -0.013 C 
ATOM     22  C   UNL     1      -7.717  -4.440  -1.806  0.00  0.00    +0.005 C 
ENDBRANCH  20  21
ENDBRANCH   5  20
BRANCH   4  23
ATOM     23  S   UNL     1      -4.187  -1.113   0.016  0.00  0.00    -0.078 S 
BRANCH  23  24
ATOM     24  C   UNL     1      -2.486  -0.494   0.011  0.00  0.00    +0.157 C 
BRANCH  24  25
ATOM     25  C   UNL     1      -2.500   1.013   0.019  0.00  0.00    +0.173 C 
ATOM     26  O   UNL     1      -3.555   1.610   0.028  0.00  0.00    -0.291 OA
BRANCH  25  27
ATOM     27  C   UNL     1      -1.232   1.760   0.018  0.00  0.00    +0.020 A 
ATOM     28  C   UNL     1      -0.013   1.076   0.008  0.00  0.00    +0.011 A 
ATOM     29  C   UNL     1       1.171   1.783   0.001  0.00  0.00    +0.003 A 
ATOM     30  C   UNL     1       1.154   3.167   0.008  0.00  0.00    +0.033 A 
ATOM     31  C   UNL     1      -0.048   3.852   0.023  0.00  0.00    +0.127 A 
ATOM     32  C   UNL     1      -1.241   3.159   0.030  0.00  0.00    +0.044 A 
BRANCH  31  33
ATOM     33  N   UNL     1      -0.055   5.332   0.030  0.00  0.00    +0.056 N 
ATOM     34  O   UNL     1       0.997   5.946   0.024  0.00  0.00    -0.126 OA
ATOM     35  O   UNL     1      -1.113   5.936   0.043  0.00  0.00    -0.126 OA
ENDBRANCH  31  33
ENDBRANCH  25  27
ENDBRANCH  24  25
ENDBRANCH  23  24
ENDBRANCH   4  23
TORSDOF 11
