REMARK  Name = ZINC35578435
REMARK  6 active torsions:
REMARK  status: ('A' for Active; 'I' for Inactive)
REMARK    1  A    between atoms: C_1  and  C_2
REMARK    2  A    between atoms: C_2  and  C_3
REMARK    3  A    between atoms: C_3  and  N_4
REMARK    4  A    between atoms: N_4  and  C_5
REMARK    5  A    between atoms: C_5  and  C_7
REMARK    6  A    between atoms: C_5  and  C_15
REMARK                            x       y       z     vdW  Elec       q    Type
REMARK                         _______ _______ _______ _____ _____    ______ ____
ROOT
ATOM      1  C   UNL     1      -2.792  -2.511   0.015  0.00  0.00    -0.006 C 
ENDROOT
BRANCH   1   2
ATOM      2  C   UNL     1      -2.833  -4.008   0.183  0.00  0.00    -0.021 A 
ATOM      3  C   UNL     1      -3.265  -4.808  -0.857  0.00  0.00    +0.025 A 
ATOM      4  C   UNL     1      -3.304  -6.183  -0.704  0.00  0.00    +0.041 A 
ATOM      5  C   UNL     1      -2.909  -6.757   0.492  0.00  0.00    +0.023 A 
ATOM      6  C   UNL     1      -2.478  -5.957   1.533  0.00  0.00    +0.040 A 
ATOM      7  C   UNL     1      -2.434  -4.582   1.378  0.00  0.00    +0.125 A 
ATOM      8  F   UNL     1      -2.006  -3.800   2.393  0.00  0.00    -0.205 F 
ATOM      9 CL   UNL     1      -3.847  -7.187  -2.011  0.00  0.00    -0.084 Cl
ENDBRANCH   1   2
BRANCH   1  10
ATOM     10  C   UNL     1      -3.630  -2.115  -1.173  0.00  0.00    -0.042 A 
ATOM     11  C   UNL     1      -3.043  -1.973  -2.416  0.00  0.00    +0.018 A 
ATOM     12  C   UNL     1      -3.812  -1.610  -3.507  0.00  0.00    +0.018 A 
ATOM     13  C   UNL     1      -5.169  -1.388  -3.353  0.00  0.00    +0.016 A 
ATOM     14  C   UNL     1      -5.756  -1.531  -2.110  0.00  0.00    +0.016 A 
ATOM     15  C   UNL     1      -4.987  -1.899  -1.021  0.00  0.00    +0.020 A 
ATOM     16 BR   UNL     1      -5.792  -2.102   0.679  0.00  0.00    -0.050 Br
ATOM     17 BR   UNL     1      -3.009  -1.415  -5.208  0.00  0.00    -0.050 Br
ENDBRANCH   1  10
BRANCH   1  18
ATOM     18  N   UNL     1      -1.403  -2.081  -0.200  0.00  0.00    +0.386 N 
ATOM     19  H   UNL     1      -1.066  -2.457  -1.073  0.00  0.00    -0.085 HD
ATOM     20  H   UNL     1      -0.826  -2.417   0.557  0.00  0.00    -0.085 HD
BRANCH  18  21
ATOM     21  C   UNL     1      -1.346  -0.614  -0.244  0.00  0.00    -0.082 C 
BRANCH  21  23
ATOM     22  C   UNL     1       0.159   1.362  -0.514  0.00  0.00    +0.002 C 
ATOM     23  C   UNL     1       0.099  -0.166  -0.468  0.00  0.00    -0.022 C 
ENDBRANCH  21  23
ENDBRANCH  18  21
ENDBRANCH   1  18
TORSDOF 5
