REMARK  Name = ZINC40850321
REMARK  13 active torsions:
REMARK  status: ('A' for Active; 'I' for Inactive)
REMARK    1  A    between atoms: C_1  and  C_2
REMARK    2  A    between atoms: C_4  and  C_36
REMARK    3  A    between atoms: C_9  and  C_32
REMARK    4  A    between atoms: C_11  and  S_13
REMARK    5  A    between atoms: S_13  and  C_14
REMARK    6  A    between atoms: C_14  and  C_15
REMARK    7  A    between atoms: C_15  and  C_16
REMARK    8  A    between atoms: N_18  and  C_19
REMARK    9  A    between atoms: N_22  and  C_25
REMARK   10  A    between atoms: C_25  and  C_26
REMARK   11  A    between atoms: C_32  and  C_33
REMARK   12  A    between atoms: C_33  and  C_34
REMARK   13  A    between atoms: C_33  and  C_35
REMARK                            x       y       z     vdW  Elec       q    Type
REMARK                         _______ _______ _______ _____ _____    ______ ____
ROOT
ATOM      1  C   UNL     1       0.108  -6.785  -0.876  0.00  0.00    +0.085 C 
ENDROOT
BRANCH   1   2
ATOM      2  S   UNL     1       0.115  -7.129   0.905  0.00  0.00    -0.105 S 
BRANCH   2  13
ATOM      3  C   UNL     1      -0.018   1.503   0.010  0.00  0.00    +0.067 C 
ATOM      4  C   UNL     1       0.002  -0.004   0.002  0.00  0.00    +0.061 A 
ATOM      5  C   UNL     1       0.008  -0.817  -1.138  0.00  0.00    +0.048 A 
ATOM      6  C   UNL     1       0.027  -2.106  -0.731  0.00  0.00    +0.045 A 
ATOM      7  N   UNL     1       0.034  -2.108   0.628  0.00  0.00    -0.202 N 
ATOM      8  N   UNL     1       0.023  -0.775   1.058  0.00  0.00    -0.169 NA
ATOM      9  C   UNL     1       0.053  -3.236   1.449  0.00  0.00    +0.253 A 
ATOM     10  N   UNL     1       0.051  -3.078   2.763  0.00  0.00    -0.216 NA
ATOM     11  C   UNL     1       0.068  -4.124   3.576  0.00  0.00    +0.048 A 
ATOM     12  C   UNL     1       0.088  -5.396   3.039  0.00  0.00    +0.058 A 
ATOM     13  C   UNL     1       0.089  -5.532   1.648  0.00  0.00    +0.103 A 
ATOM     14  N   UNL     1       0.066  -4.436   0.894  0.00  0.00    -0.204 NA
ATOM     15  C   UNL     1       0.039  -3.321  -1.622  0.00  0.00    +0.066 C 
BRANCH  11  16
ATOM     16  C   UNL     1       0.067  -3.928   5.070  0.00  0.00    +0.058 C 
BRANCH  16  17
ATOM     17  C   UNL     1       1.234  -3.023   5.467  0.00  0.00    -0.011 C 
ATOM     18  C   UNL     1       1.022  -1.628   4.875  0.00  0.00    +0.007 C 
ATOM     19  C   UNL     1       1.308  -2.924   6.992  0.00  0.00    +0.007 C 
ENDBRANCH  16  17
ENDBRANCH  11  16
ENDBRANCH   2  13
ENDBRANCH   1   2
BRANCH   1  20
ATOM     20  C   UNL     1       0.129  -8.104  -1.651  0.00  0.00    +0.107 C 
BRANCH  20  21
ATOM     21  C   UNL     1       0.124  -7.818  -3.130  0.00  0.00    +0.214 C 
ATOM     22  O   UNL     1       0.104  -6.672  -3.526  0.00  0.00    -0.276 OA
ATOM     23  N   UNL     1       0.140  -8.836  -4.013  0.00  0.00    -0.313 N 
ATOM     24  H   UNL     1       0.155  -9.753  -3.697  0.00  0.00    +0.149 HD
BRANCH  23  25
ATOM     25  C   UNL     1       0.134  -8.558  -5.452  0.00  0.00    +0.069 C 
ATOM     26  C   UNL     1      -1.308  -8.371  -5.931  0.00  0.00    +0.003 C 
ATOM     27  C   UNL     1      -1.312  -8.160  -7.447  0.00  0.00    -0.077 C 
ATOM     28  N   UNL     1      -0.723  -9.330  -8.109  0.00  0.00    +0.382 N 
ATOM     29  C   UNL     1       0.682  -9.473  -7.709  0.00  0.00    -0.077 C 
ATOM     30  C   UNL     1       0.763  -9.735  -6.203  0.00  0.00    +0.003 C 
ATOM     31  H   UNL     1      -1.234 -10.158  -7.843  0.00  0.00    -0.081 HD
BRANCH  28  32
ATOM     32  C   UNL     1      -0.800  -9.157  -9.566  0.00  0.00    -0.043 C 
BRANCH  32  33
ATOM     33  C   UNL     1      -0.308 -10.408 -10.247  0.00  0.00    -0.064 A 
ATOM     34  C   UNL     1       1.031 -10.543 -10.561  0.00  0.00    +0.002 A 
ATOM     35  C   UNL     1       1.482 -11.691 -11.186  0.00  0.00    +0.000 A 
ATOM     36  C   UNL     1       0.594 -12.703 -11.496  0.00  0.00    +0.000 A 
ATOM     37  C   UNL     1      -0.745 -12.568 -11.182  0.00  0.00    +0.000 A 
ATOM     38  C   UNL     1      -1.196 -11.423 -10.553  0.00  0.00    +0.002 A 
ENDBRANCH  32  33
ENDBRANCH  28  32
ENDBRANCH  23  25
ENDBRANCH  20  21
ENDBRANCH   1  20
TORSDOF 9
