REMARK  Name = ZINC22956126
REMARK  7 active torsions:
REMARK  status: ('A' for Active; 'I' for Inactive)
REMARK    1  A    between atoms: C_7  and  C_11
REMARK    2  A    between atoms: C_14  and  S_23
REMARK    3  A    between atoms: N_15  and  C_16
REMARK    4  A    between atoms: C_16  and  C_17
REMARK    5  A    between atoms: S_23  and  C_24
REMARK    6  A    between atoms: C_24  and  C_25
REMARK    7  A    between atoms: C_27  and  C_30
REMARK                            x       y       z     vdW  Elec       q    Type
REMARK                         _______ _______ _______ _____ _____    ______ ____
ROOT
ATOM      1  C   UNL     1      -2.530   1.363   0.017  0.00  0.00    +0.167 A 
ATOM      2  N   UNL     1      -3.610   2.104   0.118  0.00  0.00    -0.128 NA
ATOM      3  N   UNL     1      -4.657   1.360   0.091  0.00  0.00    -0.122 NA
ATOM      4  C   UNL     1      -4.313   0.099  -0.029  0.00  0.00    +0.192 A 
ATOM      5  N   UNL     1      -2.946   0.056  -0.087  0.00  0.00    -0.300 N 
ENDROOT
BRANCH   1  12
ATOM      6  C   UNL     1      -0.182   4.386   2.704  0.00  0.00    +0.001 A 
ATOM      7  C   UNL     1       1.141   4.533   2.311  0.00  0.00    +0.002 A 
ATOM      8  C   UNL     1       1.638   3.827   1.237  0.00  0.00    +0.026 A 
ATOM      9  C   UNL     1       0.806   2.958   0.537  0.00  0.00    +0.047 A 
ATOM     10  C   UNL     1      -0.532   2.813   0.940  0.00  0.00    +0.010 A 
ATOM     11  C   UNL     1      -1.014   3.536   2.030  0.00  0.00    +0.011 A 
ATOM     12  C   UNL     1      -1.134   1.843   0.010  0.00  0.00    +0.044 A 
ATOM     13  C   UNL     1      -0.153   1.474  -0.854  0.00  0.00    +0.095 A 
ATOM     14  N   UNL     1       1.002   2.134  -0.550  0.00  0.00    -0.360 N 
ATOM     15  H   UNL     1       1.988   2.087  -1.034  0.00  0.00    +0.165 HD
ENDBRANCH   1  12
BRANCH   5  16
ATOM     16  C   UNL     1      -2.103  -1.134  -0.226  0.00  0.00    +0.157 C 
BRANCH  16  17
ATOM     17  C   UNL     1      -1.863  -1.753   1.152  0.00  0.00    +0.138 C 
ATOM     18  C   UNL     1      -1.048  -3.064   1.018  0.00  0.00    +0.035 C 
ATOM     19  C   UNL     1      -0.388  -3.145   2.423  0.00  0.00    +0.031 C 
ATOM     20  C   UNL     1      -0.155  -1.657   2.764  0.00  0.00    +0.160 C 
ATOM     21  O   UNL     1      -1.048  -0.883   1.954  0.00  0.00    -0.375 OA
ENDBRANCH  16  17
ENDBRANCH   5  16
BRANCH   4  22
ATOM     22  S   UNL     1      -5.406  -1.281  -0.109  0.00  0.00    -0.078 S 
BRANCH  22  23
ATOM     23  C   UNL     1      -6.997  -0.428   0.019  0.00  0.00    +0.157 C 
BRANCH  23  24
ATOM     24  C   UNL     1      -8.114  -1.439  -0.028  0.00  0.00    +0.182 A 
ATOM     25  N   UNL     1      -8.743  -1.875  -1.131  0.00  0.00    -0.191 NA
ATOM     26  C   UNL     1      -9.639  -2.748  -0.706  0.00  0.00    +0.260 A 
ATOM     27  O   UNL     1      -9.523  -2.798   0.630  0.00  0.00    -0.333 OA
ATOM     28  N   UNL     1      -8.647  -2.043   0.993  0.00  0.00    -0.060 NA
BRANCH  26  29
ATOM     29  C   UNL     1     -10.588  -3.514  -1.539  0.00  0.00    +0.058 A 
ATOM     30  C   UNL     1     -11.487  -4.401  -0.944  0.00  0.00    +0.015 A 
ATOM     31  C   UNL     1     -12.370  -5.113  -1.727  0.00  0.00    +0.001 A 
ATOM     32  C   UNL     1     -12.369  -4.950  -3.102  0.00  0.00    +0.001 A 
ATOM     33  C   UNL     1     -11.482  -4.074  -3.700  0.00  0.00    +0.021 A 
ATOM     34  C   UNL     1     -10.595  -3.350  -2.927  0.00  0.00    +0.053 A 
ATOM     35 CL   UNL     1      -9.487  -2.244  -3.678  0.00  0.00    -0.083 Cl
ENDBRANCH  26  29
ENDBRANCH  23  24
ENDBRANCH  22  23
ENDBRANCH   4  22
TORSDOF 7
