REMARK  Name = ZINC22838483
REMARK  7 active torsions:
REMARK  status: ('A' for Active; 'I' for Inactive)
REMARK    1  A    between atoms: C_1  and  C_2
REMARK    2  A    between atoms: C_2  and  C_4
REMARK    3  A    between atoms: C_2  and  S_20
REMARK    4  A    between atoms: N_6  and  C_7
REMARK    5  A    between atoms: C_10  and  N_17
REMARK    6  A    between atoms: C_12  and  C_13
REMARK    7  A    between atoms: S_20  and  C_21
REMARK                            x       y       z     vdW  Elec       q    Type
REMARK                         _______ _______ _______ _____ _____    ______ ____
ROOT
ATOM      1  C   UNL     1      -0.028   1.312  -0.278  0.00  0.00    +0.029 C 
ATOM      2  C   UNL     1      -0.115  -0.215  -0.318  0.00  0.00    +0.137 C 
ENDROOT
BRANCH   2   3
ATOM      3  C   UNL     1       0.466  -0.718  -1.615  0.00  0.00    +0.230 C 
ATOM      4  O   UNL     1      -0.262  -0.942  -2.559  0.00  0.00    -0.274 OA
ATOM      5  N   UNL     1       1.794  -0.919  -1.725  0.00  0.00    -0.284 N 
ATOM      6  H   UNL     1       2.446  -0.778  -0.851  0.00  0.00    +0.155 HD
BRANCH   5   7
ATOM      7  C   UNL     1       2.343  -1.308  -2.952  0.00  0.00    +0.045 A 
ATOM      8  C   UNL     1       1.563  -1.986  -3.880  0.00  0.00    +0.026 A 
ATOM      9  C   UNL     1       2.108  -2.369  -5.090  0.00  0.00    +0.034 A 
ATOM     10  C   UNL     1       3.429  -2.076  -5.378  0.00  0.00    +0.127 A 
ATOM     11  C   UNL     1       4.208  -1.401  -4.457  0.00  0.00    +0.047 A 
ATOM     12  C   UNL     1       3.667  -1.011  -3.247  0.00  0.00    +0.078 A 
BRANCH  12  13
ATOM     13  C   UNL     1       4.515  -0.270  -2.246  0.00  0.00    +0.419 C 
ATOM     14  F   UNL     1       5.801  -0.090  -2.766  0.00  0.00    -0.166 F 
ATOM     15  F   UNL     1       3.940   0.978  -1.981  0.00  0.00    -0.166 F 
ATOM     16  F   UNL     1       4.591  -1.010  -1.061  0.00  0.00    -0.166 F 
ENDBRANCH  12  13
BRANCH  10  17
ATOM     17  N   UNL     1       4.009  -2.487  -6.676  0.00  0.00    +0.056 N 
ATOM     18  O   UNL     1       3.324  -3.082  -7.489  0.00  0.00    -0.126 OA
ATOM     19  O   UNL     1       5.172  -2.231  -6.932  0.00  0.00    -0.126 OA
ENDBRANCH  10  17
ENDBRANCH   5   7
ENDBRANCH   2   3
BRANCH   2  20
ATOM     20  S   UNL     1      -1.847  -0.725  -0.195  0.00  0.00    -0.073 S 
BRANCH  20  21
ATOM     21  C   UNL     1      -2.219  -0.155   1.431  0.00  0.00    +0.192 A 
ATOM     22  N   UNL     1      -1.273   0.447   2.142  0.00  0.00    -0.207 NA
ATOM     23  C   UNL     1      -1.494   0.899   3.365  0.00  0.00    +0.129 A 
ATOM     24  C   UNL     1      -2.782   0.730   3.947  0.00  0.00    +0.051 A 
ATOM     25  C   UNL     1      -3.248   1.142   5.273  0.00  0.00    -0.025 A 
ATOM     26  C   UNL     1      -4.528   0.860   5.586  0.00  0.00    -0.004 A 
ATOM     27  S   UNL     1      -5.184   0.041   4.157  0.00  0.00    -0.073 S 
ATOM     28  C   UNL     1      -3.733   0.078   3.138  0.00  0.00    +0.115 A 
ATOM     29  N   UNL     1      -3.436  -0.342   1.923  0.00  0.00    -0.214 NA
ATOM     30  C   UNL     1      -5.239   1.174   6.867  0.00  0.00    +0.043 C 
ATOM     31  C   UNL     1      -4.190   1.540   7.927  0.00  0.00    +0.005 C 
ATOM     32  C   UNL     1      -3.210   2.548   7.321  0.00  0.00    +0.005 C 
ATOM     33  C   UNL     1      -2.341   1.859   6.269  0.00  0.00    +0.037 C 
ATOM     34  N   UNL     1      -0.484   1.526   4.072  0.00  0.00    -0.343 N 
ATOM     35  H   UNL     1      -0.675   1.900   5.088  0.00  0.00    +0.144 HD
ATOM     36  H   UNL     1       0.510   1.650   3.618  0.00  0.00    +0.144 HD
ENDBRANCH  20  21
ENDBRANCH   2  20
TORSDOF 6
