REMARK  Name = ZINC59170550
REMARK  6 active torsions:
REMARK  status: ('A' for Active; 'I' for Inactive)
REMARK    1  A    between atoms: C_3  and  N_8
REMARK    2  A    between atoms: C_9  and  C_11
REMARK    3  A    between atoms: C_15  and  N_32
REMARK    4  A    between atoms: N_21  and  C_22
REMARK    5  A    between atoms: C_25  and  S_28
REMARK    6  A    between atoms: S_28  and  N_31
REMARK                            x       y       z     vdW  Elec       q    Type
REMARK                         _______ _______ _______ _____ _____    ______ ____
ROOT
ATOM      1  C   UNL     1       5.991   2.223   0.217  0.00  0.00    +0.098 A 
ATOM      2  C   UNL     1       7.213   1.564   0.191  0.00  0.00    +0.030 A 
ATOM      3  C   UNL     1       8.423   2.387   0.242  0.00  0.00    +0.020 A 
ATOM      4  C   UNL     1       9.678   1.837  -0.046  0.00  0.00    +0.044 A 
ATOM      5  C   UNL     1      10.792   2.626   0.004  0.00  0.00    +0.127 A 
ATOM      6  C   UNL     1      10.690   3.969   0.339  0.00  0.00    +0.036 A 
ATOM      7  C   UNL     1       9.463   4.531   0.627  0.00  0.00    +0.049 A 
ATOM      8  C   UNL     1       8.318   3.749   0.584  0.00  0.00    +0.138 A 
ATOM      9  O   UNL     1       7.106   4.281   0.870  0.00  0.00    -0.439 OA
ATOM     10  C   UNL     1       6.024   3.698   0.288  0.00  0.00    +0.212 A 
ATOM     11  N   UNL     1       5.037   4.422  -0.193  0.00  0.00    -0.325 N 
ATOM     12  H   UNL     1       4.325   3.997  -0.698  0.00  0.00    +0.169 HD
ENDROOT
BRANCH  11  13
ATOM     13  C   UNL     1       5.013   5.772   0.019  0.00  0.00    +0.042 A 
ATOM     14  C   UNL     1       5.298   6.290   1.285  0.00  0.00    +0.027 A 
ATOM     15  C   UNL     1       5.272   7.653   1.491  0.00  0.00    +0.030 A 
ATOM     16  C   UNL     1       4.965   8.508   0.447  0.00  0.00    +0.105 A 
ATOM     17  C   UNL     1       4.682   8.003  -0.809  0.00  0.00    +0.030 A 
ATOM     18  C   UNL     1       4.710   6.642  -1.032  0.00  0.00    +0.027 A 
BRANCH  16  19
ATOM     19  S   UNL     1       4.933  10.249   0.720  0.00  0.00    +0.056 S 
ATOM     20  O   UNL     1       4.086  10.801  -0.278  0.00  0.00    -0.153 OA
ATOM     21  O   UNL     1       4.699  10.438   2.109  0.00  0.00    -0.153 OA
BRANCH  19  22
ATOM     22  N   UNL     1       6.458  10.820   0.416  0.00  0.00    -0.204 NA
ATOM     23  H   UNL     1       7.159  10.208   0.143  0.00  0.00    +0.144 HD
ATOM     24  H   UNL     1       6.649  11.766   0.511  0.00  0.00    +0.144 HD
ENDBRANCH  19  22
ENDBRANCH  16  19
ENDBRANCH  11  13
BRANCH   1  26
ATOM     25  N   UNL     1       3.552   2.140   0.334  0.00  0.00    -0.281 N 
ATOM     26  C   UNL     1       4.718   1.485   0.170  0.00  0.00    +0.253 C 
ATOM     27  O   UNL     1       4.719   0.283  -0.018  0.00  0.00    -0.270 OA
ATOM     28  H   UNL     1       3.548   3.105   0.431  0.00  0.00    +0.155 HD
BRANCH  25  31
ATOM     29  C   UNL     1       0.126   1.145   1.220  0.00  0.00    +0.003 A 
ATOM     30  C   UNL     1       1.314   1.849   1.191  0.00  0.00    +0.023 A 
ATOM     31  C   UNL     1       2.349   1.429   0.366  0.00  0.00    +0.035 A 
ATOM     32  C   UNL     1       2.186   0.301  -0.428  0.00  0.00    +0.043 A 
ATOM     33  C   UNL     1       0.995  -0.399  -0.395  0.00  0.00    +0.043 A 
ATOM     34  C   UNL     1      -0.035   0.022   0.429  0.00  0.00    +0.020 A 
ATOM     35 CL   UNL     1       0.789  -1.809  -1.387  0.00  0.00    -0.083 Cl
ENDBRANCH  25  31
ENDBRANCH   1  26
BRANCH   5  36
ATOM     36  N   UNL     1      12.119   2.044  -0.300  0.00  0.00    +0.056 N 
ATOM     37  O   UNL     1      12.213   0.875  -0.591  0.00  0.00    -0.126 OA
ATOM     38  O   UNL     1      13.108   2.738  -0.256  0.00  0.00    -0.126 OA
ENDBRANCH   5  36
TORSDOF 6
