REMARK  Name = ZINC09264223
REMARK  4 active torsions:
REMARK  status: ('A' for Active; 'I' for Inactive)
REMARK    1  A    between atoms: C_1  and  C_2
REMARK    2  A    between atoms: C_5  and  C_8
REMARK    3  A    between atoms: C_20  and  C_22
REMARK    4  A    between atoms: C_32  and  C_35
REMARK                            x       y       z     vdW  Elec       q    Type
REMARK                         _______ _______ _______ _____ _____    ______ ____
ROOT
ATOM      1  C   UNL     1       2.654   0.496   0.953  0.00  0.00    +0.252 C 
ATOM      2  O   UNL     1       3.832   0.217   1.068  0.00  0.00    -0.270 OA
ATOM      3  N   UNL     1       2.142   0.766  -0.264  0.00  0.00    -0.254 N 
ATOM      4  C   UNL     1       0.777   1.022  -0.392  0.00  0.00    +0.059 A 
ATOM      5  C   UNL     1      -0.168   0.034  -0.166  0.00  0.00    +0.025 A 
ATOM      6  C   UNL     1      -1.507   0.314  -0.370  0.00  0.00    +0.002 A 
ATOM      7  C   UNL     1      -1.903   1.567  -0.801  0.00  0.00    +0.002 A 
ATOM      8  C   UNL     1      -0.963   2.558  -1.025  0.00  0.00    +0.025 A 
ATOM      9  C   UNL     1       0.376   2.285  -0.801  0.00  0.00    +0.053 A 
ATOM     10  N   UNL     1       1.363   3.253  -0.935  0.00  0.00    -0.316 N 
ATOM     11  C   UNL     1       2.374   3.207  -1.841  0.00  0.00    +0.017 C 
ATOM     12  C   UNL     1       3.144   2.135  -2.082  0.00  0.00    +0.037 C 
ATOM     13  C   UNL     1       3.017   0.784  -1.417  0.00  0.00    +0.147 C 
ATOM     14  C   UNL     1       4.191   2.207  -3.032  0.00  0.00    +0.163 C 
ATOM     15  O   UNL     1       4.862   1.216  -3.240  0.00  0.00    -0.292 OA
ATOM     16  C   UNL     1       4.501   3.463  -3.789  0.00  0.00    +0.091 C 
ATOM     17  C   UNL     1       4.077   4.665  -2.936  0.00  0.00    +0.068 C 
ATOM     18  C   UNL     1       2.595   4.501  -2.607  0.00  0.00    +0.063 C 
ATOM     19  H   UNL     1       1.327   4.017  -0.339  0.00  0.00    +0.152 HD
ENDROOT
BRANCH   1  24
ATOM     20  C   UNL     1      -0.730   0.672   5.604  0.00  0.00    +0.044 C 
ATOM     21  C   UNL     1       0.156   0.625   4.385  0.00  0.00    -0.050 A 
ATOM     22  C   UNL     1       1.332  -0.104   4.416  0.00  0.00    +0.004 A 
ATOM     23  C   UNL     1       2.148  -0.150   3.305  0.00  0.00    +0.013 A 
ATOM     24  C   UNL     1       1.785   0.541   2.147  0.00  0.00    +0.037 A 
ATOM     25  C   UNL     1       0.600   1.278   2.124  0.00  0.00    +0.013 A 
ATOM     26  C   UNL     1      -0.209   1.312   3.241  0.00  0.00    +0.004 A 
ENDBRANCH   1  24
BRANCH  13  27
ATOM     27  C   UNL     1       2.492  -0.198  -2.433  0.00  0.00    -0.022 A 
ATOM     28  C   UNL     1       3.287  -1.247  -2.855  0.00  0.00    +0.007 A 
ATOM     29  C   UNL     1       2.803  -2.151  -3.782  0.00  0.00    +0.020 A 
ATOM     30  C   UNL     1       1.527  -2.000  -4.295  0.00  0.00    +0.041 A 
ATOM     31  C   UNL     1       0.734  -0.947  -3.876  0.00  0.00    +0.020 A 
ATOM     32  C   UNL     1       1.216  -0.046  -2.945  0.00  0.00    +0.007 A 
ATOM     33 CL   UNL     1       0.922  -3.131  -5.465  0.00  0.00    -0.084 Cl
ENDBRANCH  13  27
BRANCH  17  34
ATOM     34  C   UNL     1       4.291   5.941  -3.709  0.00  0.00    +0.109 A 
ATOM     35  C   UNL     1       5.091   6.958  -3.343  0.00  0.00    +0.045 A 
ATOM     36  C   UNL     1       4.991   7.942  -4.353  0.00  0.00    +0.041 A 
ATOM     37  C   UNL     1       4.136   7.468  -5.276  0.00  0.00    +0.195 A 
ATOM     38  O   UNL     1       3.720   6.252  -4.884  0.00  0.00    -0.468 OA
ENDBRANCH  17  34
TORSDOF 3
