REMARK  Name = ZINC12307973
REMARK  7 active torsions:
REMARK  status: ('A' for Active; 'I' for Inactive)
REMARK    1  A    between atoms: C_4  and  O_27
REMARK    2  A    between atoms: C_5  and  N_7
REMARK    3  A    between atoms: C_8  and  C_10
REMARK    4  A    between atoms: N_15  and  C_17
REMARK    5  A    between atoms: C_17  and  C_18
REMARK    6  A    between atoms: C_19  and  C_20
REMARK    7  A    between atoms: O_27  and  C_28
REMARK                            x       y       z     vdW  Elec       q    Type
REMARK                         _______ _______ _______ _____ _____    ______ ____
ROOT
ATOM      1  N   UNL     1       1.539  -2.018   0.169  0.00  0.00    -0.282 N 
ATOM      2  C   UNL     1       0.442  -2.800   0.202  0.00  0.00    +0.219 C 
ATOM      3  O   UNL     1      -0.619  -2.376  -0.206  0.00  0.00    -0.275 OA
ATOM      4  H   UNL     1       2.401  -2.380   0.427  0.00  0.00    +0.155 HD
ENDROOT
BRANCH   2   5
ATOM      5  C   UNL     1       0.532  -4.202   0.746  0.00  0.00    +0.059 C 
ATOM      6  C   UNL     1       0.995  -4.156   2.205  0.00  0.00    +0.009 C 
ATOM      7  C   UNL     1       1.009  -5.578   2.772  0.00  0.00    -0.018 C 
ATOM      8  C   UNL     1      -0.385  -6.194   2.625  0.00  0.00    -0.078 C 
ATOM      9  N   UNL     1      -0.758  -6.234   1.206  0.00  0.00    +0.382 N 
ATOM     10  C   UNL     1      -0.843  -4.869   0.673  0.00  0.00    -0.066 C 
ATOM     11  H   UNL     1      -0.062  -6.752   0.691  0.00  0.00    -0.081 HD
BRANCH   9  12
ATOM     12  C   UNL     1      -2.062  -6.896   1.063  0.00  0.00    -0.051 C 
BRANCH  12  13
ATOM     13  C   UNL     1      -1.942  -8.337   1.486  0.00  0.00    -0.045 C 
ATOM     14  C   UNL     1      -2.747  -8.822   2.421  0.00  0.00    +0.002 C 
BRANCH  14  15
ATOM     15  C   UNL     1      -2.630 -10.236   2.836  0.00  0.00    -0.025 A 
ATOM     16  C   UNL     1      -1.670 -11.061   2.249  0.00  0.00    +0.011 A 
ATOM     17  C   UNL     1      -1.565 -12.380   2.640  0.00  0.00    +0.039 A 
ATOM     18  C   UNL     1      -2.411 -12.886   3.614  0.00  0.00    +0.123 A 
ATOM     19  C   UNL     1      -3.367 -12.071   4.199  0.00  0.00    +0.039 A 
ATOM     20  C   UNL     1      -3.476 -10.749   3.820  0.00  0.00    +0.011 A 
ATOM     21  F   UNL     1      -2.305 -14.178   3.992  0.00  0.00    -0.205 F 
ENDBRANCH  14  15
ENDBRANCH  12  13
ENDBRANCH   9  12
ENDBRANCH   2   5
BRANCH   1  26
ATOM     22  C   UNL     1       0.102   1.274  -0.626  0.00  0.00    +0.002 A 
ATOM     23  C   UNL     1       1.226   1.960  -1.047  0.00  0.00    +0.004 A 
ATOM     24  C   UNL     1       2.457   1.331  -1.067  0.00  0.00    +0.048 A 
ATOM     25  C   UNL     1       2.567   0.010  -0.664  0.00  0.00    +0.150 A 
ATOM     26  C   UNL     1       1.434  -0.682  -0.239  0.00  0.00    +0.076 A 
ATOM     27  C   UNL     1       0.202  -0.044  -0.222  0.00  0.00    +0.027 A 
BRANCH  25  28
ATOM     28  O   UNL     1       3.776  -0.611  -0.683  0.00  0.00    -0.453 OA
BRANCH  28  29
ATOM     29  C   UNL     1       4.859   0.115  -1.069  0.00  0.00    +0.147 A 
ATOM     30  C   UNL     1       5.465   1.002  -0.185  0.00  0.00    +0.049 A 
ATOM     31  C   UNL     1       6.566   1.719  -0.624  0.00  0.00    +0.023 A 
ATOM     32  C   UNL     1       7.024   1.531  -1.915  0.00  0.00    +0.111 A 
ATOM     33  N   UNL     1       6.426   0.682  -2.728  0.00  0.00    -0.260 NA
ATOM     34  C   UNL     1       5.379  -0.023  -2.348  0.00  0.00    +0.156 A 
ENDBRANCH  28  29
ENDBRANCH  25  28
ENDBRANCH   1  26
TORSDOF 7
