REMARK  Name = ZINC20879865
REMARK  5 active torsions:
REMARK  status: ('A' for Active; 'I' for Inactive)
REMARK    1  A    between atoms: C_1  and  O_2
REMARK    2  A    between atoms: O_2  and  C_3
REMARK    3  A    between atoms: C_12  and  C_13
REMARK    4  A    between atoms: C_13  and  N_14
REMARK    5  A    between atoms: N_14  and  C_15
REMARK                            x       y       z     vdW  Elec       q    Type
REMARK                         _______ _______ _______ _____ _____    ______ ____
ROOT
ATOM      1  N   UNL     1      -1.836   6.228   1.432  0.00  0.00    -0.340 N 
ATOM      2  H   UNL     1      -1.207   5.872   2.261  0.00  0.00    +0.146 HD
ENDROOT
BRANCH   1   3
ATOM      3  C   UNL     1      -3.031   6.904   1.702  0.00  0.00    +0.029 A 
ATOM      4  C   UNL     1      -3.825   7.355   0.653  0.00  0.00    +0.025 A 
ATOM      5  C   UNL     1      -5.005   8.022   0.913  0.00  0.00    +0.029 A 
ATOM      6  C   UNL     1      -5.400   8.245   2.224  0.00  0.00    +0.067 A 
ATOM      7  C   UNL     1      -4.605   7.795   3.279  0.00  0.00    +0.069 A 
ATOM      8  C   UNL     1      -3.423   7.119   3.015  0.00  0.00    +0.050 A 
ATOM      9  N   UNL     1      -5.252   8.161   4.456  0.00  0.00    -0.306 N 
ATOM     10  H   UNL     1      -4.807   7.909   5.430  0.00  0.00    +0.170 HD
ATOM     11  C   UNL     1      -6.389   8.805   4.134  0.00  0.00    +0.325 A 
ATOM     12  O   UNL     1      -7.189   9.257   4.932  0.00  0.00    -0.247 OA
ATOM     13  N   UNL     1      -6.508   8.873   2.794  0.00  0.00    -0.306 N 
ATOM     14  H   UNL     1      -7.284   9.312   2.150  0.00  0.00    +0.170 HD
ENDBRANCH   1   3
BRANCH   1  15
ATOM     15  C   UNL     1      -1.423   5.995   0.046  0.00  0.00    +0.141 C 
BRANCH  15  25
ATOM     16  C   UNL     1       1.067   5.942   0.023  0.00  0.00    +0.125 A 
ATOM     17  C   UNL     1       2.292   5.268   0.009  0.00  0.00    +0.046 A 
ATOM     18  C   UNL     1       2.342   3.909   0.001  0.00  0.00    +0.012 A 
ATOM     19  C   UNL     1       1.148   3.167   0.008  0.00  0.00    -0.017 A 
ATOM     20  C   UNL     1       1.163   1.762   0.000  0.00  0.00    +0.008 A 
ATOM     21  C   UNL     1      -0.013   1.076   0.008  0.00  0.00    +0.001 A 
ATOM     22  C   UNL     1      -1.235   1.746   0.017  0.00  0.00    +0.001 A 
ATOM     23  C   UNL     1      -1.288   3.105   0.030  0.00  0.00    +0.009 A 
ATOM     24  C   UNL     1      -0.095   3.849   0.023  0.00  0.00    -0.010 A 
ATOM     25  C   UNL     1      -0.112   5.253   0.030  0.00  0.00    +0.019 A 
BRANCH  16  27
ATOM     26  C   UNL     1       2.315   7.966   0.022  0.00  0.00    +0.277 C 
ATOM     27  O   UNL     1       1.050   7.301   0.030  0.00  0.00    -0.495 OA
ENDBRANCH  16  27
ENDBRANCH  15  25
ENDBRANCH   1  15
TORSDOF 4
