REMARK  Name = ZINC21026965
REMARK  7 active torsions:
REMARK  status: ('A' for Active; 'I' for Inactive)
REMARK    1  A    between atoms: C_1  and  N_2
REMARK    2  A    between atoms: N_2  and  C_3
REMARK    3  A    between atoms: N_2  and  C_27
REMARK    4  A    between atoms: C_3  and  C_4
REMARK    5  A    between atoms: C_4  and  C_5
REMARK    6  A    between atoms: C_5  and  N_6
REMARK    7  A    between atoms: C_7  and  C_9
REMARK                            x       y       z     vdW  Elec       q    Type
REMARK                         _______ _______ _______ _____ _____    ______ ____
ROOT
ATOM      1  C   UNL     1      -7.115   4.786   5.939  0.00  0.00    +0.092 C 
ATOM      2  C   UNL     1      -6.304   5.875   6.646  0.00  0.00    +0.016 C 
ATOM      3  C   UNL     1      -4.874   5.375   6.866  0.00  0.00    +0.020 C 
ATOM      4  C   UNL     1      -4.257   5.000   5.516  0.00  0.00    +0.107 C 
ATOM      5  N   UNL     1      -5.068   3.955   4.879  0.00  0.00    -0.307 N 
ATOM      6  C   UNL     1      -6.433   4.428   4.616  0.00  0.00    +0.119 C 
ATOM      7  C   UNL     1      -4.466   3.498   3.714  0.00  0.00    +0.186 A 
ATOM      8  N   UNL     1      -4.950   3.448   2.487  0.00  0.00    -0.124 NA
ATOM      9  N   UNL     1      -4.173   2.953   1.465  0.00  0.00    -0.124 NA
ATOM     10  C   UNL     1      -2.949   2.531   1.716  0.00  0.00    +0.192 A 
ATOM     11  S   UNL     1      -2.832   2.817   3.476  0.00  0.00    -0.015 S 
ATOM     12  N   UNL     1      -2.003   2.000   0.844  0.00  0.00    -0.249 N 
ATOM     13  C   UNL     1      -2.219   1.807  -0.595  0.00  0.00    +0.116 C 
ATOM     14  C   UNL     1      -0.811   1.623  -1.203  0.00  0.00    +0.029 C 
ATOM     15  C   UNL     1      -0.013   1.086   0.008  0.00  0.00    +0.098 C 
ATOM     16  C   UNL     1      -0.771   1.598   1.213  0.00  0.00    +0.221 C 
ATOM     17  O   UNL     1      -0.333   1.640   2.343  0.00  0.00    -0.275 OA
ENDROOT
BRANCH   1  19
ATOM     18  N   UNL     1      -9.403   4.500   5.043  0.00  0.00    -0.315 N 
ATOM     19  C   UNL     1      -8.508   5.292   5.666  0.00  0.00    +0.218 C 
ATOM     20  O   UNL     1      -8.824   6.412   6.008  0.00  0.00    -0.275 OA
ATOM     21  H   UNL     1      -9.116   3.484   4.733  0.00  0.00    +0.149 HD
BRANCH  18  22
ATOM     22  C   UNL     1     -10.757   4.992   4.778  0.00  0.00    +0.102 C 
BRANCH  22  23
ATOM     23  C   UNL     1     -11.565   3.905   4.066  0.00  0.00    +0.000 C 
BRANCH  23  24
ATOM     24  C   UNL     1     -12.979   4.419   3.789  0.00  0.00    -0.077 C 
BRANCH  24  26
ATOM     25  C   UNL     1     -13.211   3.107   1.767  0.00  0.00    -0.096 C 
ATOM     26  N   UNL     1     -13.754   3.375   3.106  0.00  0.00    +0.380 N 
ATOM     27  H   UNL     1     -13.670   2.450   3.696  0.00  0.00    -0.082 HD
BRANCH  26  28
ATOM     28  C   UNL     1     -15.176   3.737   3.035  0.00  0.00    -0.069 C 
ATOM     29  C   UNL     1     -15.729   3.911   4.451  0.00  0.00    -0.015 C 
ATOM     30  C   UNL     1     -17.210   4.288   4.377  0.00  0.00    -0.002 C 
ATOM     31  C   UNL     1     -17.984   3.179   3.660  0.00  0.00    -0.000 C 
ATOM     32  C   UNL     1     -17.430   3.005   2.244  0.00  0.00    -0.002 C 
ATOM     33  C   UNL     1     -15.949   2.628   2.318  0.00  0.00    -0.015 C 
ENDBRANCH  26  28
ENDBRANCH  24  26
ENDBRANCH  23  24
ENDBRANCH  22  23
ENDBRANCH  18  22
ENDBRANCH   1  19
TORSDOF 6
