REMARK  Name = ZINC20150636
REMARK  12 active torsions:
REMARK  status: ('A' for Active; 'I' for Inactive)
REMARK    1  A    between atoms: C_1  and  N_2
REMARK    2  A    between atoms: N_2  and  C_3
REMARK    3  A    between atoms: N_2  and  C_4
REMARK    4  A    between atoms: C_7  and  C_10
REMARK    5  A    between atoms: N_18  and  C_21
REMARK    6  A    between atoms: C_27  and  C_29
REMARK    7  A    between atoms: C_27  and  C_33
REMARK    8  A    between atoms: C_29  and  C_30
REMARK    9  A    between atoms: C_30  and  S_31
REMARK   10  A    between atoms: S_31  and  C_32
REMARK   11  A    between atoms: C_33  and  O_35
REMARK   12  A    between atoms: O_35  and  C_36
REMARK                            x       y       z     vdW  Elec       q    Type
REMARK                         _______ _______ _______ _____ _____    ______ ____
ROOT
ATOM      1  C   UNL     1      -0.006  -2.813  -4.924  0.00  0.00    +0.097 C 
ATOM      2  C   UNL     1       1.357  -2.714  -5.587  0.00  0.00    +0.111 C 
ATOM      3  C   UNL     1       1.152  -1.345  -6.342  0.00  0.00    +0.120 C 
ATOM      4  C   UNL     1       2.508  -0.987  -6.672  0.00  0.00    +0.232 C 
ATOM      5  O   UNL     1       2.896  -0.398  -7.658  0.00  0.00    -0.274 OA
ATOM      6  N   UNL     1       3.266  -1.455  -5.627  0.00  0.00    -0.210 N 
ATOM      7  C   UNL     1       2.577  -2.325  -4.812  0.00  0.00    +0.232 C 
ATOM      8  O   UNL     1       2.885  -2.697  -3.700  0.00  0.00    -0.274 OA
ATOM      9  C   UNL     1      -0.153  -1.549  -6.993  0.00  0.00    +0.130 C 
ATOM     10  N   UNL     1      -0.965  -2.179  -5.879  0.00  0.00    -0.293 NA
ATOM     11  H   UNL     1      -1.611  -2.860  -6.248  0.00  0.00    +0.124 HD
ENDROOT
BRANCH   1  15
ATOM     12  C   UNL     1       0.000  -0.696  -1.212  0.00  0.00    +0.029 A 
ATOM     13  C   UNL     1       0.241  -2.064  -1.233  0.00  0.00    +0.023 A 
ATOM     14  C   UNL     1       0.237  -2.745  -2.435  0.00  0.00    +0.007 A 
ATOM     15  C   UNL     1      -0.005  -2.066  -3.615  0.00  0.00    -0.030 A 
ATOM     16  C   UNL     1      -0.245  -0.705  -3.597  0.00  0.00    +0.007 A 
ATOM     17  C   UNL     1      -0.249  -0.018  -2.399  0.00  0.00    +0.023 A 
BRANCH  12  19
ATOM     18  C   UNL     1      -0.258   1.438   0.024  0.00  0.00    +0.129 C 
ATOM     19  N   UNL     1       0.002  -0.004   0.002  0.00  0.00    -0.336 N 
ATOM     20  C   UNL     1       0.264  -0.720   1.253  0.00  0.00    +0.129 C 
ENDBRANCH  12  19
ENDBRANCH   1  15
BRANCH   6  21
ATOM     21  C   UNL     1       4.604  -1.095  -5.415  0.00  0.00    +0.044 A 
ATOM     22  C   UNL     1       5.234  -0.215  -6.285  0.00  0.00    +0.024 A 
ATOM     23  C   UNL     1       6.552   0.138  -6.074  0.00  0.00    +0.002 A 
ATOM     24  C   UNL     1       7.246  -0.385  -4.997  0.00  0.00    +0.000 A 
ATOM     25  C   UNL     1       6.621  -1.262  -4.130  0.00  0.00    +0.002 A 
ATOM     26  C   UNL     1       5.301  -1.613  -4.332  0.00  0.00    +0.024 A 
ENDBRANCH   6  21
BRANCH   9  27
ATOM     27  C   UNL     1      -0.023  -2.476  -8.175  0.00  0.00    +0.328 C 
ATOM     28  O   UNL     1       1.036  -2.582  -8.745  0.00  0.00    -0.249 OA
BRANCH  27  29
ATOM     29  O   UNL     1      -1.085  -3.183  -8.593  0.00  0.00    -0.467 OA
ATOM     30  C   UNL     1      -0.890  -4.042  -9.718  0.00  0.00    +0.280 C 
ENDBRANCH  27  29
ENDBRANCH   9  27
BRANCH   9  31
ATOM     31  C   UNL     1      -0.766  -0.212  -7.414  0.00  0.00    +0.045 C 
BRANCH  31  32
ATOM     32  C   UNL     1      -2.171  -0.448  -7.972  0.00  0.00    +0.071 C 
BRANCH  32  33
ATOM     33  S   UNL     1      -2.897   1.138  -8.470  0.00  0.00    -0.164 S 
ATOM     34  C   UNL     1      -4.538   0.690  -9.102  0.00  0.00    +0.084 C 
ENDBRANCH  32  33
ENDBRANCH  31  32
ENDBRANCH   9  31
TORSDOF 8
