REMARK  Name = ZINC34661433
REMARK  4 active torsions:
REMARK  status: ('A' for Active; 'I' for Inactive)
REMARK    1  A    between atoms: C_1  and  N_2
REMARK    2  A    between atoms: C_7  and  O_30
REMARK    3  A    between atoms: C_14  and  N_18
REMARK    4  A    between atoms: C_15  and  N_17
REMARK                            x       y       z     vdW  Elec       q    Type
REMARK                         _______ _______ _______ _____ _____    ______ ____
ROOT
ATOM      1  C   UNL     1       0.038   1.467   0.016  0.00  0.00    +0.149 C 
ATOM      2  N   UNL     1       0.029   0.002   0.003  0.00  0.00    -0.343 N 
ATOM      3  C   UNL     1      -0.072  -0.660  -1.204  0.00  0.00    +0.060 A 
ATOM      4  C   UNL     1      -0.472   0.022  -2.346  0.00  0.00    +0.077 A 
ATOM      5  C   UNL     1      -0.568  -0.645  -3.556  0.00  0.00    +0.184 A 
ATOM      6  C   UNL     1      -0.265  -2.000  -3.646  0.00  0.00    +0.097 A 
ATOM      7  C   UNL     1       0.134  -2.698  -2.522  0.00  0.00    +0.133 A 
ATOM      8  C   UNL     1       0.227  -2.033  -1.291  0.00  0.00    +0.087 A 
ATOM      9  C   UNL     1       0.633  -2.750  -0.072  0.00  0.00    +0.201 A 
ATOM     10  O   UNL     1       1.120  -3.866  -0.123  0.00  0.00    -0.286 OA
ATOM     11  C   UNL     1       0.426  -2.057   1.212  0.00  0.00    +0.048 A 
ATOM     12  C   UNL     1       0.128  -0.683   1.200  0.00  0.00    +0.055 A 
ATOM     13  C   UNL     1      -0.071  -0.020   2.405  0.00  0.00    +0.051 A 
ATOM     14  C   UNL     1       0.034  -0.709   3.601  0.00  0.00    +0.053 A 
ATOM     15  C   UNL     1       0.340  -2.076   3.609  0.00  0.00    +0.047 A 
ATOM     16  C   UNL     1       0.527  -2.748   2.423  0.00  0.00    +0.038 A 
ATOM     17  O   UNL     1      -0.961   0.030  -4.666  0.00  0.00    -0.288 OA
ENDROOT
BRANCH  14  18
ATOM     18  N   UNL     1      -0.167  -0.038   4.806  0.00  0.00    -0.325 N 
ATOM     19  C   UNL     1       0.958   0.604   5.501  0.00  0.00    +0.124 C 
ATOM     20  C   UNL     1       0.612   2.079   5.734  0.00  0.00    +0.125 C 
ATOM     21  N   UNL     1      -0.729   2.158   6.332  0.00  0.00    -0.314 N 
ATOM     22  C   UNL     1      -1.853   1.516   5.637  0.00  0.00    +0.125 C 
ATOM     23  C   UNL     1      -1.508   0.045   5.401  0.00  0.00    +0.124 C 
ATOM     24  C   UNL     1      -0.929   2.828   7.534  0.00  0.00    +0.099 A 
ATOM     25  C   UNL     1       0.117   3.544   8.107  0.00  0.00    +0.042 A 
ATOM     26  C   UNL     1      -0.096   4.205   9.303  0.00  0.00    +0.005 A 
ATOM     27  C   UNL     1      -1.353   4.128   9.888  0.00  0.00    +0.018 A 
ATOM     28  C   UNL     1      -2.345   3.399   9.264  0.00  0.00    +0.084 A 
ATOM     29  N   UNL     1      -2.115   2.782   8.121  0.00  0.00    -0.350 N 
ATOM     30  H   UNL     1      -2.831   2.280   7.702  0.00  0.00    +0.166 HD
ENDBRANCH  14  18
BRANCH  15  31
ATOM     31  N   UNL     1       0.446  -2.763   4.827  0.00  0.00    -0.357 N 
ATOM     32  H   UNL     1       0.307  -2.291   5.663  0.00  0.00    +0.142 HD
ATOM     33  H   UNL     1       0.658  -3.709   4.833  0.00  0.00    +0.142 HD
ENDBRANCH  15  31
BRANCH   7  34
ATOM     34  O   UNL     1       0.432  -4.019  -2.608  0.00  0.00    -0.506 OA
ATOM     35  H   UNL     1       1.361  -4.200  -2.807  0.00  0.00    +0.292 HD
ENDBRANCH   7  34
TORSDOF 3
