REMARK  Name = ZINC14247644
REMARK  10 active torsions:
REMARK  status: ('A' for Active; 'I' for Inactive)
REMARK    1  A    between atoms: C_1  and  C_2
REMARK    2  A    between atoms: C_2  and  C_3
REMARK    3  A    between atoms: C_6  and  C_9
REMARK    4  A    between atoms: C_9  and  C_11
REMARK    5  A    between atoms: C_9  and  N_65
REMARK    6  A    between atoms: C_11  and  N_12
REMARK    7  A    between atoms: C_13  and  C_15
REMARK    8  A    between atoms: C_27  and  C_30
REMARK    9  A    between atoms: C_34  and  N_65
REMARK   10  A    between atoms: C_35  and  N_65
REMARK                            x       y       z     vdW  Elec       q    Type
REMARK                         _______ _______ _______ _____ _____    ______ ____
ROOT
ATOM      1  C   UNL     1       2.260   6.792   0.226  0.00  0.00    +0.078 C 
ATOM      2  C   UNL     1       2.938   6.529  -1.121  0.00  0.00    +0.031 C 
ATOM      3  C   UNL     1       3.407   5.073  -1.175  0.00  0.00    +0.107 C 
ATOM      4  N   UNL     1       2.254   4.179  -1.004  0.00  0.00    -0.314 N 
ATOM      5  C   UNL     1       1.615   4.381   0.302  0.00  0.00    +0.107 C 
ATOM      6  C   UNL     1       1.093   5.816   0.400  0.00  0.00    +0.031 C 
ATOM      7  C   UNL     1       2.624   2.850  -1.178  0.00  0.00    +0.142 A 
ATOM      8  C   UNL     1       1.653   1.836  -1.054  0.00  0.00    +0.049 A 
ATOM      9  C   UNL     1       2.003   0.534  -1.223  0.00  0.00    +0.053 A 
ATOM     10  C   UNL     1       3.342   0.216  -1.521  0.00  0.00    +0.178 A 
ATOM     11  N   UNL     1       3.988  -0.918  -1.738  0.00  0.00    -0.128 NA
ATOM     12  N   UNL     1       5.227  -0.663  -1.974  0.00  0.00    -0.123 NA
ATOM     13  C   UNL     1       5.440   0.629  -1.921  0.00  0.00    +0.258 A 
ATOM     14  N   UNL     1       4.264   1.227  -1.636  0.00  0.00    -0.187 N 
ATOM     15  N   UNL     1       3.872   2.555  -1.457  0.00  0.00    -0.148 NA
ENDROOT
BRANCH   1  17
ATOM     16  N   UNL     1       1.105   8.664   1.357  0.00  0.00    -0.316 N 
ATOM     17  C   UNL     1       1.743   8.207   0.261  0.00  0.00    +0.216 C 
ATOM     18  O   UNL     1       1.901   8.935  -0.696  0.00  0.00    -0.276 OA
ATOM     19  H   UNL     1       0.978   8.082   2.122  0.00  0.00    +0.149 HD
BRANCH  16  20
ATOM     20  C   UNL     1       0.602  10.040   1.391  0.00  0.00    +0.093 C 
BRANCH  20  21
ATOM     21  C   UNL     1      -0.075  10.302   2.737  0.00  0.00    -0.021 C 
BRANCH  21  25
ATOM     22  C   UNL     1      -1.232  14.407   2.974  0.00  0.00    -0.048 A 
ATOM     23  C   UNL     1       0.062  14.073   2.621  0.00  0.00    +0.004 A 
ATOM     24  C   UNL     1       0.436  12.744   2.544  0.00  0.00    +0.002 A 
ATOM     25  C   UNL     1      -0.483  11.750   2.821  0.00  0.00    -0.059 A 
ATOM     26  C   UNL     1      -1.779  12.085   3.169  0.00  0.00    +0.002 A 
ATOM     27  C   UNL     1      -2.151  13.413   3.251  0.00  0.00    +0.004 A 
BRANCH  22  29
ATOM     28  C   UNL     1      -2.165  16.316   1.696  0.00  0.00    +0.009 C 
ATOM     29  C   UNL     1      -1.640  15.856   3.057  0.00  0.00    +0.032 C 
ENDBRANCH  22  29
ENDBRANCH  21  25
BRANCH  21  32
ATOM     30  C   UNL     1       2.073  10.818   3.727  0.00  0.00    -0.096 C 
ATOM     31  C   UNL     1       0.219  10.158   5.136  0.00  0.00    -0.096 C 
ATOM     32  N   UNL     1       0.869   9.966   3.823  0.00  0.00    +0.382 N 
ATOM     33  H   UNL     1       1.149   8.982   3.730  0.00  0.00    -0.082 HD
ENDBRANCH  21  32
ENDBRANCH  20  21
ENDBRANCH  16  20
ENDBRANCH   1  17
BRANCH  13  34
ATOM     34  C   UNL     1       6.760   1.323  -2.140  0.00  0.00    +0.454 C 
ATOM     35  F   UNL     1       7.659   0.435  -2.740  0.00  0.00    -0.163 F 
ATOM     36  F   UNL     1       6.572   2.430  -2.974  0.00  0.00    -0.163 F 
ATOM     37  F   UNL     1       7.274   1.747  -0.910  0.00  0.00    -0.163 F 
ENDBRANCH  13  34
TORSDOF 7
