REMARK  Name = ZINC58941865
REMARK  6 active torsions:
REMARK  status: ('A' for Active; 'I' for Inactive)
REMARK    1  A    between atoms: C_4  and  N_7
REMARK    2  A    between atoms: N_9  and  C_26
REMARK    3  A    between atoms: C_13  and  C_16
REMARK    4  A    between atoms: N_18  and  C_19
REMARK    5  A    between atoms: C_26  and  C_27
REMARK    6  A    between atoms: C_27  and  C_28
REMARK                            x       y       z     vdW  Elec       q    Type
REMARK                         _______ _______ _______ _____ _____    ______ ____
ROOT
ATOM      1  N   UNL     1       3.628  -0.620  -0.025  0.00  0.00    -0.226 NA
ATOM      2  C   UNL     1       3.811  -1.649   0.768  0.00  0.00    +0.164 C 
ATOM      3  N   UNL     1       5.006  -2.345   0.780  0.00  0.00    -0.250 N 
ATOM      4  C   UNL     1       5.375  -3.176   1.744  0.00  0.00    +0.223 C 
ATOM      5  O   UNL     1       6.508  -3.600   1.667  0.00  0.00    -0.275 OA
ATOM      6  C   UNL     1       4.582  -3.660   2.908  0.00  0.00    +0.120 C 
ATOM      7  C   UNL     1       3.509  -2.659   3.341  0.00  0.00    +0.149 C 
ATOM      8  S   UNL     1       2.539  -2.201   1.872  0.00  0.00    -0.077 S 
ENDROOT
BRANCH   1  12
ATOM      9  C   UNL     1       0.022   1.411   0.018  0.00  0.00    +0.000 A 
ATOM     10  C   UNL     1       1.211   2.119   0.018  0.00  0.00    +0.002 A 
ATOM     11  C   UNL     1       2.416   1.448   0.003  0.00  0.00    +0.028 A 
ATOM     12  C   UNL     1       2.435   0.052  -0.010  0.00  0.00    +0.067 A 
ATOM     13  C   UNL     1       1.231  -0.656  -0.009  0.00  0.00    +0.028 A 
ATOM     14  C   UNL     1       0.033   0.028   0.006  0.00  0.00    +0.002 A 
ENDBRANCH   1  12
BRANCH   7  15
ATOM     15  C   UNL     1       2.609  -3.290   4.372  0.00  0.00    +0.231 C 
ATOM     16  O   UNL     1       2.413  -4.487   4.355  0.00  0.00    -0.274 OA
ATOM     17  N   UNL     1       2.022  -2.525   5.314  0.00  0.00    -0.285 N 
ATOM     18  H   UNL     1       2.230  -1.579   5.369  0.00  0.00    +0.155 HD
BRANCH  17  19
ATOM     19  C   UNL     1       1.111  -3.094   6.210  0.00  0.00    +0.035 A 
ATOM     20  C   UNL     1       0.012  -2.363   6.644  0.00  0.00    +0.023 A 
ATOM     21  C   UNL     1      -0.885  -2.928   7.529  0.00  0.00    +0.003 A 
ATOM     22  C   UNL     1      -0.691  -4.219   7.984  0.00  0.00    +0.020 A 
ATOM     23  C   UNL     1       0.402  -4.950   7.553  0.00  0.00    +0.043 A 
ATOM     24  C   UNL     1       1.301  -4.393   6.663  0.00  0.00    +0.043 A 
ATOM     25 CL   UNL     1       0.642  -6.571   8.127  0.00  0.00    -0.083 Cl
ENDBRANCH  17  19
ENDBRANCH   7  15
BRANCH   3  26
ATOM     26  C   UNL     1       5.924  -2.149  -0.344  0.00  0.00    +0.120 C 
BRANCH  26  27
ATOM     27  C   UNL     1       6.872  -0.989  -0.034  0.00  0.00    +0.054 C 
BRANCH  27  28
ATOM     28  C   UNL     1       7.816  -0.788  -1.191  0.00  0.00    -0.042 A 
ATOM     29  C   UNL     1       9.020  -1.467  -1.224  0.00  0.00    +0.007 A 
ATOM     30  C   UNL     1       9.890  -1.286  -2.284  0.00  0.00    +0.050 A 
ATOM     31  C   UNL     1       9.556  -0.424  -3.316  0.00  0.00    +0.166 A 
ATOM     32  C   UNL     1       8.343   0.260  -3.282  0.00  0.00    +0.166 A 
ATOM     33  C   UNL     1       7.474   0.070  -2.220  0.00  0.00    +0.053 A 
ATOM     34  O   UNL     1       8.250   1.038  -4.399  0.00  0.00    -0.453 OA
ATOM     35  C   UNL     1       9.591   1.137  -4.912  0.00  0.00    +0.466 C 
ATOM     36  O   UNL     1      10.222  -0.074  -4.454  0.00  0.00    -0.453 OA
ENDBRANCH  27  28
ENDBRANCH  26  27
ENDBRANCH   3  26
TORSDOF 6
