REMARK  Name = ZINC38671153
REMARK  7 active torsions:
REMARK  status: ('A' for Active; 'I' for Inactive)
REMARK    1  A    between atoms: C_1  and  N_2
REMARK    2  A    between atoms: C_10  and  C_12
REMARK    3  A    between atoms: C_12  and  C_14
REMARK    4  A    between atoms: C_12  and  N_29
REMARK    5  A    between atoms: C_14  and  N_15
REMARK    6  A    between atoms: N_15  and  S_16
REMARK    7  A    between atoms: S_16  and  C_19
REMARK                            x       y       z     vdW  Elec       q    Type
REMARK                         _______ _______ _______ _____ _____    ______ ____
ROOT
ATOM      1  C   UNL     1       5.086  -2.843  -0.621  0.00  0.00    -0.022 C 
ENDROOT
BRANCH   1  11
ATOM      2  C   UNL     1       0.016   0.960   0.933  0.00  0.00    +0.129 C 
ATOM      3  N   UNL     1       0.088  -0.472   0.633  0.00  0.00    -0.333 N 
ATOM      4  C   UNL     1      -1.126  -1.300   0.648  0.00  0.00    +0.105 C 
ATOM      5  C   UNL     1      -0.798  -2.599   1.395  0.00  0.00    +0.024 C 
ATOM      6  C   UNL     1       0.278  -3.358   0.619  0.00  0.00    +0.038 C 
ATOM      7  C   UNL     1       1.444  -2.454   0.315  0.00  0.00    -0.026 A 
ATOM      8  C   UNL     1       1.313  -1.073   0.323  0.00  0.00    +0.033 A 
ATOM      9  C   UNL     1       2.407  -0.267   0.028  0.00  0.00    +0.023 A 
ATOM     10  C   UNL     1       3.625  -0.840  -0.277  0.00  0.00    +0.004 A 
ATOM     11  C   UNL     1       3.756  -2.217  -0.289  0.00  0.00    -0.059 A 
ATOM     12  C   UNL     1       2.671  -3.022   0.015  0.00  0.00    +0.007 A 
ENDBRANCH   1  11
BRANCH   1  13
ATOM     13  N   UNL     1       6.163  -2.067   0.009  0.00  0.00    +0.385 N 
ATOM     14  C   UNL     1       7.455  -2.701  -0.281  0.00  0.00    -0.078 C 
ATOM     15  C   UNL     1       8.586  -1.853   0.304  0.00  0.00    -0.019 C 
ATOM     16  C   UNL     1       8.400  -1.740   1.820  0.00  0.00    -0.004 C 
ATOM     17  C   UNL     1       7.019  -1.147   2.113  0.00  0.00    -0.019 C 
ATOM     18  C   UNL     1       5.946  -2.021   1.460  0.00  0.00    -0.078 C 
ATOM     19  H   UNL     1       6.161  -1.128  -0.360  0.00  0.00    -0.081 HD
ENDBRANCH   1  13
BRANCH   1  20
ATOM     20  C   UNL     1       5.283  -2.849  -2.138  0.00  0.00    +0.095 C 
BRANCH  20  21
ATOM     21  N   UNL     1       4.250  -3.681  -2.761  0.00  0.00    -0.191 NA
ATOM     22  H   UNL     1       3.733  -4.298  -2.220  0.00  0.00    +0.148 HD
BRANCH  21  23
ATOM     23  S   UNL     1       3.966  -3.567  -4.388  0.00  0.00    +0.060 S 
ATOM     24  O   UNL     1       2.942  -4.506  -4.688  0.00  0.00    -0.153 OA
ATOM     25  O   UNL     1       3.841  -2.183  -4.683  0.00  0.00    -0.153 OA
BRANCH  23  26
ATOM     26  C   UNL     1       5.419  -4.129  -5.211  0.00  0.00    +0.131 A 
ATOM     27  C   UNL     1       5.380  -5.254  -5.977  0.00  0.00    +0.031 A 
ATOM     28  C   UNL     1       6.517  -5.715  -6.636  0.00  0.00    +0.003 A 
ATOM     29  C   UNL     1       7.702  -5.052  -6.533  0.00  0.00    +0.010 A 
ATOM     30  C   UNL     1       7.779  -3.888  -5.752  0.00  0.00    +0.002 A 
ATOM     31  C   UNL     1       6.623  -3.414  -5.085  0.00  0.00    +0.097 A 
ATOM     32  N   UNL     1       6.690  -2.303  -4.343  0.00  0.00    -0.253 NA
ATOM     33  C   UNL     1       7.810  -1.633  -4.221  0.00  0.00    +0.111 A 
ATOM     34  C   UNL     1       8.982  -2.041  -4.855  0.00  0.00    +0.020 A 
ATOM     35  C   UNL     1       8.985  -3.174  -5.619  0.00  0.00    +0.011 A 
ENDBRANCH  23  26
ENDBRANCH  21  23
ENDBRANCH  20  21
ENDBRANCH   1  20
TORSDOF 6
