REMARK  Name = ZINC33936027
REMARK  7 active torsions:
REMARK  status: ('A' for Active; 'I' for Inactive)
REMARK    1  A    between atoms: C_1  and  C_2
REMARK    2  A    between atoms: C_3  and  C_27
REMARK    3  A    between atoms: C_4  and  C_20
REMARK    4  A    between atoms: C_10  and  C_15
REMARK    5  A    between atoms: C_27  and  O_29
REMARK    6  A    between atoms: O_29  and  C_30
REMARK    7  A    between atoms: C_30  and  C_31
REMARK                            x       y       z     vdW  Elec       q    Type
REMARK                         _______ _______ _______ _____ _____    ______ ____
ROOT
ATOM      1  C   UNL     1      -0.018   1.503   0.010  0.00  0.00    +0.061 C 
ATOM      2  C   UNL     1       0.002  -0.004   0.002  0.00  0.00    +0.016 C 
ATOM      3  C   UNL     1      -1.155  -0.687   0.004  0.00  0.00    +0.065 C 
ATOM      4  C   UNL     1      -1.174  -2.188  -0.012  0.00  0.00    +0.092 C 
ATOM      5  C   UNL     1       0.164  -2.749   0.399  0.00  0.00    +0.024 C 
ATOM      6  C   UNL     1       1.272  -1.979   0.376  0.00  0.00    +0.016 C 
ATOM      7  N   UNL     1       1.198  -0.667  -0.013  0.00  0.00    -0.321 N 
ATOM      8  C   UNL     1       2.616  -2.539   0.768  0.00  0.00    +0.060 C 
ATOM      9  C   UNL     1       2.429  -3.633   1.822  0.00  0.00    +0.039 C 
ATOM     10  C   UNL     1       1.521  -4.720   1.240  0.00  0.00    +0.088 C 
ATOM     11  C   UNL     1       0.224  -4.094   0.806  0.00  0.00    +0.162 C 
ATOM     12  O   UNL     1      -0.791  -4.762   0.808  0.00  0.00    -0.292 OA
ATOM     13  H   UNL     1       2.000  -0.203  -0.298  0.00  0.00    +0.152 HD
ENDROOT
BRANCH   4  14
ATOM     14  C   UNL     1      -1.503  -2.664  -1.404  0.00  0.00    -0.035 A 
ATOM     15  C   UNL     1      -0.678  -2.329  -2.461  0.00  0.00    +0.007 A 
ATOM     16  C   UNL     1      -0.979  -2.765  -3.738  0.00  0.00    +0.038 A 
ATOM     17  C   UNL     1      -2.106  -3.538  -3.957  0.00  0.00    +0.123 A 
ATOM     18  C   UNL     1      -2.931  -3.873  -2.897  0.00  0.00    +0.038 A 
ATOM     19  C   UNL     1      -2.626  -3.440  -1.621  0.00  0.00    +0.007 A 
ATOM     20  F   UNL     1      -2.401  -3.965  -5.204  0.00  0.00    -0.205 F 
ENDBRANCH   4  14
BRANCH   9  21
ATOM     21  C   UNL     1       3.768  -4.225   2.181  0.00  0.00    -0.006 A 
ATOM     22  C   UNL     1       4.386  -4.270   3.386  0.00  0.00    +0.011 A 
ATOM     23  C   UNL     1       5.627  -4.871   3.481  0.00  0.00    +0.008 A 
ATOM     24  C   UNL     1       6.189  -5.398   2.366  0.00  0.00    +0.045 A 
ATOM     25  S   UNL     1       4.948  -5.055   1.129  0.00  0.00    -0.101 S 
ENDBRANCH   9  21
BRANCH   3  26
ATOM     26  C   UNL     1      -2.380   0.021   0.021  0.00  0.00    +0.338 C 
ATOM     27  O   UNL     1      -2.378   1.238   0.035  0.00  0.00    -0.245 OA
BRANCH  26  28
ATOM     28  O   UNL     1      -3.549  -0.652   0.024  0.00  0.00    -0.459 OA
BRANCH  28  29
ATOM     29  C   UNL     1      -4.746   0.128   0.042  0.00  0.00    +0.264 C 
BRANCH  29  30
ATOM     30  C   UNL     1      -5.961  -0.803   0.041  0.00  0.00    +0.156 C 
ATOM     31  C   UNL     1      -7.258   0.029  -0.061  0.00  0.00    +0.037 C 
ATOM     32  C   UNL     1      -8.213  -0.730   0.900  0.00  0.00    +0.031 C 
ATOM     33  C   UNL     1      -7.216  -1.212   1.985  0.00  0.00    +0.160 C 
ATOM     34  O   UNL     1      -6.011  -1.537   1.270  0.00  0.00    -0.373 OA
ENDBRANCH  29  30
ENDBRANCH  28  29
ENDBRANCH  26  28
ENDBRANCH   3  26
TORSDOF 6
