REMARK  Name = ZINC00647938
REMARK  6 active torsions:
REMARK  status: ('A' for Active; 'I' for Inactive)
REMARK    1  A    between atoms: C_4  and  C_7
REMARK    2  A    between atoms: C_7  and  C_8
REMARK    3  A    between atoms: C_10  and  C_35
REMARK    4  A    between atoms: C_11  and  N_13
REMARK    5  A    between atoms: C_14  and  C_16
REMARK    6  A    between atoms: C_18  and  C_26
REMARK                            x       y       z     vdW  Elec       q    Type
REMARK                         _______ _______ _______ _____ _____    ______ ____
ROOT
ATOM      1  N   UNL     1      -1.279   3.554   0.129  0.00  0.00    -0.275 N 
ATOM      2  C   UNL     1      -1.291   2.211   0.020  0.00  0.00    +0.249 C 
ATOM      3  O   UNL     1      -2.348   1.617  -0.070  0.00  0.00    -0.270 OA
ATOM      4  H   UNL     1      -0.436   4.027   0.201  0.00  0.00    +0.156 HD
ENDROOT
BRANCH   2   5
ATOM      5  C   UNL     1      -0.018   1.459   0.010  0.00  0.00    +0.048 A 
ATOM      6  C   UNL     1       1.206   2.113  -0.007  0.00  0.00    +0.042 A 
ATOM      7  C   UNL     1       2.390   1.359  -0.021  0.00  0.00    +0.073 A 
ATOM      8  N   UNL     1       2.385   0.042  -0.020  0.00  0.00    -0.247 NA
ATOM      9  C   UNL     1       1.255  -0.667  -0.005  0.00  0.00    +0.072 A 
ATOM     10  C   UNL     1       0.002  -0.004   0.011  0.00  0.00    +0.013 A 
ATOM     11  C   UNL     1      -1.181  -0.751   0.028  0.00  0.00    +0.011 A 
ATOM     12  C   UNL     1      -1.117  -2.113   0.028  0.00  0.00    +0.001 A 
ATOM     13  C   UNL     1       0.112  -2.770   0.013  0.00  0.00    +0.002 A 
ATOM     14  C   UNL     1       1.281  -2.074  -0.004  0.00  0.00    +0.028 A 
BRANCH   7  15
ATOM     15  C   UNL     1       3.690   2.069  -0.038  0.00  0.00    +0.004 A 
ATOM     16  C   UNL     1       3.728   3.459   0.066  0.00  0.00    +0.014 A 
ATOM     17  C   UNL     1       4.939   4.120   0.050  0.00  0.00    +0.050 A 
ATOM     18  C   UNL     1       6.122   3.405  -0.069  0.00  0.00    +0.166 A 
ATOM     19  C   UNL     1       6.090   2.014  -0.173  0.00  0.00    +0.167 A 
ATOM     20  C   UNL     1       4.878   1.349  -0.153  0.00  0.00    +0.059 A 
ATOM     21  O   UNL     1       7.372   1.556  -0.278  0.00  0.00    -0.453 OA
ATOM     22  C   UNL     1       8.206   2.639   0.174  0.00  0.00    +0.466 C 
ATOM     23  O   UNL     1       7.423   3.814  -0.109  0.00  0.00    -0.453 OA
ENDBRANCH   7  15
ENDBRANCH   2   5
BRANCH   1  27
ATOM     24  C   UNL     1      -4.995   5.170   0.113  0.00  0.00    -0.003 A 
ATOM     25  C   UNL     1      -4.029   6.099   0.225  0.00  0.00    +0.026 A 
ATOM     26  C   UNL     1      -2.664   5.631   0.248  0.00  0.00    +0.065 A 
ATOM     27  C   UNL     1      -2.472   4.258   0.139  0.00  0.00    +0.084 A 
ATOM     28  S   UNL     1      -4.086   3.642   0.025  0.00  0.00    -0.077 S 
BRANCH  26  29
ATOM     29  C   UNL     1      -1.534   6.557   0.375  0.00  0.00    +0.244 C 
ATOM     30  O   UNL     1      -0.395   6.130   0.387  0.00  0.00    -0.270 OA
ATOM     31  N   UNL     1      -1.758   7.882   0.478  0.00  0.00    -0.325 N 
ATOM     32  H   UNL     1      -2.667   8.223   0.469  0.00  0.00    +0.145 HD
ATOM     33  H   UNL     1      -1.011   8.495   0.562  0.00  0.00    +0.145 HD
ENDBRANCH  26  29
BRANCH  24  34
ATOM     34  C   UNL     1      -6.488   5.374   0.070  0.00  0.00    +0.077 C 
BRANCH  34  38
ATOM     35  C   UNL     1      -7.739   5.889  -3.982  0.00  0.00    +0.000 A 
ATOM     36  C   UNL     1      -7.695   4.623  -3.428  0.00  0.00    +0.000 A 
ATOM     37  C   UNL     1      -7.290   4.457  -2.116  0.00  0.00    +0.004 A 
ATOM     38  C   UNL     1      -6.929   5.556  -1.360  0.00  0.00    -0.043 A 
ATOM     39  C   UNL     1      -6.978   6.822  -1.913  0.00  0.00    +0.004 A 
ATOM     40  C   UNL     1      -7.378   6.988  -3.225  0.00  0.00    +0.000 A 
ENDBRANCH  34  38
ENDBRANCH  24  34
ENDBRANCH   1  27
TORSDOF 6
