REMARK  Name = ZINC39708417
REMARK  11 active torsions:
REMARK  status: ('A' for Active; 'I' for Inactive)
REMARK    1  A    between atoms: C_1  and  C_2
REMARK    2  A    between atoms: C_2  and  C_3
REMARK    3  A    between atoms: C_8  and  C_12
REMARK    4  A    between atoms: C_12  and  C_14
REMARK    5  A    between atoms: C_14  and  S_15
REMARK    6  A    between atoms: S_15  and  C_16
REMARK    7  A    between atoms: C_20  and  C_27
REMARK    8  A    between atoms: N_22  and  C_23
REMARK    9  A    between atoms: C_23  and  C_24
REMARK   10  A    between atoms: C_30  and  O_33
REMARK   11  A    between atoms: O_33  and  C_34
REMARK                            x       y       z     vdW  Elec       q    Type
REMARK                         _______ _______ _______ _____ _____    ______ ____
ROOT
ATOM      1  C   UNL     1      -7.748  -2.384  -6.266  0.00  0.00    +0.078 C 
ATOM      2  N   UNL     1      -7.542  -1.159  -7.083  0.00  0.00    -0.262 NA
ATOM      3  N   UNL     1      -7.426  -1.688  -8.451  0.00  0.00    -0.267 NA
ATOM      4  C   UNL     1      -6.668  -2.951  -8.296  0.00  0.00    +0.050 C 
ATOM      5  N   UNL     1      -6.876  -3.399  -6.902  0.00  0.00    +0.417 N 
ATOM      6  H   UNL     1      -6.699  -0.679  -6.808  0.00  0.00    +0.140 HD
ATOM      7  H   UNL     1      -6.933  -1.041  -9.048  0.00  0.00    +0.139 HD
ATOM      8  H   UNL     1      -7.329  -4.301  -6.890  0.00  0.00    -0.074 HD
ENDROOT
BRANCH   4   9
ATOM      9  C   UNL     1      -7.193  -3.989  -9.255  0.00  0.00    -0.046 A 
ATOM     10  C   UNL     1      -7.324  -5.303  -8.846  0.00  0.00    +0.007 A 
ATOM     11  C   UNL     1      -7.804  -6.256  -9.723  0.00  0.00    +0.046 A 
ATOM     12  C   UNL     1      -8.156  -5.894 -11.015  0.00  0.00    +0.120 A 
ATOM     13  C   UNL     1      -8.024  -4.574 -11.423  0.00  0.00    +0.046 A 
ATOM     14  C   UNL     1      -7.548  -3.624 -10.541  0.00  0.00    +0.007 A 
BRANCH  12  15
ATOM     15  O   UNL     1      -8.628  -6.830 -11.879  0.00  0.00    -0.495 OA
ATOM     16  C   UNL     1      -8.970  -6.385 -13.194  0.00  0.00    +0.277 C 
ENDBRANCH  12  15
ENDBRANCH   4   9
BRANCH   1  17
ATOM     17  S   UNL     1      -7.238  -2.096  -4.549  0.00  0.00    -0.152 S 
BRANCH  17  18
ATOM     18  C   UNL     1      -8.643  -1.211  -3.818  0.00  0.00    +0.148 C 
BRANCH  18  19
ATOM     19  C   UNL     1      -8.399  -1.013  -2.344  0.00  0.00    +0.171 C 
ATOM     20  O   UNL     1      -7.378  -1.429  -1.836  0.00  0.00    -0.291 OA
BRANCH  19  26
ATOM     21  C   UNL     1     -10.654   1.022   1.622  0.00  0.00    -0.024 A 
ATOM     22  C   UNL     1      -9.666   0.701   2.485  0.00  0.00    +0.005 A 
ATOM     23  C   UNL     1      -8.513   0.014   2.071  0.00  0.00    +0.001 A 
ATOM     24  C   UNL     1      -8.317  -0.370   0.790  0.00  0.00    +0.010 A 
ATOM     25  C   UNL     1      -9.289  -0.084  -0.197  0.00  0.00    +0.006 A 
ATOM     26  C   UNL     1      -9.358  -0.345  -1.554  0.00  0.00    +0.024 C 
ATOM     27  C   UNL     1     -10.678   0.236  -2.013  0.00  0.00    +0.152 C 
ATOM     28  N   UNL     1     -11.301   0.820  -0.821  0.00  0.00    -0.380 N 
ATOM     29  C   UNL     1     -10.523   0.635   0.207  0.00  0.00    +0.046 A 
ATOM     30  H   UNL     1     -12.161   1.269  -0.800  0.00  0.00    +0.160 HD
BRANCH  21  32
ATOM     31  C   UNL     1     -12.983   0.754   2.430  0.00  0.00    +0.009 C 
ATOM     32  C   UNL     1     -11.877   1.759   2.102  0.00  0.00    +0.034 C 
ENDBRANCH  21  32
ENDBRANCH  19  26
ENDBRANCH  18  19
ENDBRANCH  17  18
ENDBRANCH   1  17
BRANCH   5  33
ATOM     33  C   UNL     1      -5.589  -3.470  -6.198  0.00  0.00    +0.055 C 
BRANCH  33  34
ATOM     34  C   UNL     1      -4.727  -4.532  -6.832  0.00  0.00    +0.340 C 
ATOM     35  O   UNL     1      -5.096  -5.087  -7.853  0.00  0.00    -0.249 OA
ATOM     36  O   UNL     1      -3.662  -4.836  -6.324  0.00  0.00    -0.249 OA
ENDBRANCH  33  34
ENDBRANCH   5  33
TORSDOF 9
