REMARK  Name = ZINC63761318
REMARK  5 active torsions:
REMARK  status: ('A' for Active; 'I' for Inactive)
REMARK    1  A    between atoms: C_1  and  C_2
REMARK    2  A    between atoms: C_5  and  S_8
REMARK    3  A    between atoms: S_8  and  N_11
REMARK    4  A    between atoms: C_13  and  N_23
REMARK    5  A    between atoms: N_23  and  C_24
REMARK                            x       y       z     vdW  Elec       q    Type
REMARK                         _______ _______ _______ _____ _____    ______ ____
ROOT
ATOM      1  N   UNL     1       1.683  -4.692   0.282  0.00  0.00    -0.110 NA
ATOM      2  C   UNL     1       1.900  -5.956   0.069  0.00  0.00    +0.192 C 
ATOM      3  C   UNL     1       3.311  -6.477  -0.081  0.00  0.00    +0.237 C 
ATOM      4  N   UNL     1       3.489  -7.918  -0.321  0.00  0.00    -0.359 N 
ATOM      5  C   UNL     1       2.429  -8.673  -0.393  0.00  0.00    +0.063 A 
ATOM      6  C   UNL     1       2.553 -10.118  -0.631  0.00  0.00    +0.027 A 
ATOM      7  C   UNL     1       1.431 -10.868  -0.699  0.00  0.00    +0.002 A 
ATOM      8  C   UNL     1       0.154 -10.302  -0.547  0.00  0.00    +0.002 A 
ATOM      9  C   UNL     1      -0.039  -8.983  -0.327  0.00  0.00    +0.030 A 
ATOM     10  C   UNL     1       1.068  -8.102  -0.237  0.00  0.00    +0.089 A 
ATOM     11  N   UNL     1       0.874  -6.818  -0.017  0.00  0.00    -0.226 NA
ATOM     12  H   UNL     1       4.376  -8.297  -0.424  0.00  0.00    +0.162 HD
ENDROOT
BRANCH   1  13
ATOM     13  S   UNL     1       0.132  -4.135   0.452  0.00  0.00    +0.100 S 
ATOM     14  O   UNL     1      -0.376  -4.707   1.649  0.00  0.00    -0.146 OA
ATOM     15  O   UNL     1      -0.503  -4.313  -0.807  0.00  0.00    -0.146 OA
BRANCH  13  20
ATOM     16  C   UNL     1       0.463   1.817   1.389  0.00  0.00    +0.044 C 
ATOM     17  C   UNL     1       0.380   0.330   1.155  0.00  0.00    -0.050 A 
ATOM     18  C   UNL     1       0.283  -0.163  -0.133  0.00  0.00    +0.005 A 
ATOM     19  C   UNL     1       0.207  -1.526  -0.348  0.00  0.00    +0.029 A 
ATOM     20  C   UNL     1       0.230  -2.397   0.725  0.00  0.00    +0.113 A 
ATOM     21  C   UNL     1       0.328  -1.905   2.013  0.00  0.00    +0.029 A 
ATOM     22  C   UNL     1       0.408  -0.541   2.227  0.00  0.00    +0.005 A 
ENDBRANCH  13  20
ENDBRANCH   1  13
BRANCH   3  23
ATOM     23  N   UNL     1       4.046  -6.133   1.138  0.00  0.00    -0.316 N 
ATOM     24  H   UNL     1       3.631  -6.257   2.006  0.00  0.00    +0.148 HD
BRANCH  23  25
ATOM     25  C   UNL     1       5.348  -5.627   1.051  0.00  0.00    +0.065 A 
ATOM     26  C   UNL     1       5.991  -5.569  -0.178  0.00  0.00    +0.027 A 
ATOM     27  C   UNL     1       7.276  -5.069  -0.261  0.00  0.00    +0.017 A 
ATOM     28  C   UNL     1       7.923  -4.625   0.878  0.00  0.00    +0.021 A 
ATOM     29  C   UNL     1       7.286  -4.681   2.105  0.00  0.00    +0.055 A 
ATOM     30  C   UNL     1       5.997  -5.175   2.194  0.00  0.00    +0.145 A 
ATOM     31  F   UNL     1       5.373  -5.224   3.392  0.00  0.00    -0.204 F 
ATOM     32 BR   UNL     1       9.682  -3.941   0.758  0.00  0.00    -0.050 Br
ENDBRANCH  23  25
ENDBRANCH   3  23
TORSDOF 4
