REMARK  Name = ZINC36260064
REMARK  4 active torsions:
REMARK  status: ('A' for Active; 'I' for Inactive)
REMARK    1  A    between atoms: C_1  and  C_2
REMARK    2  A    between atoms: C_5  and  C_9
REMARK    3  A    between atoms: C_6  and  O_8
REMARK    4  A    between atoms: C_12  and  C_22
REMARK                            x       y       z     vdW  Elec       q    Type
REMARK                         _______ _______ _______ _____ _____    ______ ____
ROOT
ATOM      1  C   UNL     1       0.056  -4.245  -0.036  0.00  0.00    +0.251 C 
ATOM      2  O   UNL     1       0.174  -4.857   1.007  0.00  0.00    -0.270 OA
ATOM      3  N   UNL     1      -0.041  -4.913  -1.203  0.00  0.00    -0.293 N 
ATOM      4  C   UNL     1      -0.064  -4.330  -2.578  0.00  0.00    +0.074 C 
ATOM      5  C   UNL     1      -0.392  -5.506  -3.552  0.00  0.00    +0.025 C 
ATOM      6  C   UNL     1      -1.111  -6.472  -2.613  0.00  0.00    -0.008 C 
ATOM      7  C   UNL     1      -0.136  -6.315  -1.381  0.00  0.00    +0.061 C 
ATOM      8  C   UNL     1      -0.585  -7.412  -0.479  0.00  0.00    -0.060 C 
ATOM      9  N   UNL     1      -1.032  -8.504  -1.399  0.00  0.00    +0.380 N 
ATOM     10  C   UNL     1      -0.979  -7.976  -2.813  0.00  0.00    -0.077 C 
ATOM     11  C   UNL     1       1.303  -3.732  -2.918  0.00  0.00    +0.028 C 
ATOM     12  H   UNL     1      -0.426  -9.304  -1.299  0.00  0.00    -0.086 HD
ATOM     13  H   UNL     1      -1.982  -8.765  -1.183  0.00  0.00    -0.086 HD
ENDROOT
BRANCH   1  18
ATOM     14  C   UNL     1      -0.094   1.509  -0.001  0.00  0.00    +0.044 C 
ATOM     15  C   UNL     1      -0.055   0.003  -0.006  0.00  0.00    -0.047 A 
ATOM     16  C   UNL     1      -0.048  -0.682  -1.211  0.00  0.00    +0.004 A 
ATOM     17  C   UNL     1      -0.012  -2.059  -1.228  0.00  0.00    +0.017 A 
ATOM     18  C   UNL     1       0.018  -2.770  -0.025  0.00  0.00    +0.078 A 
ATOM     19  C   UNL     1       0.011  -2.074   1.191  0.00  0.00    +0.129 A 
ATOM     20  C   UNL     1      -0.020  -0.687   1.189  0.00  0.00    +0.049 A 
BRANCH  19  21
ATOM     21  O   UNL     1       0.039  -2.753   2.365  0.00  0.00    -0.506 OA
ATOM     22  H   UNL     1       0.930  -2.927   2.697  0.00  0.00    +0.292 HD
ENDBRANCH  19  21
ENDBRANCH   1  18
TORSDOF 2
