REMARK  Name = ZINC43746531
REMARK  6 active torsions:
REMARK  status: ('A' for Active; 'I' for Inactive)
REMARK    1  A    between atoms: C_1  and  C_2
REMARK    2  A    between atoms: C_18  and  C_20
REMARK    3  A    between atoms: C_20  and  N_21
REMARK    4  A    between atoms: C_24  and  C_27
REMARK    5  A    between atoms: C_24  and  O_34
REMARK    6  A    between atoms: C_27  and  C_28
REMARK                            x       y       z     vdW  Elec       q    Type
REMARK                         _______ _______ _______ _____ _____    ______ ____
ROOT
ATOM      1  C   UNL     1      -0.019   1.526   0.010  0.00  0.00    +0.011 C 
ATOM      2  C   UNL     1       0.002  -0.004   0.002  0.00  0.00    -0.023 C 
ATOM      3  C   UNL     1       0.715  -0.501  -1.255  0.00  0.00    +0.007 C 
ATOM      4  C   UNL     1       2.128   0.081  -1.315  0.00  0.00    +0.003 C 
ATOM      5  C   UNL     1       2.939  -0.425  -0.117  0.00  0.00    +0.037 C 
ATOM      6  C   UNL     1       2.201  -0.057   1.173  0.00  0.00    +0.096 C 
ATOM      7  C   UNL     1       0.744  -0.517   1.245  0.00  0.00    +0.030 C 
ATOM      8  C   UNL     1       0.082   0.104   2.474  0.00  0.00    +0.014 C 
ATOM      9  C   UNL     1      -1.378  -0.263   2.566  0.00  0.00    +0.042 C 
ATOM     10  C   UNL     1      -2.168  -0.009   1.267  0.00  0.00    +0.181 C 
ATOM     11  C   UNL     1      -1.427  -0.537   0.050  0.00  0.00    +0.052 C 
ATOM     12  O   UNL     1      -3.319  -0.878   1.462  0.00  0.00    -0.461 OA
ATOM     13  C   UNL     1      -2.867  -2.045   1.968  0.00  0.00    +0.309 C 
ATOM     14  O   UNL     1      -3.381  -3.127   1.810  0.00  0.00    -0.251 OA
ATOM     15  C   UNL     1      -1.605  -1.774   2.756  0.00  0.00    +0.088 C 
ATOM     16  C   UNL     1       3.006  -0.019   2.471  0.00  0.00    +0.196 C 
ATOM     17  O   UNL     1       2.550   1.167   1.816  0.00  0.00    -0.368 OA
ENDROOT
BRANCH  15  18
ATOM     18  C   UNL     1      -1.823  -2.107   4.233  0.00  0.00    -0.064 C 
BRANCH  18  19
ATOM     19  N   UNL     1      -1.917  -3.564   4.398  0.00  0.00    +0.380 N 
ATOM     20  C   UNL     1      -0.634  -4.179   4.038  0.00  0.00    -0.076 C 
ATOM     21  C   UNL     1      -0.750  -5.702   4.131  0.00  0.00    +0.016 C 
ATOM     22  C   UNL     1      -1.122  -6.094   5.564  0.00  0.00    +0.067 C 
ATOM     23  C   UNL     1      -2.423  -5.387   5.955  0.00  0.00    +0.016 C 
ATOM     24  C   UNL     1      -2.245  -3.876   5.795  0.00  0.00    -0.076 C 
ATOM     25  H   UNL     1      -2.641  -3.924   3.795  0.00  0.00    -0.082 HD
BRANCH  22  26
ATOM     26  O   UNL     1      -0.077  -5.697   6.454  0.00  0.00    -0.388 OA
ATOM     27  H   UNL     1      -0.246  -5.915   7.381  0.00  0.00    +0.210 HD
ENDBRANCH  22  26
BRANCH  22  28
ATOM     28  C   UNL     1      -1.318  -7.609   5.646  0.00  0.00    +0.069 C 
BRANCH  28  29
ATOM     29  C   UNL     1      -1.803  -7.979   7.024  0.00  0.00    -0.045 A 
ATOM     30  C   UNL     1      -0.892  -8.271   8.022  0.00  0.00    +0.004 A 
ATOM     31  C   UNL     1      -1.336  -8.611   9.286  0.00  0.00    +0.000 A 
ATOM     32  C   UNL     1      -2.692  -8.658   9.552  0.00  0.00    +0.000 A 
ATOM     33  C   UNL     1      -3.603  -8.366   8.554  0.00  0.00    +0.000 A 
ATOM     34  C   UNL     1      -3.159  -8.022   7.291  0.00  0.00    +0.004 A 
ENDBRANCH  28  29
ENDBRANCH  22  28
ENDBRANCH  18  19
ENDBRANCH  15  18
TORSDOF 5
