REMARK  Name = ZINC04539191
REMARK  4 active torsions:
REMARK  status: ('A' for Active; 'I' for Inactive)
REMARK    1  A    between atoms: C_1  and  C_2
REMARK    2  A    between atoms: C_4  and  N_19
REMARK    3  A    between atoms: C_7  and  N_8
REMARK    4  A    between atoms: N_11  and  C_12
REMARK                            x       y       z     vdW  Elec       q    Type
REMARK                         _______ _______ _______ _____ _____    ______ ____
ROOT
ATOM      1  N   UNL     1       0.007  -0.016   2.416  0.00  0.00    -0.269 N 
ATOM      2  C   UNL     1      -0.064  -0.695   3.578  0.00  0.00    +0.308 C 
ATOM      3  O   UNL     1      -0.044  -1.911   3.574  0.00  0.00    -0.252 OA
ATOM      4  N   UNL     1      -0.157  -0.026   4.744  0.00  0.00    -0.267 N 
ATOM      5  H   UNL     1       0.057   0.953   2.422  0.00  0.00    +0.156 HD
ATOM      6  H   UNL     1      -0.238   0.940   4.744  0.00  0.00    +0.156 HD
ENDROOT
BRANCH   1  13
ATOM      7  C   UNL     1      -1.302   1.176   0.188  0.00  0.00    +0.046 C 
ATOM      8  C   UNL     1      -0.618  -0.163   0.087  0.00  0.00    -0.027 A 
ATOM      9  C   UNL     1      -0.610  -0.846  -1.113  0.00  0.00    +0.038 A 
ATOM     10  C   UNL     1       0.018  -2.075  -1.206  0.00  0.00    +0.127 A 
ATOM     11  C   UNL     1       0.639  -2.623  -0.099  0.00  0.00    +0.034 A 
ATOM     12  C   UNL     1       0.634  -1.945   1.104  0.00  0.00    +0.026 A 
ATOM     13  C   UNL     1       0.009  -0.708   1.200  0.00  0.00    +0.038 A 
BRANCH  10  14
ATOM     14  N   UNL     1       0.025  -2.805  -2.494  0.00  0.00    +0.056 N 
ATOM     15  O   UNL     1      -0.518  -2.327  -3.462  0.00  0.00    -0.126 OA
ATOM     16  O   UNL     1       0.573  -3.879  -2.577  0.00  0.00    -0.126 OA
ENDBRANCH  10  14
ENDBRANCH   1  13
BRANCH   4  17
ATOM     17  C   UNL     1      -0.136  -0.728   5.957  0.00  0.00    +0.070 A 
ATOM     18  C   UNL     1      -0.719  -1.984   6.044  0.00  0.00    +0.026 A 
ATOM     19  C   UNL     1      -0.697  -2.674   7.241  0.00  0.00    +0.002 A 
ATOM     20  C   UNL     1      -0.095  -2.113   8.353  0.00  0.00    +0.003 A 
ATOM     21  C   UNL     1       0.486  -0.862   8.271  0.00  0.00    +0.040 A 
ATOM     22  C   UNL     1       0.473  -0.169   7.075  0.00  0.00    +0.145 A 
ATOM     23  F   UNL     1       1.047   1.052   6.993  0.00  0.00    -0.204 F 
ENDBRANCH   4  17
TORSDOF 3
