REMARK  Name = ZINC15947336
REMARK  6 active torsions:
REMARK  status: ('A' for Active; 'I' for Inactive)
REMARK    1  A    between atoms: C_4  and  C_7
REMARK    2  A    between atoms: C_7  and  N_8
REMARK    3  A    between atoms: C_16  and  O_36
REMARK    4  A    between atoms: C_18  and  C_21
REMARK    5  A    between atoms: C_24  and  C_26
REMARK    6  A    between atoms: C_30  and  C_32
REMARK                            x       y       z     vdW  Elec       q    Type
REMARK                         _______ _______ _______ _____ _____    ______ ____
ROOT
ATOM      1  N   UNL     1       4.153  -0.953   1.342  0.00  0.00    +0.386 N 
ATOM      2  C   UNL     1       5.491  -1.559   1.326  0.00  0.00    -0.073 C 
ATOM      3  C   UNL     1       6.098  -1.536   2.732  0.00  0.00    +0.018 C 
ATOM      4  C   UNL     1       5.088  -2.156   3.689  0.00  0.00    -0.027 A 
ATOM      5  C   UNL     1       3.793  -2.286   3.315  0.00  0.00    -0.021 A 
ATOM      6  S   UNL     1       2.997  -3.041   4.704  0.00  0.00    -0.080 S 
ATOM      7  C   UNL     1       4.299  -3.182   5.722  0.00  0.00    +0.080 A 
ATOM      8  C   UNL     1       5.385  -2.644   5.020  0.00  0.00    +0.067 A 
ATOM      9  C   UNL     1       6.702  -2.625   5.708  0.00  0.00    +0.220 C 
ATOM     10  N   UNL     1       6.824  -3.326   6.802  0.00  0.00    -0.220 NA
ATOM     11  C   UNL     1       5.780  -4.174   7.362  0.00  0.00    +0.260 C 
ATOM     12  N   UNL     1       4.435  -3.696   6.992  0.00  0.00    -0.311 N 
ATOM     13  C   UNL     1       3.204  -1.866   2.006  0.00  0.00    -0.035 C 
ATOM     14  H   UNL     1       3.689  -3.740   7.609  0.00  0.00    +0.149 HD
ATOM     15  H   UNL     1       4.186  -0.079   1.845  0.00  0.00    -0.081 HD
ENDROOT
BRANCH  11  16
ATOM     16  C   UNL     1       5.959  -5.579   6.847  0.00  0.00    +0.148 A 
ATOM     17  C   UNL     1       7.133  -6.150   6.514  0.00  0.00    +0.049 A 
ATOM     18  C   UNL     1       6.847  -7.462   6.085  0.00  0.00    +0.050 A 
ATOM     19  C   UNL     1       5.500  -7.620   6.180  0.00  0.00    +0.135 A 
ATOM     20  O   UNL     1       4.975  -6.472   6.650  0.00  0.00    -0.456 OA
BRANCH  19  21
ATOM     21  C   UNL     1       4.745  -8.842   5.835  0.00  0.00    +0.018 A 
ATOM     22  C   UNL     1       5.416  -9.974   5.368  0.00  0.00    +0.011 A 
ATOM     23  C   UNL     1       4.705 -11.111   5.048  0.00  0.00    +0.001 A 
ATOM     24  C   UNL     1       3.328 -11.133   5.189  0.00  0.00    +0.012 A 
ATOM     25  C   UNL     1       2.656 -10.015   5.652  0.00  0.00    +0.055 A 
ATOM     26  C   UNL     1       3.357  -8.873   5.981  0.00  0.00    +0.024 A 
BRANCH  25  27
ATOM     27  C   UNL     1       1.157 -10.047   5.802  0.00  0.00    +0.417 C 
ATOM     28  F   UNL     1       0.677 -11.303   5.415  0.00  0.00    -0.166 F 
ATOM     29  F   UNL     1       0.817  -9.809   7.138  0.00  0.00    -0.166 F 
ATOM     30  F   UNL     1       0.586  -9.060   4.992  0.00  0.00    -0.166 F 
ENDBRANCH  25  27
ENDBRANCH  19  21
ENDBRANCH  11  16
BRANCH   9  31
ATOM     31  O   UNL     1       7.738  -1.908   5.216  0.00  0.00    -0.492 OA
ATOM     32  H   UNL     1       8.545  -1.969   5.745  0.00  0.00    +0.294 HD
ENDBRANCH   9  31
BRANCH   1  33
ATOM     33  C   UNL     1       3.711  -0.707  -0.038  0.00  0.00    -0.043 C 
BRANCH  33  37
ATOM     34  C   UNL     1      -0.017   1.378   0.010  0.00  0.00    +0.000 A 
ATOM     35  C   UNL     1       1.171   2.086   0.002  0.00  0.00    +0.000 A 
ATOM     36  C   UNL     1       2.377   1.411  -0.013  0.00  0.00    +0.002 A 
ATOM     37  C   UNL     1       2.396   0.029  -0.020  0.00  0.00    -0.064 A 
ATOM     38  C   UNL     1       1.208  -0.679  -0.012  0.00  0.00    +0.002 A 
ATOM     39  C   UNL     1       0.002  -0.004   0.002  0.00  0.00    +0.000 A 
ENDBRANCH  33  37
ENDBRANCH   1  33
TORSDOF 6
