REMARK  Name = ZINC39362285
REMARK  10 active torsions:
REMARK  status: ('A' for Active; 'I' for Inactive)
REMARK    1  A    between atoms: C_1  and  C_2
REMARK    2  A    between atoms: C_5  and  N_8
REMARK    3  A    between atoms: C_9  and  C_11
REMARK    4  A    between atoms: C_11  and  S_12
REMARK    5  A    between atoms: S_12  and  C_13
REMARK    6  A    between atoms: C_16  and  C_27
REMARK    7  A    between atoms: N_18  and  C_19
REMARK    8  A    between atoms: C_22  and  O_25
REMARK    9  A    between atoms: O_25  and  C_26
REMARK   10  A    between atoms: C_27  and  C_28
REMARK                            x       y       z     vdW  Elec       q    Type
REMARK                         _______ _______ _______ _____ _____    ______ ____
ROOT
ATOM      1  C   UNL     1       0.625  -8.706   2.635  0.00  0.00    +0.180 C 
ATOM      2  N   UNL     1       0.620  -9.315   1.497  0.00  0.00    -0.162 NA
ATOM      3  N   UNL     1       0.710 -10.703   1.657  0.00  0.00    -0.246 N 
ATOM      4  C   UNL     1       0.777 -10.945   3.108  0.00  0.00    +0.187 C 
ATOM      5  N   UNL     1       0.724  -9.595   3.695  0.00  0.00    -0.258 N 
ATOM      6  H   UNL     1       0.724 -11.370   0.953  0.00  0.00    +0.170 HD
ENDROOT
BRANCH   5   7
ATOM      7  C   UNL     1       0.761  -9.273   5.057  0.00  0.00    +0.038 A 
ATOM      8  C   UNL     1       1.915  -9.503   5.794  0.00  0.00    +0.027 A 
ATOM      9  C   UNL     1       1.951  -9.184   7.137  0.00  0.00    +0.047 A 
ATOM     10  C   UNL     1       0.835  -8.634   7.750  0.00  0.00    +0.120 A 
ATOM     11  C   UNL     1      -0.319  -8.405   7.014  0.00  0.00    +0.047 A 
ATOM     12  C   UNL     1      -0.355  -8.717   5.670  0.00  0.00    +0.027 A 
BRANCH  10  13
ATOM     13  O   UNL     1       0.871  -8.321   9.073  0.00  0.00    -0.495 OA
ATOM     14  C   UNL     1      -0.314  -7.758   9.639  0.00  0.00    +0.277 C 
ENDBRANCH  10  13
ENDBRANCH   5   7
BRANCH   1  15
ATOM     15  S   UNL     1       0.527  -6.957   2.819  0.00  0.00    -0.079 S 
BRANCH  15  16
ATOM     16  C   UNL     1       0.418  -6.341   1.116  0.00  0.00    +0.173 C 
BRANCH  16  18
ATOM     17  N   UNL     1       0.238  -4.156  -0.029  0.00  0.00    -0.285 N 
ATOM     18  C   UNL     1       0.328  -4.837   1.131  0.00  0.00    +0.227 C 
ATOM     19  O   UNL     1       0.335  -4.239   2.186  0.00  0.00    -0.275 OA
ATOM     20  H   UNL     1       0.157  -4.636  -0.868  0.00  0.00    +0.155 HD
BRANCH  17  25
ATOM     21  C   UNL     1       0.337   1.516  -0.004  0.00  0.00    +0.044 C 
ATOM     22  C   UNL     1       0.311   0.009  -0.011  0.00  0.00    -0.050 A 
ATOM     23  C   UNL     1       1.037  -0.698   0.930  0.00  0.00    +0.005 A 
ATOM     24  C   UNL     1       1.015  -2.079   0.927  0.00  0.00    +0.023 A 
ATOM     25  C   UNL     1       0.262  -2.757  -0.023  0.00  0.00    +0.033 A 
ATOM     26  C   UNL     1      -0.467  -2.045  -0.966  0.00  0.00    +0.023 A 
ATOM     27  C   UNL     1      -0.444  -0.664  -0.954  0.00  0.00    +0.005 A 
ENDBRANCH  17  25
ENDBRANCH  16  18
ENDBRANCH  15  16
ENDBRANCH   1  15
BRANCH   4  28
ATOM     28  C   UNL     1      -0.414 -11.787   3.568  0.00  0.00    +0.097 C 
BRANCH  28  29
ATOM     29  C   UNL     1      -0.314 -13.168   2.972  0.00  0.00    +0.029 A 
ATOM     30  N   UNL     1      -0.791 -13.410   1.713  0.00  0.00    -0.311 N 
ATOM     31  C   UNL     1      -0.705 -14.638   1.172  0.00  0.00    +0.327 A 
ATOM     32  O   UNL     1      -1.136 -14.831   0.051  0.00  0.00    -0.247 OA
ATOM     33  N   UNL     1      -0.149 -15.657   1.853  0.00  0.00    -0.275 N 
ATOM     34  C   UNL     1       0.333 -15.460   3.097  0.00  0.00    +0.254 A 
ATOM     35  O   UNL     1       0.836 -16.381   3.714  0.00  0.00    -0.268 OA
ATOM     36  C   UNL     1       0.253 -14.171   3.676  0.00  0.00    +0.091 A 
ATOM     37  H   UNL     1      -0.095 -16.537   1.448  0.00  0.00    +0.173 HD
ATOM     38  H   UNL     1      -1.195 -12.688   1.205  0.00  0.00    +0.170 HD
ENDBRANCH  28  29
ENDBRANCH   4  28
TORSDOF 8
