REMARK  Name = ZINC49650977
REMARK  8 active torsions:
REMARK  status: ('A' for Active; 'I' for Inactive)
REMARK    1  A    between atoms: C_1  and  N_2
REMARK    2  A    between atoms: N_2  and  C_3
REMARK    3  A    between atoms: N_2  and  S_23
REMARK    4  A    between atoms: C_3  and  C_4
REMARK    5  A    between atoms: C_4  and  N_6
REMARK    6  A    between atoms: N_13  and  C_16
REMARK    7  A    between atoms: C_16  and  C_17
REMARK    8  A    between atoms: S_23  and  C_26
REMARK                            x       y       z     vdW  Elec       q    Type
REMARK                         _______ _______ _______ _____ _____    ______ ____
ROOT
ATOM      1  N   UNL     1      -1.606  -1.552   2.915  0.00  0.00    -0.155 NA
ATOM      2  C   UNL     1      -2.854  -1.699   3.366  0.00  0.00    +0.163 A 
ATOM      3  N   UNL     1      -4.013  -1.268   2.801  0.00  0.00    -0.339 N 
ATOM      4  C   UNL     1      -5.203  -1.520   3.425  0.00  0.00    +0.024 A 
ATOM      5  C   UNL     1      -5.112  -2.195   4.583  0.00  0.00    -0.004 A 
ATOM      6  S   UNL     1      -3.374  -2.470   4.770  0.00  0.00    -0.059 S 
ATOM      7  C   UNL     1      -6.240  -2.600   5.473  0.00  0.00    -0.033 C 
ATOM      8  N   UNL     1      -7.437  -1.829   5.086  0.00  0.00    +0.386 N 
ATOM      9  C   UNL     1      -7.632  -1.926   3.633  0.00  0.00    -0.072 C 
ATOM     10  C   UNL     1      -6.570  -1.099   2.901  0.00  0.00    +0.035 C 
ATOM     11  H   UNL     1      -3.995  -0.785   1.960  0.00  0.00    +0.167 HD
ATOM     12  H   UNL     1      -7.313  -0.862   5.346  0.00  0.00    -0.081 HD
ENDROOT
BRANCH   1  13
ATOM     13  C   UNL     1      -1.384  -0.909   1.776  0.00  0.00    +0.254 C 
ATOM     14  O   UNL     1      -2.318  -0.453   1.143  0.00  0.00    -0.272 OA
BRANCH  13  15
ATOM     15  C   UNL     1       0.024  -0.743   1.267  0.00  0.00    +0.207 C 
BRANCH  15  17
ATOM     16  C   UNL     1      -0.018   1.461   0.010  0.00  0.00    +0.132 C 
ATOM     17  N   UNL     1       0.002  -0.004   0.002  0.00  0.00    -0.170 NA
BRANCH  17  18
ATOM     18  S   UNL     1      -0.000  -0.824  -1.437  0.00  0.00    +0.067 S 
ATOM     19  O   UNL     1      -0.531  -2.115  -1.167  0.00  0.00    -0.152 OA
ATOM     20  O   UNL     1      -0.572   0.049  -2.401  0.00  0.00    -0.152 OA
BRANCH  18  21
ATOM     21  C   UNL     1       1.682  -1.059  -1.905  0.00  0.00    +0.143 A 
ATOM     22  C   UNL     1       2.513  -2.091  -1.615  0.00  0.00    +0.036 A 
ATOM     23  C   UNL     1       3.808  -2.063  -2.096  0.00  0.00    +0.010 A 
ATOM     24  C   UNL     1       4.210  -1.006  -2.843  0.00  0.00    +0.047 A 
ATOM     25  S   UNL     1       2.732  -0.005  -2.891  0.00  0.00    -0.077 S 
ENDBRANCH  18  21
ENDBRANCH  17  18
ENDBRANCH  15  17
ENDBRANCH  13  15
ENDBRANCH   1  13
BRANCH   8  26
ATOM     26  C   UNL     1      -8.614  -2.375   5.775  0.00  0.00    -0.043 C 
BRANCH  26  27
ATOM     27  C   UNL     1      -8.469  -2.165   7.261  0.00  0.00    -0.064 A 
ATOM     28  C   UNL     1      -7.850  -3.127   8.037  0.00  0.00    +0.002 A 
ATOM     29  C   UNL     1      -7.716  -2.934   9.399  0.00  0.00    +0.000 A 
ATOM     30  C   UNL     1      -8.201  -1.780   9.985  0.00  0.00    +0.000 A 
ATOM     31  C   UNL     1      -8.819  -0.818   9.209  0.00  0.00    +0.000 A 
ATOM     32  C   UNL     1      -8.949  -1.008   7.846  0.00  0.00    +0.002 A 
ENDBRANCH  26  27
ENDBRANCH   8  26
TORSDOF 7
