REMARK  Name = ZINC09877113
REMARK  5 active torsions:
REMARK  status: ('A' for Active; 'I' for Inactive)
REMARK    1  A    between atoms: C_1  and  C_2
REMARK    2  A    between atoms: C_2  and  C_28
REMARK    3  A    between atoms: N_5  and  C_9
REMARK    4  A    between atoms: C_9  and  C_10
REMARK    5  A    between atoms: C_16  and  C_18
REMARK                            x       y       z     vdW  Elec       q    Type
REMARK                         _______ _______ _______ _____ _____    ______ ____
ROOT
ATOM      1  C   UNL     1       8.223  -0.430  -1.706  0.00  0.00    +0.213 C 
ENDROOT
BRANCH   1   6
ATOM      2  C   UNL     1      10.053  -0.884   2.596  0.00  0.00    +0.047 C 
ATOM      3  C   UNL     1       8.842  -1.409   1.823  0.00  0.00    +0.138 C 
ATOM      4  C   UNL     1       8.409  -0.405   0.773  0.00  0.00    +0.251 C 
ATOM      5  O   UNL     1       8.024   0.730   0.959  0.00  0.00    -0.272 OA
ATOM      6  N   UNL     1       8.538  -1.037  -0.410  0.00  0.00    -0.215 N 
ATOM      7  C   UNL     1       8.995  -2.285  -0.256  0.00  0.00    +0.310 C 
ATOM      8  O   UNL     1       9.197  -3.049  -1.179  0.00  0.00    -0.252 OA
ATOM      9  N   UNL     1       9.206  -2.599   1.035  0.00  0.00    -0.281 N 
ATOM     10  H   UNL     1       9.533  -3.444   1.380  0.00  0.00    +0.152 HD
BRANCH   3  11
ATOM     11  C   UNL     1       7.709  -1.723   2.766  0.00  0.00    +0.022 A 
ATOM     12  C   UNL     1       7.183  -3.000   2.813  0.00  0.00    +0.047 A 
ATOM     13  C   UNL     1       6.145  -3.290   3.681  0.00  0.00    +0.124 A 
ATOM     14  C   UNL     1       5.627  -2.297   4.497  0.00  0.00    +0.041 A 
ATOM     15  C   UNL     1       6.149  -1.019   4.446  0.00  0.00    +0.041 A 
ATOM     16  C   UNL     1       7.191  -0.731   3.580  0.00  0.00    +0.129 A 
ATOM     17  F   UNL     1       7.701   0.519   3.531  0.00  0.00    -0.205 F 
ATOM     18  F   UNL     1       5.634  -4.540   3.731  0.00  0.00    -0.205 F 
ENDBRANCH   3  11
ENDBRANCH   1   6
BRANCH   1  19
ATOM     19  C   UNL     1       6.780  -0.698  -2.049  0.00  0.00    +0.234 C 
ATOM     20  O   UNL     1       6.083  -1.332  -1.286  0.00  0.00    -0.274 OA
ATOM     21  N   UNL     1       6.264  -0.231  -3.203  0.00  0.00    -0.293 N 
ATOM     22  C   UNL     1       6.995   0.551  -4.217  0.00  0.00    +0.108 C 
ATOM     23  C   UNL     1       6.224   0.306  -5.538  0.00  0.00    +0.021 C 
ATOM     24  C   UNL     1       4.756   0.263  -5.039  0.00  0.00    +0.029 C 
ATOM     25  C   UNL     1       4.879  -0.418  -3.660  0.00  0.00    +0.106 C 
BRANCH  25  26
ATOM     26  C   UNL     1       3.927   0.224  -2.684  0.00  0.00    -0.023 A 
ATOM     27  C   UNL     1       4.248   1.436  -2.102  0.00  0.00    +0.009 A 
ATOM     28  C   UNL     1       3.377   2.027  -1.207  0.00  0.00    +0.050 A 
ATOM     29  C   UNL     1       2.179   1.406  -0.889  0.00  0.00    +0.162 A 
ATOM     30  C   UNL     1       1.855   0.188  -1.476  0.00  0.00    +0.162 A 
ATOM     31  C   UNL     1       2.734  -0.400  -2.373  0.00  0.00    +0.055 A 
ATOM     32  O   UNL     1       0.682  -0.436  -1.181  0.00  0.00    -0.485 OA
ATOM     33  C   UNL     1       0.002  -0.004   0.002  0.00  0.00    +0.270 C 
ATOM     34  C   UNL     1      -0.019   1.530   0.011  0.00  0.00    +0.270 C 
ATOM     35  O   UNL     1       1.335   1.997   0.000  0.00  0.00    -0.485 OA
ENDBRANCH  25  26
ENDBRANCH   1  19
TORSDOF 4
