REMARK  Name = ZINC12376275
REMARK  6 active torsions:
REMARK  status: ('A' for Active; 'I' for Inactive)
REMARK    1  A    between atoms: C_4  and  C_7
REMARK    2  A    between atoms: C_7  and  C_8
REMARK    3  A    between atoms: C_8  and  N_9
REMARK    4  A    between atoms: N_9  and  C_10
REMARK    5  A    between atoms: C_10  and  C_11
REMARK    6  A    between atoms: C_23  and  C_25
REMARK                            x       y       z     vdW  Elec       q    Type
REMARK                         _______ _______ _______ _____ _____    ______ ____
ROOT
ATOM      1  N   UNL     1       2.153   5.483   0.010  0.00  0.00    -0.293 N 
ATOM      2  C   UNL     1       1.934   6.119   1.177  0.00  0.00    +0.222 C 
ATOM      3  O   UNL     1       1.618   7.290   1.180  0.00  0.00    -0.275 OA
ENDROOT
BRANCH   2   4
ATOM      4  C   UNL     1       2.081   5.375   2.480  0.00  0.00    +0.048 C 
ATOM      5  C   UNL     1       1.183   4.136   2.464  0.00  0.00    +0.019 C 
ATOM      6  C   UNL     1       1.333   3.381   3.787  0.00  0.00    -0.009 C 
ATOM      7  C   UNL     1       0.923   4.294   4.944  0.00  0.00    +0.007 C 
ATOM      8  C   UNL     1       1.821   5.533   4.960  0.00  0.00    -0.009 C 
ATOM      9  C   UNL     1       1.671   6.288   3.638  0.00  0.00    +0.019 C 
ATOM     10  C   UNL     1       3.278   5.104   5.140  0.00  0.00    +0.007 C 
ATOM     11  C   UNL     1       3.688   4.191   3.983  0.00  0.00    -0.009 C 
ATOM     12  C   UNL     1       2.790   2.952   3.967  0.00  0.00    +0.007 C 
ATOM     13  C   UNL     1       3.539   4.946   2.660  0.00  0.00    +0.019 C 
ENDBRANCH   2   4
BRANCH   1  14
ATOM     14  C   UNL     1       2.128   6.232  -1.249  0.00  0.00    +0.113 C 
BRANCH  14  15
ATOM     15  C   UNL     1       0.706   6.235  -1.812  0.00  0.00    +0.054 C 
BRANCH  15  19
ATOM     16  C   UNL     1       0.631   8.421  -5.481  0.00  0.00    +0.000 A 
ATOM     17  C   UNL     1       0.880   7.061  -5.492  0.00  0.00    +0.000 A 
ATOM     18  C   UNL     1       0.904   6.354  -4.304  0.00  0.00    +0.004 A 
ATOM     19  C   UNL     1       0.679   7.006  -3.107  0.00  0.00    -0.046 A 
ATOM     20  C   UNL     1       0.425   8.365  -3.097  0.00  0.00    +0.004 A 
ATOM     21  C   UNL     1       0.406   9.073  -4.284  0.00  0.00    +0.000 A 
ENDBRANCH  15  19
ENDBRANCH  14  15
ENDBRANCH   1  14
BRANCH   1  22
ATOM     22  C   UNL     1       2.417   4.042  -0.001  0.00  0.00    +0.182 C 
BRANCH  22  23
ATOM     23  C   UNL     1       1.127   3.296  -0.227  0.00  0.00    +0.128 A 
ATOM     24  N   UNL     1       1.165   1.939  -0.269  0.00  0.00    -0.309 N 
ATOM     25  H   UNL     1       2.011   1.479  -0.155  0.00  0.00    +0.170 HD
ATOM     26  C   UNL     1       0.034   1.224  -0.470  0.00  0.00    +0.259 A 
ATOM     27  O   UNL     1       0.054   0.007  -0.511  0.00  0.00    -0.267 OA
ATOM     28  C   UNL     1      -1.219   1.973  -0.643  0.00  0.00    +0.065 A 
ATOM     29  C   UNL     1      -2.439   1.332  -0.849  0.00  0.00    +0.015 A 
ATOM     30  C   UNL     1      -3.584   2.083  -0.999  0.00  0.00    +0.001 A 
ATOM     31  C   UNL     1      -3.531   3.470  -0.941  0.00  0.00    +0.002 A 
ATOM     32  C   UNL     1      -2.337   4.123  -0.732  0.00  0.00    +0.028 A 
ATOM     33  C   UNL     1      -1.163   3.383  -0.577  0.00  0.00    +0.078 A 
ATOM     34  N   UNL     1       0.035   3.985  -0.371  0.00  0.00    -0.232 NA
ENDBRANCH  22  23
ENDBRANCH   1  22
TORSDOF 6
