REMARK  Name = ZINC16026659
REMARK  11 active torsions:
REMARK  status: ('A' for Active; 'I' for Inactive)
REMARK    1  A    between atoms: C_1  and  C_2
REMARK    2  A    between atoms: C_2  and  O_3
REMARK    3  A    between atoms: O_3  and  C_4
REMARK    4  A    between atoms: C_4  and  C_6
REMARK    5  A    between atoms: C_9  and  N_12
REMARK    6  A    between atoms: C_13  and  C_15
REMARK    7  A    between atoms: C_18  and  C_31
REMARK    8  A    between atoms: C_23  and  C_30
REMARK    9  A    between atoms: C_31  and  C_32
REMARK   10  A    between atoms: C_32  and  C_33
REMARK   11  A    between atoms: C_32  and  C_34
REMARK                            x       y       z     vdW  Elec       q    Type
REMARK                         _______ _______ _______ _____ _____    ______ ____
ROOT
ATOM      1  C   UNL     1      -0.864  -6.358  -0.035  0.00  0.00    +0.076 C 
ATOM      2  C   UNL     1      -0.240  -6.858   1.290  0.00  0.00    -0.004 C 
ATOM      3  C   UNL     1      -1.037  -8.155   1.581  0.00  0.00    -0.069 C 
ATOM      4  C   UNL     1      -2.247  -7.017  -0.091  0.00  0.00    +0.049 C 
ATOM      5  C   UNL     1      -2.393  -7.867  -1.324  0.00  0.00    -0.027 A 
ATOM      6  C   UNL     1      -1.710  -8.963  -1.802  0.00  0.00    +0.008 A 
ATOM      7  C   UNL     1      -2.087  -9.544  -3.000  0.00  0.00    -0.050 A 
ATOM      8  C   UNL     1      -3.150  -9.023  -3.714  0.00  0.00    +0.005 A 
ATOM      9  C   UNL     1      -3.837  -7.925  -3.238  0.00  0.00    +0.024 A 
ATOM     10  C   UNL     1      -3.463  -7.333  -2.034  0.00  0.00    +0.036 A 
ATOM     11  N   UNL     1      -3.991  -6.232  -1.356  0.00  0.00    -0.286 N 
ATOM     12  C   UNL     1      -3.334  -5.979  -0.208  0.00  0.00    +0.211 C 
ATOM     13  O   UNL     1      -3.571  -5.088   0.579  0.00  0.00    -0.277 OA
ATOM     14  C   UNL     1      -1.341 -10.744  -3.525  0.00  0.00    +0.044 C 
ATOM     15  H   UNL     1      -4.744  -5.710  -1.675  0.00  0.00    +0.155 HD
ATOM     16  N   UNL     1      -2.391  -7.813   1.119  0.00  0.00    +0.394 N 
ATOM     17  H   UNL     1      -2.882  -7.271   1.840  0.00  0.00    -0.083 HD
ATOM     18  H   UNL     1      -2.920  -8.669   0.916  0.00  0.00    -0.083 HD
ENDROOT
BRANCH   1  20
ATOM     19  N   UNL     1      -1.119  -4.178  -1.177  0.00  0.00    -0.285 N 
ATOM     20  C   UNL     1      -0.998  -4.857  -0.018  0.00  0.00    +0.220 C 
ATOM     21  O   UNL     1      -0.996  -4.260   1.037  0.00  0.00    -0.275 OA
ATOM     22  H   UNL     1      -1.187  -4.660  -2.016  0.00  0.00    +0.155 HD
BRANCH  19  26
ATOM     23  C   UNL     1      -1.199  -0.014  -1.151  0.00  0.00    +0.059 A 
ATOM     24  C   UNL     1      -0.589  -0.697  -2.208  0.00  0.00    +0.017 A 
ATOM     25  C   UNL     1      -0.559  -2.073  -2.210  0.00  0.00    +0.024 A 
ATOM     26  C   UNL     1      -1.146  -2.785  -1.168  0.00  0.00    +0.033 A 
ATOM     27  C   UNL     1      -1.759  -2.109  -0.118  0.00  0.00    +0.024 A 
ATOM     28  C   UNL     1      -1.787  -0.733  -0.106  0.00  0.00    +0.017 A 
BRANCH  23  29
ATOM     29  C   UNL     1      -1.227   1.460  -1.142  0.00  0.00    +0.339 C 
ATOM     30  O   UNL     1      -1.762   2.052  -0.225  0.00  0.00    -0.245 OA
BRANCH  29  31
ATOM     31  O   UNL     1      -0.655   2.151  -2.147  0.00  0.00    -0.461 OA
BRANCH  31  33
ATOM     32  C   UNL     1      -0.024   4.206  -3.292  0.00  0.00    +0.048 C 
ATOM     33  C   UNL     1      -0.721   3.600  -2.073  0.00  0.00    +0.229 C 
ENDBRANCH  31  33
ENDBRANCH  29  31
ENDBRANCH  23  29
ENDBRANCH  19  26
ENDBRANCH   1  20
BRANCH   3  34
ATOM     34  C   UNL     1      -1.022  -8.477   3.077  0.00  0.00    -0.013 C 
BRANCH  34  35
ATOM     35  C   UNL     1      -1.807  -9.766   3.329  0.00  0.00    -0.019 C 
ATOM     36  C   UNL     1      -1.091 -10.939   2.656  0.00  0.00    +0.007 C 
ATOM     37  C   UNL     1      -1.899 -10.021   4.835  0.00  0.00    +0.007 C 
ENDBRANCH  34  35
ENDBRANCH   3  34
TORSDOF 7
