REMARK  Name = ZINC44170836
REMARK  10 active torsions:
REMARK  status: ('A' for Active; 'I' for Inactive)
REMARK    1  A    between atoms: C_3  and  O_38
REMARK    2  A    between atoms: C_6  and  C_7
REMARK    3  A    between atoms: C_15  and  O_20
REMARK    4  A    between atoms: C_16  and  O_19
REMARK    5  A    between atoms: C_17  and  O_18
REMARK    6  A    between atoms: O_20  and  C_21
REMARK    7  A    between atoms: C_23  and  O_37
REMARK    8  A    between atoms: C_25  and  O_36
REMARK    9  A    between atoms: C_27  and  O_35
REMARK   10  A    between atoms: C_29  and  C_32
REMARK                            x       y       z     vdW  Elec       q    Type
REMARK                         _______ _______ _______ _____ _____    ______ ____
ROOT
ATOM      1  C   UNL     1      -1.264  -0.761   0.011  0.00  0.00    +0.139 A 
ATOM      2  C   UNL     1      -1.213  -2.120   0.008  0.00  0.00    +0.098 A 
ATOM      3  C   UNL     1      -2.417  -2.864   0.016  0.00  0.00    +0.197 A 
ATOM      4  O   UNL     1      -2.409  -4.084   0.015  0.00  0.00    -0.287 OA
ATOM      5  C   UNL     1      -3.681  -2.107   0.027  0.00  0.00    +0.109 A 
ATOM      6  C   UNL     1      -3.622  -0.702   0.029  0.00  0.00    +0.146 A 
ATOM      7  O   UNL     1      -2.422  -0.082   0.026  0.00  0.00    -0.454 OA
ATOM      8  C   UNL     1      -4.798   0.030   0.038  0.00  0.00    +0.096 A 
ATOM      9  C   UNL     1      -6.022  -0.620   0.047  0.00  0.00    +0.172 A 
ATOM     10  C   UNL     1      -6.085  -2.012   0.045  0.00  0.00    +0.202 A 
ATOM     11  C   UNL     1      -4.918  -2.761   0.036  0.00  0.00    +0.177 A 
ENDROOT
BRANCH   1  17
ATOM     12  C   UNL     1      -0.017   1.393   0.010  0.00  0.00    +0.015 A 
ATOM     13  C   UNL     1       1.168   2.096   0.002  0.00  0.00    +0.046 A 
ATOM     14  C   UNL     1       2.380   1.418  -0.013  0.00  0.00    +0.117 A 
ATOM     15  C   UNL     1       2.404   0.028  -0.022  0.00  0.00    +0.046 A 
ATOM     16  C   UNL     1       1.224  -0.682  -0.014  0.00  0.00    +0.015 A 
ATOM     17  C   UNL     1       0.002  -0.004   0.002  0.00  0.00    +0.018 A 
BRANCH  14  18
ATOM     18  O   UNL     1       3.546   2.115  -0.021  0.00  0.00    -0.507 OA
ATOM     19  H   UNL     1       3.892   2.312   0.860  0.00  0.00    +0.292 HD
ENDBRANCH  14  18
ENDBRANCH   1  17
BRANCH  11  20
ATOM     20  O   UNL     1      -4.976  -4.118   0.035  0.00  0.00    -0.503 OA
ATOM     21  H   UNL     1      -4.986  -4.512   0.918  0.00  0.00    +0.292 HD
ENDBRANCH  11  20
BRANCH  10  22
ATOM     22  O   UNL     1      -7.294  -2.638   0.054  0.00  0.00    -0.501 OA
ATOM     23  H   UNL     1      -7.650  -2.817  -0.827  0.00  0.00    +0.292 HD
ENDBRANCH  10  22
BRANCH   9  24
ATOM     24  O   UNL     1      -7.170   0.106   0.057  0.00  0.00    -0.457 OA
BRANCH  24  25
ATOM     25  C   UNL     1      -7.038   1.528   0.059  0.00  0.00    +0.340 C 
ATOM     26  C   UNL     1      -8.423   2.170  -0.055  0.00  0.00    +0.214 C 
ATOM     27  C   UNL     1      -9.260   1.779   1.168  0.00  0.00    +0.180 C 
ATOM     28  C   UNL     1      -8.521   2.212   2.438  0.00  0.00    +0.186 C 
ATOM     29  C   UNL     1      -7.131   1.569   2.455  0.00  0.00    +0.266 C 
ATOM     30  O   UNL     1      -6.418   1.948   1.276  0.00  0.00    -0.322 OA
BRANCH  29  31
ATOM     31  C   UNL     1      -6.376   2.037   3.672  0.00  0.00    +0.387 C 
ATOM     32  O   UNL     1      -6.769   1.736   4.786  0.00  0.00    -0.243 OA
ATOM     33  O   UNL     1      -5.372   2.717   3.542  0.00  0.00    -0.243 OA
ENDBRANCH  29  31
BRANCH  28  34
ATOM     34  O   UNL     1      -9.258   1.790   3.587  0.00  0.00    -0.386 OA
ATOM     35  H   UNL     1      -8.847   2.031   4.428  0.00  0.00    +0.210 HD
ENDBRANCH  28  34
BRANCH  27  36
ATOM     36  O   UNL     1      -9.451   0.363   1.183  0.00  0.00    -0.386 OA
ATOM     37  H   UNL     1      -9.974   0.045   1.932  0.00  0.00    +0.210 HD
ENDBRANCH  27  36
BRANCH  26  38
ATOM     38  O   UNL     1      -8.288   3.591  -0.108  0.00  0.00    -0.383 OA
ATOM     39  H   UNL     1      -7.765   3.909  -0.857  0.00  0.00    +0.210 HD
ENDBRANCH  26  38
ENDBRANCH  24  25
ENDBRANCH   9  24
TORSDOF 10
