REMARK  Name = ZINC08629246
REMARK  9 active torsions:
REMARK  status: ('A' for Active; 'I' for Inactive)
REMARK    1  A    between atoms: C_1  and  C_2
REMARK    2  A    between atoms: C_2  and  C_4
REMARK    3  A    between atoms: C_2  and  O_15
REMARK    4  A    between atoms: N_6  and  C_7
REMARK    5  A    between atoms: C_7  and  C_13
REMARK    6  A    between atoms: O_15  and  C_16
REMARK    7  A    between atoms: C_16  and  C_18
REMARK    8  A    between atoms: C_31  and  C_32
REMARK    9  A    between atoms: C_35  and  O_38
REMARK                            x       y       z     vdW  Elec       q    Type
REMARK                         _______ _______ _______ _____ _____    ______ ____
ROOT
ATOM      1  C   UNL     1       6.667   0.839   2.909  0.00  0.00    +0.073 A 
ATOM      2  C   UNL     1       6.848  -0.608   3.040  0.00  0.00    +0.015 A 
ATOM      3  C   UNL     1       6.317  -1.500   2.104  0.00  0.00    +0.011 A 
ATOM      4  C   UNL     1       6.510  -2.841   2.267  0.00  0.00    +0.001 A 
ATOM      5  C   UNL     1       7.230  -3.330   3.355  0.00  0.00    +0.002 A 
ATOM      6  C   UNL     1       7.767  -2.488   4.279  0.00  0.00    +0.028 A 
ATOM      7  C   UNL     1       7.585  -1.098   4.147  0.00  0.00    +0.072 A 
ATOM      8  N   UNL     1       8.087  -0.251   5.042  0.00  0.00    -0.247 NA
ATOM      9  C   UNL     1       7.937   1.067   4.954  0.00  0.00    +0.072 A 
ATOM     10  C   UNL     1       7.226   1.646   3.890  0.00  0.00    -0.007 A 
ATOM     11  C   UNL     1       7.213   3.147   4.042  0.00  0.00    +0.043 C 
ATOM     12  C   UNL     1       7.997   3.456   5.325  0.00  0.00    +0.042 C 
ATOM     13  C   UNL     1       8.433   2.117   5.864  0.00  0.00    -0.021 C 
ATOM     14  C   UNL     1       9.151   1.914   6.983  0.00  0.00    +0.013 C 
ENDROOT
BRANCH  14  15
ATOM     15  C   UNL     1       9.697   3.062   7.726  0.00  0.00    -0.024 A 
ATOM     16  C   UNL     1      10.579   2.854   8.790  0.00  0.00    +0.011 A 
ATOM     17  C   UNL     1      11.091   3.932   9.479  0.00  0.00    +0.046 A 
ATOM     18  C   UNL     1      10.722   5.224   9.124  0.00  0.00    +0.117 A 
ATOM     19  C   UNL     1       9.841   5.436   8.071  0.00  0.00    +0.046 A 
ATOM     20  C   UNL     1       9.329   4.365   7.373  0.00  0.00    +0.011 A 
BRANCH  18  21
ATOM     21  O   UNL     1      11.224   6.284   9.810  0.00  0.00    -0.507 OA
ATOM     22  H   UNL     1      10.689   6.550  10.570  0.00  0.00    +0.292 HD
ENDBRANCH  18  21
ENDBRANCH  14  15
BRANCH   1  23
ATOM     23  C   UNL     1       5.913   1.417   1.778  0.00  0.00    +0.341 C 
ATOM     24  O   UNL     1       6.492   1.720   0.753  0.00  0.00    -0.245 OA
BRANCH  23  25
ATOM     25  O   UNL     1       4.584   1.609   1.882  0.00  0.00    -0.449 OA
BRANCH  25  27
ATOM     26  C   UNL     1       3.903   3.707   0.850  0.00  0.00    +0.062 C 
ATOM     27  C   UNL     1       3.908   2.182   0.732  0.00  0.00    +0.259 C 
BRANCH  27  28
ATOM     28  C   UNL     1       2.489   1.677   0.680  0.00  0.00    +0.255 C 
ATOM     29  O   UNL     1       2.059   0.984   1.577  0.00  0.00    -0.272 OA
ATOM     30  N   UNL     1       1.697   1.997  -0.363  0.00  0.00    -0.294 N 
ATOM     31  H   UNL     1       2.041   2.552  -1.080  0.00  0.00    +0.150 HD
BRANCH  30  32
ATOM     32  C   UNL     1       0.318   1.506  -0.413  0.00  0.00    +0.121 C 
ATOM     33  C   UNL     1      -0.451   2.021   0.806  0.00  0.00    +0.041 C 
ATOM     34  C   UNL     1      -1.892   1.509   0.753  0.00  0.00    +0.003 C 
ATOM     35  C   UNL     1      -2.566   2.012  -0.524  0.00  0.00    +0.000 C 
ATOM     36  C   UNL     1      -1.797   1.497  -1.743  0.00  0.00    +0.003 C 
ATOM     37  C   UNL     1      -0.356   2.009  -1.691  0.00  0.00    +0.041 C 
BRANCH  32  38
ATOM     38  C   UNL     1       0.320   0.034  -0.406  0.00  0.00    +0.088 C 
ATOM     39  N   UNL     1       0.322  -1.102  -0.401  0.00  0.00    -0.194 NA
ENDBRANCH  32  38
ENDBRANCH  30  32
ENDBRANCH  27  28
ENDBRANCH  25  27
ENDBRANCH  23  25
ENDBRANCH   1  23
TORSDOF 8
