REMARK  Name = ZINC49123143
REMARK  2 active torsions:
REMARK  status: ('A' for Active; 'I' for Inactive)
REMARK    1  A    between atoms: C_4  and  N_8
REMARK    2  A    between atoms: C_14  and  C_17
REMARK                            x       y       z     vdW  Elec       q    Type
REMARK                         _______ _______ _______ _____ _____    ______ ____
ROOT
ATOM      1  N   UNL     1       3.622  -0.651  -0.031  0.00  0.00    -0.268 N 
ATOM      2  C   UNL     1       3.646  -1.996   0.057  0.00  0.00    +0.306 C 
ATOM      3  O   UNL     1       2.604  -2.623   0.058  0.00  0.00    -0.252 OA
ATOM      4  N   UNL     1       4.824  -2.645   0.143  0.00  0.00    -0.285 N 
ATOM      5  C   UNL     1       6.084  -1.898   0.251  0.00  0.00    +0.110 C 
ATOM      6  C   UNL     1       7.036  -2.376  -0.850  0.00  0.00    +0.034 C 
ATOM      7  C   UNL     1       7.196  -3.895  -0.757  0.00  0.00    +0.105 C 
ATOM      8  C   UNL     1       5.838  -4.566  -0.969  0.00  0.00    +0.034 C 
ATOM      9  C   UNL     1       4.871  -4.114   0.136  0.00  0.00    +0.110 C 
ATOM     10  H   UNL     1       4.454  -0.153  -0.063  0.00  0.00    +0.156 HD
ENDROOT
BRANCH   1  14
ATOM     11  C   UNL     1      -0.022   1.366  -0.163  0.00  0.00    +0.016 A 
ATOM     12  C   UNL     1       1.158   2.062  -0.345  0.00  0.00    +0.018 A 
ATOM     13  C   UNL     1       2.368   1.397  -0.302  0.00  0.00    +0.039 A 
ATOM     14  C   UNL     1       2.398   0.026  -0.075  0.00  0.00    +0.050 A 
ATOM     15  C   UNL     1       1.211  -0.670   0.108  0.00  0.00    +0.039 A 
ATOM     16  C   UNL     1       0.004   0.002   0.063  0.00  0.00    +0.020 A 
ATOM     17 BR   UNL     1      -1.614  -0.946   0.311  0.00  0.00    -0.050 Br
ATOM     18 BR   UNL     1       3.982   2.350  -0.552  0.00  0.00    -0.048 Br
ENDBRANCH   1  14
BRANCH   7  19
ATOM     19  C   UNL     1       8.159  -4.364  -1.817  0.00  0.00    +0.359 C 
ATOM     20  O   UNL     1       8.972  -5.235  -1.560  0.00  0.00    -0.246 OA
ATOM     21  O   UNL     1       8.125  -3.872  -2.933  0.00  0.00    -0.246 OA
ENDBRANCH   7  19
TORSDOF 2
