REMARK  Name = ZINC22839728
REMARK  11 active torsions:
REMARK  status: ('A' for Active; 'I' for Inactive)
REMARK    1  A    between atoms: C_1  and  C_2
REMARK    2  A    between atoms: C_2  and  N_3
REMARK    3  A    between atoms: C_7  and  C_12
REMARK    4  A    between atoms: N_14  and  C_15
REMARK    5  A    between atoms: C_15  and  C_16
REMARK    6  A    between atoms: C_16  and  C_18
REMARK    7  A    between atoms: C_16  and  C_28
REMARK    8  A    between atoms: C_22  and  O_26
REMARK    9  A    between atoms: C_23  and  O_24
REMARK   10  A    between atoms: O_24  and  C_25
REMARK   11  A    between atoms: O_26  and  C_27
REMARK                            x       y       z     vdW  Elec       q    Type
REMARK                         _______ _______ _______ _____ _____    ______ ____
ROOT
ATOM      1  C   UNL     1      -2.514   0.977   0.019  0.00  0.00    +0.072 C 
ENDROOT
BRANCH   1   2
ATOM      2  C   UNL     1      -2.575   0.102   1.245  0.00  0.00    -0.013 A 
ATOM      3  C   UNL     1      -1.714  -0.874   1.573  0.00  0.00    +0.088 A 
ATOM      4  N   UNL     1      -2.088  -1.447   2.759  0.00  0.00    -0.360 N 
ATOM      5  H   UNL     1      -1.490  -2.265   3.187  0.00  0.00    +0.165 HD
ATOM      6  C   UNL     1      -3.233  -0.844   3.229  0.00  0.00    +0.047 A 
ATOM      7  C   UNL     1      -3.589   0.153   2.302  0.00  0.00    +0.003 A 
ATOM      8  C   UNL     1      -4.723   0.936   2.521  0.00  0.00    +0.010 A 
ATOM      9  C   UNL     1      -5.484   0.729   3.637  0.00  0.00    +0.001 A 
ATOM     10  C   UNL     1      -5.139  -0.253   4.555  0.00  0.00    +0.002 A 
ATOM     11  C   UNL     1      -4.023  -1.037   4.358  0.00  0.00    +0.026 A 
ENDBRANCH   1   2
BRANCH   1  12
ATOM     12  C   UNL     1      -1.220   1.749   0.017  0.00  0.00    +0.007 A 
ATOM     13  C   UNL     1      -0.013   1.076   0.008  0.00  0.00    +0.008 A 
ATOM     14  C   UNL     1       1.176   1.782   0.000  0.00  0.00    +0.004 A 
ATOM     15  C   UNL     1       1.162   3.164   0.007  0.00  0.00    +0.049 A 
ATOM     16  C   UNL     1      -0.044   3.845   0.023  0.00  0.00    +0.162 A 
ATOM     17  C   UNL     1      -1.241   3.134   0.031  0.00  0.00    +0.165 A 
BRANCH  17  18
ATOM     18  O   UNL     1      -2.428   3.798   0.046  0.00  0.00    -0.491 OA
ATOM     19  C   UNL     1      -3.006   4.121  -1.220  0.00  0.00    +0.277 C 
ENDBRANCH  17  18
BRANCH  16  20
ATOM     20  O   UNL     1      -0.059   5.205   0.029  0.00  0.00    -0.491 OA
ATOM     21  C   UNL     1       1.207   5.868   0.020  0.00  0.00    +0.277 C 
ENDBRANCH  16  20
ENDBRANCH   1  12
BRANCH   1  22
ATOM     22  C   UNL     1      -2.588   0.103  -1.234  0.00  0.00    +0.117 C 
BRANCH  22  25
ATOM     23  C   UNL     1      -4.188  -1.382  -2.318  0.00  0.00    +0.244 C 
ATOM     24  O   UNL     1      -3.367  -1.578  -3.194  0.00  0.00    -0.270 OA
ATOM     25  N   UNL     1      -3.895  -0.557  -1.294  0.00  0.00    -0.310 N 
ATOM     26  H   UNL     1      -4.637  -0.379  -0.501  0.00  0.00    +0.149 HD
BRANCH  23  31
ATOM     27  N   UNL     1      -9.098  -4.022  -2.779  0.00  0.00    -0.244 N 
ATOM     28  C   UNL     1      -7.987  -3.281  -2.462  0.00  0.00    +0.089 A 
ATOM     29  C   UNL     1      -7.668  -2.426  -1.409  0.00  0.00    +0.030 A 
ATOM     30  C   UNL     1      -6.449  -1.818  -1.367  0.00  0.00    +0.015 A 
ATOM     31  C   UNL     1      -5.505  -2.047  -2.378  0.00  0.00    +0.039 A 
ATOM     32  C   UNL     1      -5.806  -2.892  -3.439  0.00  0.00    +0.044 A 
ATOM     33  C   UNL     1      -7.053  -3.522  -3.486  0.00  0.00    +0.113 A 
ATOM     34  N   UNL     1      -7.622  -4.381  -4.365  0.00  0.00    -0.129 NA
ATOM     35  N   UNL     1      -8.810  -4.688  -3.979  0.00  0.00    -0.065 NA
BRANCH  27  37
ATOM     36  C   UNL     1     -11.308  -3.014  -2.492  0.00  0.00    +0.029 C 
ATOM     37  C   UNL     1     -10.345  -4.101  -2.012  0.00  0.00    +0.142 C 
ENDBRANCH  27  37
ENDBRANCH  23  31
ENDBRANCH  22  25
ENDBRANCH   1  22
TORSDOF 8
