REMARK  Name = ZINC39232573
REMARK  4 active torsions:
REMARK  status: ('A' for Active; 'I' for Inactive)
REMARK    1  A    between atoms: C_1  and  C_2
REMARK    2  A    between atoms: N_12  and  C_14
REMARK    3  A    between atoms: C_14  and  C_15
REMARK    4  A    between atoms: C_15  and  N_17
REMARK                            x       y       z     vdW  Elec       q    Type
REMARK                         _______ _______ _______ _____ _____    ______ ____
ROOT
ATOM      1  C   UNL     1       1.834  -2.561   1.806  0.00  0.00    +0.225 C 
ENDROOT
BRANCH   1  12
ATOM      2  C   UNL     1      -0.019   1.526   0.010  0.00  0.00    +0.031 C 
ATOM      3  C   UNL     1       0.002  -0.004   0.002  0.00  0.00    +0.100 C 
ATOM      4  C   UNL     1      -1.411  -0.524   0.009  0.00  0.00    -0.017 A 
ATOM      5  C   UNL     1      -2.453   0.203  -0.518  0.00  0.00    +0.006 A 
ATOM      6  C   UNL     1      -3.737  -0.316  -0.489  0.00  0.00    +0.000 A 
ATOM      7  C   UNL     1      -3.981  -1.560   0.066  0.00  0.00    +0.001 A 
ATOM      8  C   UNL     1      -2.942  -2.300   0.599  0.00  0.00    +0.013 A 
ATOM      9  C   UNL     1      -1.653  -1.782   0.572  0.00  0.00    +0.043 A 
ATOM     10  C   UNL     1      -0.496  -2.520   1.126  0.00  0.00    +0.261 C 
ATOM     11  O   UNL     1      -0.570  -3.710   1.365  0.00  0.00    -0.269 OA
ATOM     12  N   UNL     1       0.644  -1.834   1.358  0.00  0.00    -0.223 N 
ATOM     13  N   UNL     1       0.714  -0.488   1.188  0.00  0.00    -0.230 NA
ATOM     14  H   UNL     1       0.408  -0.001   2.017  0.00  0.00    +0.145 HD
ENDBRANCH   1  12
BRANCH   1  15
ATOM     15  C   UNL     1       1.790  -2.724   3.303  0.00  0.00    +0.257 C 
ATOM     16  O   UNL     1       0.853  -2.276   3.936  0.00  0.00    -0.272 OA
BRANCH  15  17
ATOM     17  N   UNL     1       2.774  -3.357   3.932  0.00  0.00    -0.155 NA
ATOM     18  C   UNL     1       2.734  -3.502   5.255  0.00  0.00    +0.164 A 
ATOM     19  N   UNL     1       3.648  -4.110   6.053  0.00  0.00    -0.335 N 
ATOM     20  H   UNL     1       4.445  -4.505   5.667  0.00  0.00    +0.168 HD
ATOM     21  C   UNL     1       3.439  -4.165   7.419  0.00  0.00    +0.055 A 
ATOM     22  C   UNL     1       4.243  -4.737   8.415  0.00  0.00    +0.028 A 
ATOM     23  C   UNL     1       3.861  -4.690   9.736  0.00  0.00    +0.017 A 
ATOM     24  C   UNL     1       2.678  -4.080  10.119  0.00  0.00    +0.019 A 
ATOM     25  C   UNL     1       1.866  -3.507   9.154  0.00  0.00    +0.032 A 
ATOM     26  C   UNL     1       2.247  -3.553   7.834  0.00  0.00    +0.040 A 
ATOM     27  S   UNL     1       1.545  -2.965   6.315  0.00  0.00    -0.052 S 
ATOM     28 BR   UNL     1       2.175  -4.030  11.942  0.00  0.00    -0.050 Br
ENDBRANCH  15  17
ENDBRANCH   1  15
TORSDOF 3
