REMARK  Name = ZINC08982772
REMARK  13 active torsions:
REMARK  status: ('A' for Active; 'I' for Inactive)
REMARK    1  A    between atoms: C_1  and  C_2
REMARK    2  A    between atoms: C_2  and  C_3
REMARK    3  A    between atoms: C_3  and  C_5
REMARK    4  A    between atoms: C_3  and  C_6
REMARK    5  A    between atoms: C_6  and  C_7
REMARK    6  A    between atoms: C_8  and  C_35
REMARK    7  A    between atoms: C_16  and  S_18
REMARK    8  A    between atoms: S_18  and  C_19
REMARK    9  A    between atoms: C_19  and  C_21
REMARK   10  A    between atoms: C_19  and  C_22
REMARK   11  A    between atoms: N_24  and  C_25
REMARK   12  A    between atoms: C_28  and  S_31
REMARK   13  A    between atoms: S_31  and  N_34
REMARK                            x       y       z     vdW  Elec       q    Type
REMARK                         _______ _______ _______ _____ _____    ______ ____
ROOT
ATOM      1  S   UNL     1       5.521  -2.247  -0.066  0.00  0.00    -0.075 S 
ENDROOT
BRANCH   1  11
ATOM      2  C   UNL     1      -0.001  -0.019  -0.037  0.00  0.00    -0.023 A 
ATOM      3  C   UNL     1      -0.022   1.322  -0.037  0.00  0.00    -0.007 A 
ATOM      4  S   UNL     1       1.706   1.763  -0.046  0.00  0.00    -0.073 S 
ATOM      5  C   UNL     1       2.406   0.133  -0.049  0.00  0.00    +0.117 A 
ATOM      6  C   UNL     1       1.278  -0.709  -0.043  0.00  0.00    +0.075 A 
ATOM      7  C   UNL     1       1.549  -2.113  -0.045  0.00  0.00    +0.261 A 
ATOM      8  O   UNL     1       0.634  -2.919  -0.040  0.00  0.00    -0.267 OA
ATOM      9  N   UNL     1       2.828  -2.534  -0.052  0.00  0.00    -0.301 N 
ATOM     10  H   UNL     1       3.015  -3.485  -0.053  0.00  0.00    +0.171 HD
ATOM     11  C   UNL     1       3.865  -1.647  -0.057  0.00  0.00    +0.171 A 
ATOM     12  N   UNL     1       3.644  -0.348  -0.056  0.00  0.00    -0.216 NA
ATOM     13  C   UNL     1      -1.219   2.237  -0.037  0.00  0.00    +0.052 C 
BRANCH   2  14
ATOM     14  C   UNL     1      -1.288  -0.801  -0.031  0.00  0.00    +0.040 C 
BRANCH  14  15
ATOM     15  C   UNL     1      -1.732  -1.066  -1.471  0.00  0.00    -0.010 C 
ATOM     16  C   UNL     1      -0.710  -1.973  -2.160  0.00  0.00    +0.008 C 
BRANCH  15  18
ATOM     17  C   UNL     1      -3.599  -1.902  -2.905  0.00  0.00    +0.004 C 
ATOM     18  C   UNL     1      -3.100  -1.750  -1.467  0.00  0.00    +0.000 C 
ENDBRANCH  15  18
ENDBRANCH  14  15
ENDBRANCH   2  14
ENDBRANCH   1  11
BRANCH   1  19
ATOM     19  C   UNL     1       6.424  -0.677  -0.070  0.00  0.00    +0.137 C 
ATOM     20  C   UNL     1       6.156   0.068   1.238  0.00  0.00    +0.029 C 
BRANCH  19  21
ATOM     21  C   UNL     1       7.901  -0.948  -0.202  0.00  0.00    +0.230 C 
ATOM     22  O   UNL     1       8.344  -2.042   0.075  0.00  0.00    -0.274 OA
ATOM     23  N   UNL     1       8.729   0.027  -0.627  0.00  0.00    -0.285 N 
ATOM     24  H   UNL     1       8.367   0.881  -0.913  0.00  0.00    +0.155 HD
BRANCH  23  25
ATOM     25  C   UNL     1      10.110  -0.193  -0.658  0.00  0.00    +0.034 A 
ATOM     26  C   UNL     1      10.986   0.848  -0.378  0.00  0.00    +0.025 A 
ATOM     27  C   UNL     1      12.349   0.626  -0.402  0.00  0.00    +0.030 A 
ATOM     28  C   UNL     1      12.842  -0.627  -0.717  0.00  0.00    +0.105 A 
ATOM     29  C   UNL     1      11.973  -1.663  -1.002  0.00  0.00    +0.030 A 
ATOM     30  C   UNL     1      10.608  -1.450  -0.973  0.00  0.00    +0.025 A 
BRANCH  28  31
ATOM     31  S   UNL     1      14.582  -0.903  -0.754  0.00  0.00    +0.056 S 
ATOM     32  O   UNL     1      15.168   0.085   0.082  0.00  0.00    -0.153 OA
ATOM     33  O   UNL     1      14.777  -2.295  -0.541  0.00  0.00    -0.153 OA
BRANCH  31  34
ATOM     34  N   UNL     1      15.095  -0.584  -2.296  0.00  0.00    -0.204 NA
ATOM     35  H   UNL     1      14.458  -0.303  -2.971  0.00  0.00    +0.144 HD
ATOM     36  H   UNL     1      16.033  -0.679  -2.524  0.00  0.00    +0.144 HD
ENDBRANCH  31  34
ENDBRANCH  28  31
ENDBRANCH  23  25
ENDBRANCH  19  21
ENDBRANCH   1  19
TORSDOF 9
