REMARK  Name = ZINC03399991
REMARK  10 active torsions:
REMARK  status: ('A' for Active; 'I' for Inactive)
REMARK    1  A    between atoms: C_1  and  C_2
REMARK    2  A    between atoms: C_2  and  O_3
REMARK    3  A    between atoms: O_3  and  C_4
REMARK    4  A    between atoms: C_6  and  C_15
REMARK    5  A    between atoms: C_9  and  O_10
REMARK    6  A    between atoms: O_10  and  C_11
REMARK    7  A    between atoms: C_11  and  C_12
REMARK    8  A    between atoms: C_12  and  C_13
REMARK    9  A    between atoms: C_12  and  C_14
REMARK   10  A    between atoms: C_27  and  C_30
REMARK                            x       y       z     vdW  Elec       q    Type
REMARK                         _______ _______ _______ _____ _____    ______ ____
ROOT
ATOM      1  C   UNL     1      -0.013   1.086   0.008  0.00  0.00    +0.007 C 
ATOM      2  C   UNL     1      -0.697   1.577   1.262  0.00  0.00    +0.011 A 
ATOM      3  C   UNL     1      -0.022   2.067   2.326  0.00  0.00    -0.015 A 
ATOM      4  C   UNL     1      -1.003   2.435   3.322  0.00  0.00    +0.004 A 
ATOM      5  C   UNL     1      -0.898   2.988   4.603  0.00  0.00    +0.010 A 
ATOM      6  C   UNL     1      -2.070   3.209   5.282  0.00  0.00    +0.001 A 
ATOM      7  C   UNL     1      -3.307   2.906   4.735  0.00  0.00    +0.002 A 
ATOM      8  C   UNL     1      -3.441   2.360   3.471  0.00  0.00    +0.026 A 
ATOM      9  C   UNL     1      -2.267   2.123   2.757  0.00  0.00    +0.047 A 
ATOM     10  N   UNL     1      -2.042   1.606   1.514  0.00  0.00    -0.359 N 
ATOM     11  H   UNL     1      -2.731   1.305   0.901  0.00  0.00    +0.166 HD
ATOM     12  C   UNL     1       1.482   2.175   2.380  0.00  0.00    +0.034 C 
ATOM     13  C   UNL     1       2.060   1.300   1.259  0.00  0.00    -0.068 C 
ATOM     14  N   UNL     1       1.372   1.606  -0.013  0.00  0.00    +0.388 N 
ATOM     15  H   UNL     1       1.349   2.623  -0.148  0.00  0.00    -0.084 HD
ATOM     16  H   UNL     1       1.885   1.169  -0.788  0.00  0.00    -0.084 HD
ENDROOT
BRANCH   1  19
ATOM     17  C   UNL     1      -2.296   1.213  -2.999  0.00  0.00    +0.162 A 
ATOM     18  C   UNL     1      -1.614   0.750  -1.885  0.00  0.00    +0.051 A 
ATOM     19  C   UNL     1      -0.750   1.589  -1.206  0.00  0.00    -0.052 A 
ATOM     20  C   UNL     1      -0.555   2.886  -1.643  0.00  0.00    +0.006 A 
ATOM     21  C   UNL     1      -1.228   3.352  -2.757  0.00  0.00    +0.049 A 
ATOM     22  C   UNL     1      -2.100   2.519  -3.439  0.00  0.00    +0.162 A 
BRANCH  17  23
ATOM     23  O   UNL     1      -3.150   0.391  -3.665  0.00  0.00    -0.489 OA
BRANCH  23  25
ATOM     24  C   UNL     1      -4.296  -1.706  -4.030  0.00  0.00    +0.048 C 
ATOM     25  C   UNL     1      -3.302  -0.936  -3.157  0.00  0.00    +0.226 C 
ENDBRANCH  23  25
ENDBRANCH  17  23
BRANCH  22  26
ATOM     26  O   UNL     1      -2.763   2.975  -4.535  0.00  0.00    -0.488 OA
BRANCH  26  27
ATOM     27  C   UNL     1      -2.513   4.327  -4.928  0.00  0.00    +0.232 C 
BRANCH  27  28
ATOM     28  C   UNL     1      -3.341   4.658  -6.170  0.00  0.00    +0.020 C 
ATOM     29  C   UNL     1      -4.830   4.607  -5.819  0.00  0.00    +0.010 C 
ATOM     30  C   UNL     1      -2.981   6.060  -6.665  0.00  0.00    +0.010 C 
ENDBRANCH  27  28
ENDBRANCH  26  27
ENDBRANCH  22  26
ENDBRANCH   1  19
BRANCH  12  31
ATOM     31  C   UNL     1       1.980   1.686   3.715  0.00  0.00    -0.042 A 
ATOM     32  C   UNL     1       1.697   0.398   4.129  0.00  0.00    +0.004 A 
ATOM     33  C   UNL     1       2.158  -0.052   5.352  0.00  0.00    +0.000 A 
ATOM     34  C   UNL     1       2.893   0.789   6.166  0.00  0.00    +0.000 A 
ATOM     35  C   UNL     1       3.172   2.079   5.754  0.00  0.00    +0.000 A 
ATOM     36  C   UNL     1       2.715   2.527   4.529  0.00  0.00    +0.004 A 
ENDBRANCH  12  31
TORSDOF 7
