REMARK  Name = ZINC20214467
REMARK  10 active torsions:
REMARK  status: ('A' for Active; 'I' for Inactive)
REMARK    1  A    between atoms: C_1  and  S_2
REMARK    2  A    between atoms: S_2  and  C_3
REMARK    3  A    between atoms: C_6  and  C_9
REMARK    4  A    between atoms: N_10  and  N_11
REMARK    5  A    between atoms: C_12  and  C_14
REMARK    6  A    between atoms: C_14  and  N_15
REMARK    7  A    between atoms: N_15  and  C_16
REMARK    8  A    between atoms: N_15  and  S_25
REMARK    9  A    between atoms: C_21  and  N_22
REMARK   10  A    between atoms: S_25  and  C_28
REMARK                            x       y       z     vdW  Elec       q    Type
REMARK                         _______ _______ _______ _____ _____    ______ ____
ROOT
ATOM      1  N   UNL     1       4.862  -6.059  -8.272  0.00  0.00    -0.192 N 
ENDROOT
BRANCH   1   2
ATOM      2  C   UNL     1       3.884  -6.844  -8.885  0.00  0.00    +0.082 A 
ATOM      3  C   UNL     1       2.736  -7.197  -8.186  0.00  0.00    +0.027 A 
ATOM      4  C   UNL     1       1.770  -7.974  -8.796  0.00  0.00    +0.002 A 
ATOM      5  C   UNL     1       1.944  -8.399 -10.100  0.00  0.00    +0.002 A 
ATOM      6  C   UNL     1       3.085  -8.050 -10.798  0.00  0.00    +0.034 A 
ATOM      7  C   UNL     1       4.053  -7.269 -10.196  0.00  0.00    +0.149 A 
BRANCH   7   8
ATOM      8  N   UNL     1       5.271  -6.891 -10.946  0.00  0.00    +0.058 N 
ATOM      9  O   UNL     1       5.380  -7.189 -12.113  0.00  0.00    -0.126 OA
ATOM     10  O   UNL     1       6.158  -6.284 -10.392  0.00  0.00    -0.126 OA
ENDBRANCH   7   8
ENDBRANCH   1   2
BRANCH   1  11
ATOM     11  S   UNL     1       6.150  -6.779  -7.519  0.00  0.00    +0.075 S 
ATOM     12  O   UNL     1       6.226  -8.105  -8.024  0.00  0.00    -0.150 OA
ATOM     13  O   UNL     1       7.235  -5.866  -7.609  0.00  0.00    -0.150 OA
BRANCH  11  14
ATOM     14  C   UNL     1       5.745  -6.914  -5.809  0.00  0.00    +0.109 A 
ATOM     15  C   UNL     1       6.066  -5.888  -4.940  0.00  0.00    +0.029 A 
ATOM     16  C   UNL     1       5.748  -5.994  -3.599  0.00  0.00    +0.002 A 
ATOM     17  C   UNL     1       5.109  -7.126  -3.127  0.00  0.00    +0.000 A 
ATOM     18  C   UNL     1       4.788  -8.151  -3.997  0.00  0.00    +0.002 A 
ATOM     19  C   UNL     1       5.101  -8.043  -5.339  0.00  0.00    +0.029 A 
ENDBRANCH  11  14
ENDBRANCH   1  11
BRANCH   1  20
ATOM     20  C   UNL     1       4.750  -4.598  -8.294  0.00  0.00    +0.229 C 
BRANCH  20  22
ATOM     21  N   UNL     1       3.733  -2.826  -6.901  0.00  0.00    -0.206 N 
ATOM     22  C   UNL     1       3.896  -4.142  -7.139  0.00  0.00    +0.251 C 
ATOM     23  O   UNL     1       3.356  -4.960  -6.424  0.00  0.00    -0.272 OA
ATOM     24  H   UNL     1       4.165  -2.172  -7.472  0.00  0.00    +0.177 HD
BRANCH  21  26
ATOM     25  C   UNL     1       2.782  -1.134  -5.597  0.00  0.00    +0.138 C 
ATOM     26  N   UNL     1       2.939  -2.402  -5.827  0.00  0.00    -0.188 NA
BRANCH  25  30
ATOM     27  C   UNL     1       0.376   0.151  -2.343  0.00  0.00    +0.008 A 
ATOM     28  C   UNL     1       0.996   1.090  -3.162  0.00  0.00    +0.015 A 
ATOM     29  C   UNL     1       1.777   0.677  -4.218  0.00  0.00    +0.010 A 
ATOM     30  C   UNL     1       1.947  -0.688  -4.467  0.00  0.00    -0.005 A 
ATOM     31  C   UNL     1       1.324  -1.629  -3.643  0.00  0.00    +0.010 A 
ATOM     32  C   UNL     1       0.548  -1.209  -2.585  0.00  0.00    +0.015 A 
BRANCH  27  34
ATOM     33  C   UNL     1      -0.549   2.495  -1.081  0.00  0.00    +0.090 C 
ATOM     34  S   UNL     1      -0.623   0.684  -0.994  0.00  0.00    -0.129 S 
ENDBRANCH  27  34
ENDBRANCH  25  30
ENDBRANCH  21  26
ENDBRANCH  20  22
ENDBRANCH   1  20
TORSDOF 9
