REMARK  Name = ZINC14638739
REMARK  8 active torsions:
REMARK  status: ('A' for Active; 'I' for Inactive)
REMARK    1  A    between atoms: C_2  and  C_3
REMARK    2  A    between atoms: C_3  and  N_4
REMARK    3  A    between atoms: C_17  and  S_18
REMARK    4  A    between atoms: S_18  and  C_19
REMARK    5  A    between atoms: C_19  and  C_20
REMARK    6  A    between atoms: N_22  and  C_23
REMARK    7  A    between atoms: C_23  and  C_24
REMARK    8  A    between atoms: C_24  and  N_30
REMARK                            x       y       z     vdW  Elec       q    Type
REMARK                         _______ _______ _______ _____ _____    ______ ____
ROOT
ATOM      1  S   UNL     1       1.522  -4.283   2.340  0.00  0.00    -0.076 S 
ENDROOT
BRANCH   1  15
ATOM      2  N   UNL     1       3.865  -7.207   5.904  0.00  0.00    -0.273 N 
ATOM      3  C   UNL     1       3.574  -8.418   5.386  0.00  0.00    +0.263 A 
ATOM      4  O   UNL     1       3.954  -9.434   5.936  0.00  0.00    -0.267 OA
ATOM      5  C   UNL     1       2.796  -8.488   4.135  0.00  0.00    +0.064 A 
ATOM      6  C   UNL     1       2.475  -9.712   3.550  0.00  0.00    +0.015 A 
ATOM      7  C   UNL     1       1.745  -9.737   2.380  0.00  0.00    +0.001 A 
ATOM      8  C   UNL     1       1.332  -8.554   1.787  0.00  0.00    +0.002 A 
ATOM      9  C   UNL     1       1.644  -7.336   2.357  0.00  0.00    +0.027 A 
ATOM     10  C   UNL     1       2.377  -7.292   3.533  0.00  0.00    +0.064 A 
ATOM     11  N   UNL     1       2.704  -6.076   4.129  0.00  0.00    -0.256 N 
ATOM     12  C   UNL     1       3.431  -6.043   5.288  0.00  0.00    +0.240 A 
ATOM     13  N   UNL     1       3.588  -4.783   5.628  0.00  0.00    -0.109 NA
ATOM     14  N   UNL     1       2.954  -3.990   4.664  0.00  0.00    -0.120 NA
ATOM     15  C   UNL     1       2.429  -4.786   3.765  0.00  0.00    +0.198 A 
BRANCH   2  16
ATOM     16  C   UNL     1       4.635  -7.122   7.147  0.00  0.00    +0.155 C 
BRANCH  16  18
ATOM     17  C   UNL     1       3.848  -8.038   9.270  0.00  0.00    +0.005 C 
ATOM     18  C   UNL     1       3.693  -7.145   8.324  0.00  0.00    -0.013 C 
ENDBRANCH  16  18
ENDBRANCH   2  16
ENDBRANCH   1  15
BRANCH   1  19
ATOM     19  C   UNL     1       1.510  -2.472   2.444  0.00  0.00    +0.173 C 
BRANCH  19  20
ATOM     20  C   UNL     1       0.755  -1.906   1.269  0.00  0.00    +0.223 C 
ATOM     21  O   UNL     1       0.273  -2.651   0.443  0.00  0.00    -0.275 OA
ATOM     22  N   UNL     1       0.616  -0.572   1.136  0.00  0.00    -0.313 N 
ATOM     23  H   UNL     1       1.053   0.104   1.886  0.00  0.00    +0.149 HD
BRANCH  22  24
ATOM     24  C   UNL     1      -0.118  -0.022  -0.006  0.00  0.00    +0.126 C 
BRANCH  24  25
ATOM     25  C   UNL     1       0.025   1.501  -0.019  0.00  0.00    +0.038 C 
ATOM     26  C   UNL     1      -0.345   2.059   1.357  0.00  0.00    +0.024 C 
ATOM     27  C   UNL     1      -1.791   1.686   1.687  0.00  0.00    +0.002 C 
ATOM     28  C   UNL     1      -2.725   2.277   0.629  0.00  0.00    +0.000 C 
ATOM     29  C   UNL     1      -2.355   1.718  -0.747  0.00  0.00    +0.002 C 
ATOM     30  C   UNL     1      -0.909   2.092  -1.077  0.00  0.00    +0.024 C 
BRANCH  25  31
ATOM     31  N   UNL     1       1.414   1.859  -0.336  0.00  0.00    -0.291 NA
ATOM     32  C   UNL     1       1.747   1.501  -1.722  0.00  0.00    +0.113 C 
ATOM     33  C   UNL     1       3.180   1.945  -2.028  0.00  0.00    +0.175 C 
ATOM     34  O   UNL     1       4.071   1.345  -1.084  0.00  0.00    -0.377 OA
ATOM     35  C   UNL     1       3.776   1.673   0.276  0.00  0.00    +0.175 C 
ATOM     36  C   UNL     1       2.349   1.226   0.605  0.00  0.00    +0.113 C 
ENDBRANCH  25  31
ENDBRANCH  24  25
ENDBRANCH  22  24
ENDBRANCH  19  20
ENDBRANCH   1  19
TORSDOF 8
