REMARK  Name = ZINC21918978
REMARK  8 active torsions:
REMARK  status: ('A' for Active; 'I' for Inactive)
REMARK    1  A    between atoms: C_1  and  C_2
REMARK    2  A    between atoms: C_2  and  C_3
REMARK    3  A    between atoms: N_16  and  C_19
REMARK    4  A    between atoms: N_24  and  C_25
REMARK    5  A    between atoms: C_30  and  C_31
REMARK    6  A    between atoms: C_31  and  O_33
REMARK    7  A    between atoms: O_33  and  C_34
REMARK    8  A    between atoms: C_34  and  C_35
REMARK                            x       y       z     vdW  Elec       q    Type
REMARK                         _______ _______ _______ _____ _____    ______ ____
ROOT
ATOM      1  C   UNL     1      -1.551   4.439  -0.042  0.00  0.00    +0.125 C 
ATOM      2  C   UNL     1      -0.730   3.186   0.008  0.00  0.00    +0.045 A 
ATOM      3  C   UNL     1      -1.129   1.906   0.017  0.00  0.00    +0.025 A 
ATOM      4  C   UNL     1       0.031   1.101   0.000  0.00  0.00    +0.020 A 
ATOM      5  C   UNL     1       1.101   1.929  -0.017  0.00  0.00    +0.092 A 
ATOM      6  N   UNL     1       0.645   3.202   0.014  0.00  0.00    -0.312 N 
ATOM      7  C   UNL     1       1.314   4.418   0.088  0.00  0.00    +0.090 A 
ATOM      8  C   UNL     1       0.972   5.429   0.933  0.00  0.00    +0.004 A 
ATOM      9  C   UNL     1       1.736   6.608   0.850  0.00  0.00    -0.034 A 
ATOM     10  C   UNL     1       2.766   6.636  -0.038  0.00  0.00    -0.021 A 
ATOM     11  S   UNL     1       2.710   5.036  -0.801  0.00  0.00    -0.077 S 
ATOM     12  C   UNL     1       3.706   7.769  -0.289  0.00  0.00    -0.036 C 
ATOM     13  N   UNL     1       3.128   8.986   0.313  0.00  0.00    +0.381 N 
ATOM     14  C   UNL     1       2.701   8.727   1.695  0.00  0.00    -0.074 C 
ATOM     15  C   UNL     1       1.455   7.839   1.709  0.00  0.00    +0.018 C 
ATOM     16  C   UNL     1       4.079  10.104   0.257  0.00  0.00    -0.096 C 
ATOM     17  C   UNL     1      -0.174   5.252   1.903  0.00  0.00    +0.148 C 
ATOM     18  N   UNL     1      -1.486   5.193   1.233  0.00  0.00    -0.272 N 
ATOM     19  C   UNL     1      -2.574   5.794   1.754  0.00  0.00    +0.307 C 
ATOM     20  O   UNL     1      -3.641   5.727   1.177  0.00  0.00    -0.252 OA
ATOM     21  N   UNL     1      -2.477   6.471   2.916  0.00  0.00    -0.269 N 
ATOM     22  H   UNL     1      -1.537   6.454   3.486  0.00  0.00    +0.156 HD
ATOM     23  H   UNL     1       2.240   9.274  -0.269  0.00  0.00    -0.082 HD
ENDROOT
BRANCH  21  24
ATOM     24  C   UNL     1      -3.569   7.191   3.395  0.00  0.00    +0.049 A 
ATOM     25  C   UNL     1      -4.535   7.661   2.515  0.00  0.00    +0.024 A 
ATOM     26  C   UNL     1      -5.619   8.370   2.993  0.00  0.00    +0.002 A 
ATOM     27  C   UNL     1      -5.747   8.628   4.348  0.00  0.00    +0.001 A 
ATOM     28  C   UNL     1      -4.795   8.174   5.236  0.00  0.00    +0.017 A 
ATOM     29  C   UNL     1      -3.695   7.450   4.768  0.00  0.00    +0.080 A 
BRANCH  29  30
ATOM     30  C   UNL     1      -2.674   6.962   5.712  0.00  0.00    +0.341 C 
ATOM     31  O   UNL     1      -1.674   6.412   5.294  0.00  0.00    -0.245 OA
BRANCH  30  32
ATOM     32  O   UNL     1      -2.849   7.126   7.038  0.00  0.00    -0.461 OA
BRANCH  32  33
ATOM     33  C   UNL     1      -1.802   6.620   7.908  0.00  0.00    +0.229 C 
ATOM     34  C   UNL     1      -2.174   6.895   9.367  0.00  0.00    +0.048 C 
ENDBRANCH  32  33
ENDBRANCH  30  32
ENDBRANCH  29  30
ENDBRANCH  21  24
BRANCH   1  36
ATOM     35  C   UNL     1      -1.941   6.553  -1.316  0.00  0.00    +0.006 C 
ATOM     36  C   UNL     1      -1.034   5.330  -1.174  0.00  0.00    +0.025 C 
ENDBRANCH   1  36
TORSDOF 5
