REMARK  Name = ZINC22317781
REMARK  5 active torsions:
REMARK  status: ('A' for Active; 'I' for Inactive)
REMARK    1  A    between atoms: C_1  and  C_2
REMARK    2  A    between atoms: C_5  and  N_12
REMARK    3  A    between atoms: C_8  and  C_10
REMARK    4  A    between atoms: C_8  and  C_11
REMARK    5  A    between atoms: C_13  and  C_15
REMARK                            x       y       z     vdW  Elec       q    Type
REMARK                         _______ _______ _______ _____ _____    ______ ____
ROOT
ATOM      1  N   UNL     1      -4.219   3.832  -1.821  0.00  0.00    -0.309 N 
ATOM      2  C   UNL     1      -3.267   3.111  -1.197  0.00  0.00    +0.238 C 
ATOM      3  O   UNL     1      -3.229   1.902  -1.337  0.00  0.00    -0.271 OA
ATOM      4  H   UNL     1      -4.253   4.924  -1.695  0.00  0.00    +0.149 HD
ENDROOT
BRANCH   2   5
ATOM      5  C   UNL     1      -2.311   3.759  -0.379  0.00  0.00    +0.087 C 
ATOM      6  C   UNL     1      -1.438   3.022   0.363  0.00  0.00    +0.080 C 
ATOM      7  C   UNL     1      -1.651   1.567   0.588  0.00  0.00    +0.255 C 
ATOM      8  O   UNL     1      -2.777   1.111   0.615  0.00  0.00    -0.269 OA
ATOM      9  N   UNL     1      -0.597   0.761   0.767  0.00  0.00    -0.280 N 
ATOM     10  C   UNL     1       0.729   1.143   0.631  0.00  0.00    +0.048 A 
ATOM     11  C   UNL     1       1.675   0.152   0.366  0.00  0.00    +0.024 A 
ATOM     12  C   UNL     1       3.006   0.477   0.216  0.00  0.00    +0.002 A 
ATOM     13  C   UNL     1       3.422   1.793   0.327  0.00  0.00    +0.001 A 
ATOM     14  C   UNL     1       2.500   2.785   0.591  0.00  0.00    +0.017 A 
ATOM     15  C   UNL     1       1.156   2.466   0.746  0.00  0.00    +0.034 A 
ATOM     16  S   UNL     1      -0.002   3.752   1.094  0.00  0.00    -0.082 S 
ATOM     17  H   UNL     1      -0.751  -0.293   1.044  0.00  0.00    +0.155 HD
ENDBRANCH   2   5
BRANCH   1  21
ATOM     18  C   UNL     1      -5.092   2.091  -6.366  0.00  0.00    +0.007 C 
ATOM     19  C   UNL     1      -5.666   2.276  -4.960  0.00  0.00    -0.012 C 
ATOM     20  C   UNL     1      -4.633   2.976  -4.075  0.00  0.00    +0.025 C 
ATOM     21  C   UNL     1      -5.208   3.162  -2.669  0.00  0.00    +0.074 C 
ATOM     22  C   UNL     1      -6.476   4.014  -2.745  0.00  0.00    +0.028 C 
ATOM     23  C   UNL     1      -7.510   3.313  -3.630  0.00  0.00    -0.033 C 
ATOM     24  C   UNL     1      -6.935   3.128  -5.036  0.00  0.00    +0.009 C 
ATOM     25  C   UNL     1      -8.778   4.166  -3.705  0.00  0.00    +0.011 C 
ATOM     26  C   UNL     1      -7.849   1.946  -3.033  0.00  0.00    +0.011 C 
ENDBRANCH   1  21
TORSDOF 2
