REMARK  Name = ZINC16027175
REMARK  6 active torsions:
REMARK  status: ('A' for Active; 'I' for Inactive)
REMARK    1  A    between atoms: C_1  and  O_2
REMARK    2  A    between atoms: O_2  and  C_3
REMARK    3  A    between atoms: C_8  and  N_9
REMARK    4  A    between atoms: C_10  and  C_12
REMARK    5  A    between atoms: C_15  and  C_28
REMARK    6  A    between atoms: C_28  and  C_29
REMARK                            x       y       z     vdW  Elec       q    Type
REMARK                         _______ _______ _______ _____ _____    ______ ____
ROOT
ATOM      1  C   UNL     1      -2.414   1.040  -0.226  0.00  0.00    +0.076 C 
ATOM      2  C   UNL     1      -2.455   0.205  -1.534  0.00  0.00    -0.003 C 
ATOM      3  C   UNL     1      -2.782   1.290  -2.591  0.00  0.00    -0.061 C 
ATOM      4  C   UNL     1      -3.505   2.096  -0.461  0.00  0.00    +0.049 C 
ATOM      5  C   UNL     1      -3.110   3.417   0.144  0.00  0.00    -0.027 A 
ATOM      6  C   UNL     1      -2.057   4.277  -0.070  0.00  0.00    +0.019 A 
ATOM      7  C   UNL     1      -1.960   5.448   0.662  0.00  0.00    +0.018 A 
ATOM      8  C   UNL     1      -2.924   5.750   1.608  0.00  0.00    +0.017 A 
ATOM      9  C   UNL     1      -3.980   4.891   1.825  0.00  0.00    +0.024 A 
ATOM     10  C   UNL     1      -4.085   3.710   1.092  0.00  0.00    +0.036 A 
ATOM     11  N   UNL     1      -5.044   2.696   1.129  0.00  0.00    -0.286 N 
ATOM     12  C   UNL     1      -4.778   1.713   0.249  0.00  0.00    +0.211 C 
ATOM     13  O   UNL     1      -5.436   0.712   0.062  0.00  0.00    -0.277 OA
ATOM     14 BR   UNL     1      -0.514   6.632   0.369  0.00  0.00    -0.050 Br
ATOM     15  H   UNL     1      -5.813   2.700   1.720  0.00  0.00    +0.155 HD
ATOM     16  N   UNL     1      -3.712   2.208  -1.905  0.00  0.00    +0.394 N 
ATOM     17  H   UNL     1      -4.680   1.955  -2.135  0.00  0.00    -0.083 HD
ATOM     18  H   UNL     1      -3.529   3.172  -2.206  0.00  0.00    -0.083 HD
ENDROOT
BRANCH   1  20
ATOM     19  N   UNL     1      -0.603   1.962   1.185  0.00  0.00    -0.282 N 
ATOM     20  C   UNL     1      -1.067   1.693  -0.052  0.00  0.00    +0.220 C 
ATOM     21  O   UNL     1      -0.400   1.977  -1.025  0.00  0.00    -0.275 OA
ATOM     22  H   UNL     1      -1.107   1.679   1.964  0.00  0.00    +0.155 HD
BRANCH  19  28
ATOM     23  C   UNL     1       0.777   3.533   2.404  0.00  0.00    +0.141 A 
ATOM     24  C   UNL     1       1.980   4.202   2.561  0.00  0.00    +0.049 A 
ATOM     25  C   UNL     1       3.008   3.996   1.661  0.00  0.00    +0.024 A 
ATOM     26  C   UNL     1       2.842   3.118   0.605  0.00  0.00    +0.043 A 
ATOM     27  C   UNL     1       1.646   2.442   0.445  0.00  0.00    +0.047 A 
ATOM     28  C   UNL     1       0.610   2.645   1.345  0.00  0.00    +0.077 A 
ATOM     29 CL   UNL     1       4.138   2.863  -0.522  0.00  0.00    -0.083 Cl
BRANCH  23  31
ATOM     30  C   UNL     1       0.004   4.665   4.348  0.00  0.00    +0.277 C 
ATOM     31  O   UNL     1      -0.238   3.740   3.286  0.00  0.00    -0.493 OA
ENDBRANCH  23  31
ENDBRANCH  19  28
ENDBRANCH   1  20
BRANCH   3  32
ATOM     32  C   UNL     1      -3.454   0.659  -3.812  0.00  0.00    +0.080 C 
BRANCH  32  33
ATOM     33  C   UNL     1      -3.721   1.724  -4.844  0.00  0.00    +0.209 C 
ATOM     34  O   UNL     1      -3.406   2.874  -4.625  0.00  0.00    -0.276 OA
ATOM     35  N   UNL     1      -4.311   1.398  -6.012  0.00  0.00    -0.329 N 
ATOM     36  H   UNL     1      -4.563   0.477  -6.187  0.00  0.00    +0.145 HD
ATOM     37  H   UNL     1      -4.484   2.083  -6.676  0.00  0.00    +0.145 HD
ENDBRANCH  32  33
ENDBRANCH   3  32
TORSDOF 5
