REMARK  Name = ZINC22825028
REMARK  11 active torsions:
REMARK  status: ('A' for Active; 'I' for Inactive)
REMARK    1  A    between atoms: C_1  and  C_2
REMARK    2  A    between atoms: C_2  and  C_33
REMARK    3  A    between atoms: C_4  and  N_10
REMARK    4  A    between atoms: C_6  and  C_8
REMARK    5  A    between atoms: C_6  and  C_9
REMARK    6  A    between atoms: N_10  and  C_11
REMARK    7  A    between atoms: N_10  and  C_19
REMARK    8  A    between atoms: C_11  and  C_12
REMARK    9  A    between atoms: C_19  and  N_21
REMARK   10  A    between atoms: N_21  and  C_22
REMARK   11  A    between atoms: C_24  and  C_29
REMARK                            x       y       z     vdW  Elec       q    Type
REMARK                         _______ _______ _______ _____ _____    ______ ____
ROOT
ATOM      1  N   UNL     1       1.356   3.280  -3.468  0.00  0.00    -0.305 N 
ENDROOT
BRANCH   1   5
ATOM      2  C   UNL     1       3.114   2.982   1.108  0.00  0.00    -0.010 C 
ATOM      3  C   UNL     1       2.001   2.448   0.179  0.00  0.00    -0.072 C 
ATOM      4  C   UNL     1       2.276   2.984  -1.224  0.00  0.00    +0.009 C 
ATOM      5  C   UNL     1       1.073   2.735  -2.134  0.00  0.00    +0.073 C 
ATOM      6  C   UNL     1      -0.139   3.454  -1.544  0.00  0.00    +0.009 C 
ATOM      7  C   UNL     1      -0.444   2.922  -0.145  0.00  0.00    -0.072 C 
ATOM      8  N   UNL     1       0.724   2.879   0.709  0.00  0.00    +0.386 N 
ATOM      9  C   UNL     1      -1.102   1.541  -0.255  0.00  0.00    -0.010 C 
ATOM     10  C   UNL     1      -1.478   3.872   0.499  0.00  0.00    -0.010 C 
ATOM     11  C   UNL     1       2.111   0.918   0.174  0.00  0.00    -0.010 C 
ATOM     12  H   UNL     1       0.424   2.212   1.531  0.00  0.00    -0.084 HD
ATOM     13  H   UNL     1       0.813   3.908   1.086  0.00  0.00    -0.084 HD
ENDBRANCH   1   5
BRANCH   1  14
ATOM     14  C   UNL     1       1.437   2.453  -4.530  0.00  0.00    +0.138 C 
ATOM     15  S   UNL     1       1.868   3.073  -6.066  0.00  0.00    -0.018 S 
BRANCH  14  16
ATOM     16  N   UNL     1       1.178   1.139  -4.382  0.00  0.00    -0.296 N 
ATOM     17  H   UNL     1       0.197   0.735  -4.673  0.00  0.00    +0.154 HD
BRANCH  16  18
ATOM     18  C   UNL     1       2.157   0.287  -3.857  0.00  0.00    +0.052 A 
ATOM     19  C   UNL     1       3.381   0.802  -3.451  0.00  0.00    +0.037 A 
ATOM     20  C   UNL     1       4.345  -0.041  -2.934  0.00  0.00    +0.057 A 
ATOM     21  C   UNL     1       4.093  -1.396  -2.820  0.00  0.00    +0.014 A 
ATOM     22  C   UNL     1       2.875  -1.912  -3.223  0.00  0.00    +0.022 A 
ATOM     23  C   UNL     1       1.904  -1.074  -3.737  0.00  0.00    +0.062 A 
ATOM     24 CL   UNL     1       0.373  -1.721  -4.238  0.00  0.00    -0.082 Cl
BRANCH  20  25
ATOM     25  C   UNL     1       5.674   0.517  -2.492  0.00  0.00    +0.417 C 
ATOM     26  F   UNL     1       5.602   0.881  -1.144  0.00  0.00    -0.166 F 
ATOM     27  F   UNL     1       6.667  -0.455  -2.661  0.00  0.00    -0.166 F 
ATOM     28  F   UNL     1       5.987   1.641  -3.263  0.00  0.00    -0.166 F 
ENDBRANCH  20  25
ENDBRANCH  16  18
ENDBRANCH  14  16
ENDBRANCH   1  14
BRANCH   1  29
ATOM     29  C   UNL     1       1.551   4.721  -3.645  0.00  0.00    +0.142 C 
BRANCH  29  30
ATOM     30  C   UNL     1       3.011   5.054  -3.480  0.00  0.00    -0.030 A 
ATOM     31  C   UNL     1       3.478   5.531  -2.269  0.00  0.00    +0.008 A 
ATOM     32  C   UNL     1       4.818   5.832  -2.115  0.00  0.00    +0.038 A 
ATOM     33  C   UNL     1       5.691   5.667  -3.177  0.00  0.00    +0.123 A 
ATOM     34  C   UNL     1       5.221   5.195  -4.391  0.00  0.00    +0.038 A 
ATOM     35  C   UNL     1       3.882   4.889  -4.541  0.00  0.00    +0.008 A 
ATOM     36  F   UNL     1       7.000   5.966  -3.029  0.00  0.00    -0.205 F 
ENDBRANCH  29  30
ENDBRANCH   1  29
TORSDOF 7
