REMARK  Name = ZINC10213162
REMARK  7 active torsions:
REMARK  status: ('A' for Active; 'I' for Inactive)
REMARK    1  A    between atoms: C_3  and  C_6
REMARK    2  A    between atoms: C_16  and  C_18
REMARK    3  A    between atoms: C_23  and  C_25
REMARK    4  A    between atoms: C_25  and  S_26
REMARK    5  A    between atoms: S_26  and  C_27
REMARK    6  A    between atoms: C_30  and  C_33
REMARK    7  A    between atoms: N_31  and  N_32
REMARK                            x       y       z     vdW  Elec       q    Type
REMARK                         _______ _______ _______ _____ _____    ______ ____
ROOT
ATOM      1  C   UNL     1      -5.319   0.350   0.082  0.00  0.00    +0.051 C 
ATOM      2  C   UNL     1      -4.772  -0.883  -0.026  0.00  0.00    -0.021 C 
ATOM      3  C   UNL     1      -5.657  -2.091   0.027  0.00  0.00    +0.037 C 
ATOM      4  C   UNL     1      -4.944  -3.397  -0.264  0.00  0.00    +0.005 C 
ATOM      5  C   UNL     1      -3.496  -3.416   0.220  0.00  0.00    +0.012 C 
ATOM      6  C   UNL     1      -2.721  -2.343  -0.547  0.00  0.00    +0.069 C 
ATOM      7  C   UNL     1      -3.374  -1.014  -0.187  0.00  0.00    +0.068 C 
ATOM      8  N   UNL     1      -2.444  -0.146   0.031  0.00  0.00    -0.181 NA
ATOM      9  N   UNL     1      -1.156  -0.694   0.009  0.00  0.00    -0.181 N 
ATOM     10  C   UNL     1      -1.295  -2.168   0.003  0.00  0.00    +0.176 C 
ATOM     11  C   UNL     1       0.002  -0.004   0.002  0.00  0.00    +0.246 C 
ATOM     12  O   UNL     1       1.061  -0.596  -0.011  0.00  0.00    -0.273 OA
ENDROOT
BRANCH   1  15
ATOM     13  C   UNL     1      -8.803   1.349   0.509  0.00  0.00    +0.042 A 
ATOM     14  C   UNL     1      -7.444   1.678   0.370  0.00  0.00    +0.049 A 
ATOM     15  C   UNL     1      -6.764   0.497   0.249  0.00  0.00    +0.128 A 
ATOM     16  O   UNL     1      -7.662  -0.508   0.305  0.00  0.00    -0.464 OA
ATOM     17  C   UNL     1      -8.893   0.003   0.468  0.00  0.00    +0.195 A 
ENDBRANCH   1  15
BRANCH  10  18
ATOM     18  C   UNL     1      -1.181  -2.727   1.397  0.00  0.00    +0.128 A 
ATOM     19  C   UNL     1      -0.560  -3.871   1.738  0.00  0.00    +0.046 A 
ATOM     20  C   UNL     1      -0.695  -4.009   3.139  0.00  0.00    +0.041 A 
ATOM     21  C   UNL     1      -1.390  -2.941   3.570  0.00  0.00    +0.195 A 
ATOM     22  O   UNL     1      -1.677  -2.166   2.512  0.00  0.00    -0.466 OA
ENDBRANCH  10  18
BRANCH  11  23
ATOM     23  C   UNL     1      -0.018   1.503   0.010  0.00  0.00    +0.175 C 
BRANCH  23  24
ATOM     24  S   UNL     1       1.680   2.129  -0.003  0.00  0.00    -0.075 S 
BRANCH  24  25
ATOM     25  C   UNL     1       1.366   3.863   0.010  0.00  0.00    +0.209 A 
ATOM     26  N   UNL     1       0.189   4.443   0.018  0.00  0.00    -0.121 NA
ATOM     27  N   UNL     1       0.332   5.721   0.028  0.00  0.00    -0.132 NA
ATOM     28  C   UNL     1       1.597   6.029   0.018  0.00  0.00    +0.154 A 
ATOM     29  N   UNL     1       2.302   4.857   0.006  0.00  0.00    -0.228 N 
BRANCH  29  30
ATOM     30  N   UNL     1       3.660   4.712  -0.007  0.00  0.00    -0.295 N 
ATOM     31  H   UNL     1       4.011   4.678  -0.952  0.00  0.00    +0.163 HD
ATOM     32  H   UNL     1       4.108   5.447   0.519  0.00  0.00    +0.163 HD
ENDBRANCH  29  30
BRANCH  28  33
ATOM     33  C   UNL     1       2.177   7.420   0.020  0.00  0.00    +0.059 C 
ATOM     34  C   UNL     1       1.213   8.588   0.238  0.00  0.00    +0.012 C 
ATOM     35  C   UNL     1       1.812   8.339  -1.148  0.00  0.00    +0.012 C 
ENDBRANCH  28  33
ENDBRANCH  24  25
ENDBRANCH  23  24
ENDBRANCH  11  23
TORSDOF 7
