REMARK  Name = ZINC43209681
REMARK  9 active torsions:
REMARK  status: ('A' for Active; 'I' for Inactive)
REMARK    1  A    between atoms: C_1  and  C_2
REMARK    2  A    between atoms: C_2  and  C_3
REMARK    3  A    between atoms: C_2  and  C_4
REMARK    4  A    between atoms: C_4  and  C_6
REMARK    5  A    between atoms: C_4  and  N_23
REMARK    6  A    between atoms: C_8  and  C_11
REMARK    7  A    between atoms: N_13  and  C_14
REMARK    8  A    between atoms: C_14  and  C_15
REMARK    9  A    between atoms: C_15  and  C_16
REMARK                            x       y       z     vdW  Elec       q    Type
REMARK                         _______ _______ _______ _____ _____    ______ ____
ROOT
ATOM      1  C   UNL     1       2.132   0.024  -1.268  0.00  0.00    +0.182 A 
ATOM      2  N   UNL     1       2.570   0.995  -2.012  0.00  0.00    -0.210 NA
ATOM      3  C   UNL     1       3.891   1.181  -1.745  0.00  0.00    +0.163 A 
ATOM      4  C   UNL     1       4.239   0.270  -0.795  0.00  0.00    +0.230 A 
ATOM      5  O   UNL     1       3.135  -0.436  -0.506  0.00  0.00    -0.449 OA
ENDROOT
BRANCH   3   6
ATOM      6  C   UNL     1       4.779   2.180  -2.367  0.00  0.00    +0.266 C 
ATOM      7  O   UNL     1       5.948   2.244  -2.038  0.00  0.00    -0.268 OA
ATOM      8  N   UNL     1       4.294   3.023  -3.301  0.00  0.00    -0.310 N 
ATOM      9  H   UNL     1       3.362   2.972  -3.563  0.00  0.00    +0.149 HD
BRANCH   8  10
ATOM     10  C   UNL     1       5.176   4.016  -3.919  0.00  0.00    +0.109 C 
BRANCH  10  11
ATOM     11  C   UNL     1       4.383   4.839  -4.937  0.00  0.00    +0.057 C 
BRANCH  11  12
ATOM     12  C   UNL     1       5.290   5.860  -5.573  0.00  0.00    -0.011 A 
ATOM     13  C   UNL     1       5.348   7.144  -5.066  0.00  0.00    +0.006 A 
ATOM     14  C   UNL     1       6.180   8.082  -5.649  0.00  0.00    +0.000 A 
ATOM     15  C   UNL     1       6.955   7.736  -6.740  0.00  0.00    +0.003 A 
ATOM     16  C   UNL     1       6.899   6.452  -7.249  0.00  0.00    +0.038 A 
ATOM     17  C   UNL     1       6.070   5.511  -6.662  0.00  0.00    +0.127 A 
ATOM     18  F   UNL     1       6.018   4.254  -7.155  0.00  0.00    -0.205 F 
ENDBRANCH  11  12
ENDBRANCH  10  11
ENDBRANCH   8  10
ENDBRANCH   3   6
BRANCH   1  19
ATOM     19  C   UNL     1       0.718  -0.497  -1.257  0.00  0.00    +0.015 C 
BRANCH  19  20
ATOM     20  N   UNL     1       0.738  -1.966  -1.265  0.00  0.00    +0.386 N 
ATOM     21  H   UNL     1      -0.208  -2.316  -1.258  0.00  0.00    -0.089 HD
ATOM     22  H   UNL     1       1.210  -2.292  -2.095  0.00  0.00    -0.089 HD
ATOM     23  H   UNL     1       1.226  -2.301  -0.447  0.00  0.00    -0.089 HD
ENDBRANCH  19  20
BRANCH  19  25
ATOM     24  C   UNL     1      -0.019   1.526   0.010  0.00  0.00    +0.006 C 
ATOM     25  C   UNL     1       0.002  -0.004   0.002  0.00  0.00    -0.023 C 
ATOM     26  C   UNL     1      -1.433  -0.534   0.013  0.00  0.00    +0.006 C 
ENDBRANCH  19  25
ENDBRANCH   1  19
TORSDOF 7
