REMARK  Name = ZINC12275976
REMARK  3 active torsions:
REMARK  status: ('A' for Active; 'I' for Inactive)
REMARK    1  A    between atoms: C_4  and  C_7
REMARK    2  A    between atoms: C_20  and  C_22
REMARK    3  A    between atoms: C_25  and  O_28
REMARK                            x       y       z     vdW  Elec       q    Type
REMARK                         _______ _______ _______ _____ _____    ______ ____
ROOT
ATOM      1  C   UNL     1       5.025   4.893   3.271  0.00  0.00    +0.068 C 
ATOM      2  N   UNL     1       4.441   4.367   2.244  0.00  0.00    -0.185 NA
ATOM      3  N   UNL     1       5.297   4.125   1.186  0.00  0.00    -0.205 N 
ATOM      4  C   UNL     1       6.599   4.771   1.467  0.00  0.00    +0.136 C 
ATOM      5  C   UNL     1       6.491   5.115   2.958  0.00  0.00    +0.086 C 
ATOM      6  C   UNL     1       7.656   3.731   1.203  0.00  0.00    +0.017 A 
ATOM      7  C   UNL     1       8.933   3.925   1.696  0.00  0.00    +0.009 A 
ATOM      8  C   UNL     1       9.925   2.994   1.452  0.00  0.00    +0.001 A 
ATOM      9  C   UNL     1       9.636   1.864   0.709  0.00  0.00    +0.004 A 
ATOM     10  C   UNL     1       8.363   1.664   0.221  0.00  0.00    +0.046 A 
ATOM     11  C   UNL     1       7.353   2.594   0.469  0.00  0.00    +0.129 A 
ATOM     12  O   UNL     1       6.113   2.309  -0.008  0.00  0.00    -0.465 OA
ATOM     13  C   UNL     1       5.103   3.323  -0.029  0.00  0.00    +0.310 C 
ENDROOT
BRANCH   1  17
ATOM     14  C   UNL     1       3.130   5.847   6.947  0.00  0.00    +0.000 A 
ATOM     15  C   UNL     1       2.394   5.286   5.918  0.00  0.00    +0.001 A 
ATOM     16  C   UNL     1       3.004   4.973   4.721  0.00  0.00    +0.010 A 
ATOM     17  C   UNL     1       4.367   5.224   4.548  0.00  0.00    -0.002 A 
ATOM     18  C   UNL     1       5.104   5.786   5.593  0.00  0.00    +0.010 A 
ATOM     19  C   UNL     1       4.481   6.099   6.783  0.00  0.00    +0.001 A 
ENDBRANCH   1  17
BRANCH  13  20
ATOM     20  C   UNL     1       3.735   2.692  -0.019  0.00  0.00    +0.013 A 
ATOM     21  C   UNL     1       3.096   2.409  -1.213  0.00  0.00    +0.012 A 
ATOM     22  C   UNL     1       1.842   1.830  -1.207  0.00  0.00    +0.046 A 
ATOM     23  C   UNL     1       1.223   1.532  -0.001  0.00  0.00    +0.117 A 
ATOM     24  C   UNL     1       1.863   1.822   1.195  0.00  0.00    +0.046 A 
ATOM     25  C   UNL     1       3.119   2.397   1.183  0.00  0.00    +0.012 A 
BRANCH  23  26
ATOM     26  O   UNL     1      -0.011   0.963   0.007  0.00  0.00    -0.507 OA
ATOM     27  H   UNL     1       0.002  -0.004   0.002  0.00  0.00    +0.292 HD
ENDBRANCH  23  26
ENDBRANCH  13  20
TORSDOF 3
