REMARK  Name = ZINC31157364
REMARK  14 active torsions:
REMARK  status: ('A' for Active; 'I' for Inactive)
REMARK    1  A    between atoms: C_1  and  C_2
REMARK    2  A    between atoms: C_4  and  O_26
REMARK    3  A    between atoms: C_8  and  C_25
REMARK    4  A    between atoms: C_10  and  O_17
REMARK    5  A    between atoms: C_12  and  C_13
REMARK    6  A    between atoms: C_12  and  O_16
REMARK    7  A    between atoms: C_13  and  C_14
REMARK    8  A    between atoms: C_13  and  C_15
REMARK    9  A    between atoms: O_17  and  C_18
REMARK   10  A    between atoms: C_18  and  C_20
REMARK   11  A    between atoms: C_21  and  O_24
REMARK   12  A    between atoms: O_26  and  C_27
REMARK   13  A    between atoms: C_27  and  C_29
REMARK   14  A    between atoms: C_32  and  O_35
REMARK                            x       y       z     vdW  Elec       q    Type
REMARK                         _______ _______ _______ _____ _____    ______ ____
ROOT
ATOM      1  C   UNL     1       3.669   2.116   8.224  0.00  0.00    +0.039 C 
ATOM      2  C   UNL     1       2.626   2.191   7.125  0.00  0.00    -0.071 C 
ATOM      3  C   UNL     1       2.628   1.193   6.297  0.00  0.00    +0.016 C 
ATOM      4  C   UNL     1       1.685   1.134   5.119  0.00  0.00    +0.206 C 
ATOM      5  C   UNL     1       0.283   1.500   5.592  0.00  0.00    +0.078 C 
ATOM      6  C   UNL     1       0.009   2.992   5.373  0.00  0.00    +0.007 C 
ATOM      7  C   UNL     1      -0.298   3.086   3.872  0.00  0.00    +0.057 C 
ATOM      8  C   UNL     1      -0.923   1.724   3.495  0.00  0.00    +0.209 C 
ATOM      9  C   UNL     1      -0.791   0.799   4.727  0.00  0.00    +0.112 C 
ATOM     10  C   UNL     1       1.168   3.857   5.835  0.00  0.00    +0.125 C 
ATOM     11  C   UNL     1       1.715   3.370   7.170  0.00  0.00    +0.062 C 
ATOM     12  C   UNL     1      -1.256   3.415   6.155  0.00  0.00    +0.014 C 
ENDROOT
BRANCH   9  13
ATOM     13  C   UNL     1      -0.434  -0.616   4.299  0.00  0.00    +0.019 C 
ATOM     14  C   UNL     1      -0.229  -1.487   5.540  0.00  0.00    +0.010 C 
ATOM     15  C   UNL     1      -1.568  -1.194   3.451  0.00  0.00    +0.010 C 
ENDBRANCH   9  13
BRANCH   9  16
ATOM     16  O   UNL     1      -2.042   0.764   5.429  0.00  0.00    -0.384 OA
ATOM     17  H   UNL     1      -2.923   0.300   4.962  0.00  0.00    +0.210 HD
ENDBRANCH   9  16
BRANCH  10  18
ATOM     18  O   UNL     1       2.192   4.051   4.875  0.00  0.00    -0.391 OA
ATOM     19  H   UNL     1       3.070   4.664   5.124  0.00  0.00    +0.210 HD
ENDBRANCH  10  18
BRANCH   8  20
ATOM     20  O   UNL     1      -0.213   1.149   2.370  0.00  0.00    -0.459 OA
BRANCH  20  21
ATOM     21  C   UNL     1      -0.687   1.424   1.145  0.00  0.00    +0.304 C 
ATOM     22  O   UNL     1      -1.665   2.123   1.018  0.00  0.00    -0.251 OA
ATOM     23  C   UNL     1      -0.000   0.862  -0.073  0.00  0.00    +0.136 C 
ENDBRANCH  20  21
ENDBRANCH   8  20
BRANCH   4  24
ATOM     24  O   UNL     1       2.165   1.898   4.007  0.00  0.00    -0.453 OA
BRANCH  24  25
ATOM     25  C   UNL     1       3.029   1.287   3.173  0.00  0.00    +0.340 C 
ATOM     26  O   UNL     1       3.367   0.138   3.382  0.00  0.00    -0.245 OA
BRANCH  25  27
ATOM     27  C   UNL     1       3.566   2.012   2.007  0.00  0.00    +0.059 A 
ATOM     28  C   UNL     1       3.175   3.332   1.761  0.00  0.00    +0.018 A 
ATOM     29  C   UNL     1       3.683   4.007   0.674  0.00  0.00    +0.046 A 
ATOM     30  C   UNL     1       4.575   3.375  -0.185  0.00  0.00    +0.117 A 
ATOM     31  C   UNL     1       4.962   2.061   0.052  0.00  0.00    +0.046 A 
ATOM     32  C   UNL     1       4.463   1.380   1.140  0.00  0.00    +0.018 A 
BRANCH  30  33
ATOM     33  O   UNL     1       5.069   4.042  -1.258  0.00  0.00    -0.507 OA
ATOM     34  H   UNL     1       5.774   3.544  -1.939  0.00  0.00    +0.292 HD
ENDBRANCH  30  33
ENDBRANCH  25  27
ENDBRANCH  24  25
ENDBRANCH   4  24
TORSDOF 9
