REMARK  Name = ZINC41001042
REMARK  9 active torsions:
REMARK  status: ('A' for Active; 'I' for Inactive)
REMARK    1  A    between atoms: C_1  and  C_2
REMARK    2  A    between atoms: C_3  and  C_33
REMARK    3  A    between atoms: C_5  and  N_19
REMARK    4  A    between atoms: C_6  and  C_7
REMARK    5  A    between atoms: C_9  and  C_12
REMARK    6  A    between atoms: C_20  and  C_22
REMARK    7  A    between atoms: C_22  and  O_23
REMARK    8  A    between atoms: O_23  and  C_24
REMARK    9  A    between atoms: C_29  and  N_30
REMARK                            x       y       z     vdW  Elec       q    Type
REMARK                         _______ _______ _______ _____ _____    ______ ____
ROOT
ATOM      1  C   UNL     1      -0.018   1.503   0.010  0.00  0.00    +0.045 C 
ATOM      2  C   UNL     1       0.002  -0.004   0.002  0.00  0.00    -0.026 A 
ATOM      3  C   UNL     1       0.006  -0.686  -1.158  0.00  0.00    -0.008 A 
ATOM      4  S   UNL     1       0.032  -2.388  -0.630  0.00  0.00    -0.078 S 
ATOM      5  C   UNL     1       0.037  -2.134   1.135  0.00  0.00    +0.085 A 
ATOM      6  C   UNL     1       0.024  -0.748   1.236  0.00  0.00    +0.071 A 
ATOM      7  C   UNL     1      -0.009  -0.143  -2.564  0.00  0.00    +0.052 C 
ENDROOT
BRANCH   6   8
ATOM      8  C   UNL     1       0.026  -0.072   2.541  0.00  0.00    +0.261 A 
ATOM      9  N   UNL     1       0.051  -0.663   3.717  0.00  0.00    -0.187 NA
ATOM     10  C   UNL     1       0.045   0.260   4.692  0.00  0.00    +0.202 A 
ATOM     11  N   UNL     1       0.017   1.452   4.147  0.00  0.00    -0.056 NA
ATOM     12  O   UNL     1       0.010   1.259   2.741  0.00  0.00    -0.332 OA
BRANCH  10  13
ATOM     13  C   UNL     1       0.067  -0.024   6.148  0.00  0.00    +0.023 A 
ATOM     14  C   UNL     1       0.102  -1.340   6.603  0.00  0.00    +0.014 A 
ATOM     15  C   UNL     1       0.123  -1.599   7.958  0.00  0.00    +0.039 A 
ATOM     16  C   UNL     1       0.108  -0.553   8.866  0.00  0.00    +0.123 A 
ATOM     17  C   UNL     1       0.073   0.758   8.418  0.00  0.00    +0.039 A 
ATOM     18  C   UNL     1       0.059   1.026   7.064  0.00  0.00    +0.014 A 
ATOM     19  F   UNL     1       0.128  -0.811  10.192  0.00  0.00    -0.205 F 
ENDBRANCH  10  13
ENDBRANCH   6   8
BRANCH   5  20
ATOM     20  N   UNL     1       0.054  -3.081   2.151  0.00  0.00    -0.277 N 
ATOM     21  C   UNL     1       0.071  -4.394   1.849  0.00  0.00    +0.255 C 
ATOM     22  O   UNL     1       0.071  -4.749   0.689  0.00  0.00    -0.272 OA
ATOM     23  H   UNL     1       0.055  -2.797   3.079  0.00  0.00    +0.155 HD
BRANCH  21  24
ATOM     24  C   UNL     1       0.090  -5.421   2.951  0.00  0.00    +0.325 C 
BRANCH  24  25
ATOM     25  O   UNL     1       0.105  -6.732   2.381  0.00  0.00    -0.480 OA
BRANCH  25  26
ATOM     26  C   UNL     1       0.123  -7.780   3.246  0.00  0.00    +0.151 A 
ATOM     27  C   UNL     1       0.120  -7.553   4.614  0.00  0.00    +0.048 A 
ATOM     28  C   UNL     1       0.139  -8.620   5.491  0.00  0.00    +0.004 A 
ATOM     29  C   UNL     1       0.159  -9.915   5.005  0.00  0.00    +0.002 A 
ATOM     30  C   UNL     1       0.163 -10.144   3.642  0.00  0.00    +0.036 A 
ATOM     31  C   UNL     1       0.139  -9.080   2.761  0.00  0.00    +0.168 A 
BRANCH  31  32
ATOM     32  N   UNL     1       0.136  -9.326   1.302  0.00  0.00    +0.060 N 
ATOM     33  O   UNL     1       0.150 -10.459   0.880  0.00  0.00    -0.126 OA
ATOM     34  O   UNL     1       0.121  -8.395   0.531  0.00  0.00    -0.126 OA
ENDBRANCH  31  32
ENDBRANCH  25  26
ENDBRANCH  24  25
ENDBRANCH  21  24
ENDBRANCH   5  20
TORSDOF 7
