REMARK  Name = ZINC39387620
REMARK  10 active torsions:
REMARK  status: ('A' for Active; 'I' for Inactive)
REMARK    1  A    between atoms: C_1  and  C_2
REMARK    2  A    between atoms: C_2  and  O_3
REMARK    3  A    between atoms: O_3  and  C_4
REMARK    4  A    between atoms: C_4  and  C_6
REMARK    5  A    between atoms: C_8  and  N_22
REMARK    6  A    between atoms: N_13  and  C_15
REMARK    7  A    between atoms: C_18  and  C_21
REMARK    8  A    between atoms: N_22  and  C_23
REMARK    9  A    between atoms: C_23  and  C_24
REMARK   10  A    between atoms: C_24  and  C_25
REMARK                            x       y       z     vdW  Elec       q    Type
REMARK                         _______ _______ _______ _____ _____    ______ ____
ROOT
ATOM      1  C   UNL     1       1.534  -2.528  -2.279  0.00  0.00    +0.168 C 
ATOM      2  C   UNL     1       3.049  -2.311  -2.390  0.00  0.00    -0.033 C 
ATOM      3  C   UNL     1       3.454  -2.541  -3.851  0.00  0.00    +0.084 C 
ATOM      4  C   UNL     1       2.796  -3.798  -4.352  0.00  0.00    +0.232 C 
ATOM      5  O   UNL     1       3.216  -4.311  -5.367  0.00  0.00    -0.274 OA
ATOM      6  N   UNL     1       1.768  -4.372  -3.723  0.00  0.00    -0.204 N 
ATOM      7  N   UNL     1       1.233  -3.936  -2.555  0.00  0.00    -0.221 NA
ATOM      8  H   UNL     1       1.518  -4.524  -1.787  0.00  0.00    +0.146 HD
ENDROOT
BRANCH   6   9
ATOM      9  C   UNL     1       1.198  -5.505  -4.312  0.00  0.00    +0.053 A 
ATOM     10  C   UNL     1       0.848  -5.489  -5.656  0.00  0.00    +0.025 A 
ATOM     11  C   UNL     1       0.285  -6.609  -6.236  0.00  0.00    +0.005 A 
ATOM     12  C   UNL     1       0.070  -7.747  -5.479  0.00  0.00    -0.050 A 
ATOM     13  C   UNL     1       0.416  -7.766  -4.141  0.00  0.00    +0.005 A 
ATOM     14  C   UNL     1       0.985  -6.651  -3.557  0.00  0.00    +0.025 A 
ATOM     15  C   UNL     1      -0.544  -8.967  -6.114  0.00  0.00    +0.044 C 
ENDBRANCH   6   9
BRANCH   2  16
ATOM     16  N   UNL     1       3.752  -3.265  -1.522  0.00  0.00    +0.383 N 
ATOM     17  H   UNL     1       3.404  -3.181  -0.579  0.00  0.00    -0.085 HD
ATOM     18  H   UNL     1       3.593  -4.204  -1.857  0.00  0.00    -0.085 HD
BRANCH  16  19
ATOM     19  C   UNL     1       5.192  -2.975  -1.541  0.00  0.00    -0.077 C 
BRANCH  19  20
ATOM     20  C   UNL     1       5.924  -3.969  -0.637  0.00  0.00    +0.018 C 
BRANCH  20  21
ATOM     21  C   UNL     1       7.401  -3.672  -0.656  0.00  0.00    -0.024 A 
ATOM     22  C   UNL     1       8.104  -2.694   0.177  0.00  0.00    +0.003 A 
ATOM     23  C   UNL     1       7.702  -1.797   1.169  0.00  0.00    +0.010 A 
ATOM     24  C   UNL     1       8.629  -0.997   1.776  0.00  0.00    +0.001 A 
ATOM     25  C   UNL     1       9.967  -1.068   1.414  0.00  0.00    +0.002 A 
ATOM     26  C   UNL     1      10.385  -1.946   0.438  0.00  0.00    +0.026 A 
ATOM     27  C   UNL     1       9.459  -2.770  -0.192  0.00  0.00    +0.047 A 
ATOM     28  N   UNL     1       9.558  -3.727  -1.178  0.00  0.00    -0.360 N 
ATOM     29  C   UNL     1       8.323  -4.257  -1.437  0.00  0.00    +0.087 A 
ATOM     30  H   UNL     1      10.381  -3.989  -1.619  0.00  0.00    +0.165 HD
ENDBRANCH  20  21
ENDBRANCH  19  20
ENDBRANCH  16  19
ENDBRANCH   2  16
BRANCH   1  31
ATOM     31  C   UNL     1       1.075  -2.176  -0.888  0.00  0.00    +0.324 C 
ATOM     32  O   UNL     1       0.885  -3.050  -0.075  0.00  0.00    -0.249 OA
BRANCH  31  33
ATOM     33  O   UNL     1       0.876  -0.892  -0.550  0.00  0.00    -0.464 OA
BRANCH  33  35
ATOM     34  C   UNL     1       0.269   0.875   0.982  0.00  0.00    +0.048 C 
ATOM     35  C   UNL     1       0.440  -0.632   0.785  0.00  0.00    +0.229 C 
ENDBRANCH  33  35
ENDBRANCH  31  33
ENDBRANCH   1  31
TORSDOF 8
