REMARK  Name = ZINC61863308
REMARK  9 active torsions:
REMARK  status: ('A' for Active; 'I' for Inactive)
REMARK    1  A    between atoms: C_1  and  C_2
REMARK    2  A    between atoms: C_4  and  C_7
REMARK    3  A    between atoms: C_7  and  N_8
REMARK    4  A    between atoms: N_11  and  C_12
REMARK    5  A    between atoms: C_12  and  C_13
REMARK    6  A    between atoms: C_16  and  C_19
REMARK    7  A    between atoms: C_19  and  N_20
REMARK    8  A    between atoms: C_22  and  C_27
REMARK    9  A    between atoms: C_24  and  C_26
REMARK                            x       y       z     vdW  Elec       q    Type
REMARK                         _______ _______ _______ _____ _____    ______ ____
ROOT
ATOM      1  C   UNL     1       4.725  -6.423  -3.994  0.00  0.00    -0.030 A 
ATOM      2  C   UNL     1       5.395  -5.784  -5.021  0.00  0.00    +0.005 A 
ATOM      3  C   UNL     1       6.762  -5.938  -5.155  0.00  0.00    +0.002 A 
ATOM      4  C   UNL     1       7.459  -6.731  -4.263  0.00  0.00    -0.064 A 
ATOM      5  C   UNL     1       6.789  -7.369  -3.236  0.00  0.00    +0.002 A 
ATOM      6  C   UNL     1       5.422  -7.212  -3.099  0.00  0.00    +0.005 A 
ENDROOT
BRANCH   1   7
ATOM      7  C   UNL     1       3.234  -6.255  -3.848  0.00  0.00    +0.141 C 
BRANCH   7  11
ATOM      8  N   UNL     1       1.424  -3.694  -1.928  0.00  0.00    -0.292 N 
ATOM      9  C   UNL     1       1.681  -4.756  -2.717  0.00  0.00    +0.300 C 
ATOM     10  O   UNL     1       0.763  -5.404  -3.182  0.00  0.00    -0.253 OA
ATOM     11  N   UNL     1       2.955  -5.100  -2.990  0.00  0.00    -0.295 N 
ATOM     12  H   UNL     1       2.156  -3.177  -1.557  0.00  0.00    +0.151 HD
ATOM     13  H   UNL     1       3.687  -4.583  -2.619  0.00  0.00    +0.151 HD
BRANCH   8  14
ATOM     14  C   UNL     1       0.039  -3.320  -1.631  0.00  0.00    +0.183 C 
BRANCH  14  18
ATOM     15  C   UNL     1      -0.018   1.503   0.010  0.00  0.00    +0.069 C 
ATOM     16  C   UNL     1       0.002  -0.004   0.002  0.00  0.00    +0.081 A 
ATOM     17  C   UNL     1       0.008  -0.824  -1.141  0.00  0.00    +0.072 A 
ATOM     18  C   UNL     1       0.027  -2.108  -0.735  0.00  0.00    +0.154 A 
ATOM     19  O   UNL     1       0.034  -2.119   0.606  0.00  0.00    -0.358 OA
ATOM     20  N   UNL     1       0.023  -0.775   1.052  0.00  0.00    -0.083 NA
ENDBRANCH  14  18
ENDBRANCH   8  14
ENDBRANCH   7  11
ENDBRANCH   1   7
BRANCH   4  21
ATOM     21  C   UNL     1       8.949  -6.900  -4.410  0.00  0.00    -0.043 C 
BRANCH  21  22
ATOM     22  N   UNL     1       9.639  -5.856  -3.641  0.00  0.00    +0.383 N 
ATOM     23  C   UNL     1       9.330  -4.542  -4.218  0.00  0.00    -0.075 C 
ATOM     24  C   UNL     1       9.980  -3.444  -3.372  0.00  0.00    -0.031 C 
ATOM     25  C   UNL     1      11.497  -3.652  -3.355  0.00  0.00    +0.003 C 
ATOM     26  C   UNL     1      11.804  -5.054  -2.821  0.00  0.00    -0.031 C 
ATOM     27  C   UNL     1      11.087  -6.092  -3.687  0.00  0.00    -0.075 C 
ATOM     28  C   UNL     1      13.313  -5.301  -2.873  0.00  0.00    +0.005 C 
ATOM     29  C   UNL     1       9.438  -3.512  -1.943  0.00  0.00    +0.005 C 
ATOM     30  H   UNL     1       9.325  -5.883  -2.683  0.00  0.00    -0.081 HD
ENDBRANCH  21  22
ENDBRANCH   4  21
TORSDOF 6
