REMARK  Name = ZINC43741184
REMARK  9 active torsions:
REMARK  status: ('A' for Active; 'I' for Inactive)
REMARK    1  A    between atoms: C_1  and  C_2
REMARK    2  A    between atoms: C_2  and  C_4
REMARK    3  A    between atoms: C_2  and  N_12
REMARK    4  A    between atoms: C_4  and  C_5
REMARK    5  A    between atoms: C_5  and  C_6
REMARK    6  A    between atoms: C_32  and  C_34
REMARK    7  A    between atoms: C_37  and  C_40
REMARK    8  A    between atoms: C_40  and  C_41
REMARK    9  A    between atoms: C_40  and  C_42
REMARK                            x       y       z     vdW  Elec       q    Type
REMARK                         _______ _______ _______ _____ _____    ______ ____
ROOT
ATOM      1  N   UNL     1       0.593  -0.603   1.205  0.00  0.00    -0.288 N 
ATOM      2  C   UNL     1       0.077  -0.247   2.516  0.00  0.00    +0.204 C 
ATOM      3  C   UNL     1       0.898  -0.829   3.620  0.00  0.00    +0.234 C 
ATOM      4  O   UNL     1       0.545  -0.615   4.760  0.00  0.00    -0.274 OA
ATOM      5  N   UNL     1       1.994  -1.568   3.436  0.00  0.00    -0.276 N 
ATOM      6  C   UNL     1       2.570  -1.829   2.117  0.00  0.00    +0.167 C 
ATOM      7  C   UNL     1       1.702  -1.315   1.014  0.00  0.00    +0.237 C 
ATOM      8  O   UNL     1       2.031  -1.559  -0.128  0.00  0.00    -0.274 OA
ATOM      9  C   UNL     1       3.957  -1.178   2.035  0.00  0.00    +0.069 C 
ATOM     10  C   UNL     1       4.718  -1.496   3.297  0.00  0.00    -0.015 A 
ATOM     11  C   UNL     1       6.145  -1.409   3.532  0.00  0.00    +0.003 A 
ATOM     12  C   UNL     1       7.218  -1.030   2.719  0.00  0.00    +0.010 A 
ATOM     13  C   UNL     1       8.469  -1.071   3.284  0.00  0.00    +0.001 A 
ATOM     14  C   UNL     1       8.671  -1.468   4.596  0.00  0.00    +0.002 A 
ATOM     15  C   UNL     1       7.628  -1.847   5.423  0.00  0.00    +0.026 A 
ATOM     16  C   UNL     1       6.346  -1.814   4.876  0.00  0.00    +0.047 A 
ATOM     17  N   UNL     1       5.121  -2.116   5.397  0.00  0.00    -0.356 N 
ATOM     18  H   UNL     1       4.960  -2.420   6.304  0.00  0.00    +0.166 HD
ATOM     19  C   UNL     1       4.154  -1.926   4.446  0.00  0.00    +0.046 A 
ATOM     20  C   UNL     1       2.669  -2.156   4.612  0.00  0.00    +0.154 C 
ENDROOT
BRANCH  20  21
ATOM     21  C   UNL     1       2.184  -1.483   5.870  0.00  0.00    -0.021 A 
ATOM     22  C   UNL     1       1.436  -2.193   6.791  0.00  0.00    +0.006 A 
ATOM     23  C   UNL     1       0.992  -1.575   7.944  0.00  0.00    +0.004 A 
ATOM     24  C   UNL     1       1.295  -0.247   8.178  0.00  0.00    -0.045 A 
ATOM     25  C   UNL     1       2.044   0.463   7.258  0.00  0.00    +0.004 A 
ATOM     26  C   UNL     1       2.492  -0.156   6.107  0.00  0.00    +0.006 A 
BRANCH  24  27
ATOM     27  C   UNL     1       0.809   0.427   9.436  0.00  0.00    +0.013 C 
ATOM     28  C   UNL     1       2.010   0.926  10.243  0.00  0.00    +0.012 C 
ATOM     29  C   UNL     1      -0.085   1.612   9.066  0.00  0.00    +0.012 C 
ENDBRANCH  24  27
ENDBRANCH  20  21
BRANCH   1  31
ATOM     30  C   UNL     1      -0.226   1.370   0.014  0.00  0.00    +0.028 C 
ATOM     31  C   UNL     1      -0.153  -0.158   0.025  0.00  0.00    +0.074 C 
BRANCH  31  32
ATOM     32  C   UNL     1      -1.569  -0.736   0.069  0.00  0.00    +0.027 C 
BRANCH  32  33
ATOM     33  C   UNL     1      -1.501  -2.260  -0.046  0.00  0.00    +0.037 C 
BRANCH  33  34
ATOM     34  C   UNL     1      -2.896  -2.829  -0.002  0.00  0.00    -0.047 A 
ATOM     35  C   UNL     1      -3.465  -3.172   1.210  0.00  0.00    +0.003 A 
ATOM     36  C   UNL     1      -4.745  -3.694   1.250  0.00  0.00    +0.000 A 
ATOM     37  C   UNL     1      -5.455  -3.873   0.078  0.00  0.00    +0.000 A 
ATOM     38  C   UNL     1      -4.886  -3.530  -1.135  0.00  0.00    +0.000 A 
ATOM     39  C   UNL     1      -3.608  -3.004  -1.174  0.00  0.00    +0.003 A 
ENDBRANCH  33  34
ENDBRANCH  32  33
ENDBRANCH  31  32
ENDBRANCH   1  31
TORSDOF 6
