REMARK  Name = ZINC37027898
REMARK  5 active torsions:
REMARK  status: ('A' for Active; 'I' for Inactive)
REMARK    1  A    between atoms: C_1  and  C_2
REMARK    2  A    between atoms: C_8  and  N_10
REMARK    3  A    between atoms: N_10  and  C_11
REMARK    4  A    between atoms: C_16  and  C_17
REMARK    5  A    between atoms: N_21  and  C_22
REMARK                            x       y       z     vdW  Elec       q    Type
REMARK                         _______ _______ _______ _____ _____    ______ ____
ROOT
ATOM      1  C   UNL     1       0.978   0.629   3.972  0.00  0.00    +0.038 A 
ATOM      2  C   UNL     1       2.347   0.509   4.165  0.00  0.00    +0.023 A 
ATOM      3  C   UNL     1       2.882   0.655   5.430  0.00  0.00    +0.002 A 
ATOM      4  C   UNL     1       2.060   0.920   6.512  0.00  0.00    +0.001 A 
ATOM      5  C   UNL     1       0.697   1.041   6.338  0.00  0.00    +0.013 A 
ATOM      6  C   UNL     1       0.143   0.902   5.065  0.00  0.00    +0.040 A 
ENDROOT
BRANCH   6   7
ATOM      7  C   UNL     1      -1.315   1.037   4.871  0.00  0.00    +0.166 A 
ATOM      8  N   UNL     1      -1.919   1.746   3.942  0.00  0.00    -0.129 NA
ATOM      9  N   UNL     1      -3.193   1.635   4.070  0.00  0.00    -0.138 NA
ATOM     10  C   UNL     1      -3.476   0.855   5.079  0.00  0.00    +0.225 A 
ATOM     11  N   UNL     1      -2.295   0.443   5.620  0.00  0.00    -0.317 N 
ATOM     12  C   UNL     1      -2.112  -0.449   6.767  0.00  0.00    +0.152 C 
ENDBRANCH   6   7
BRANCH   1  13
ATOM     13  N   UNL     1       0.435   0.483   2.697  0.00  0.00    -0.340 N 
ATOM     14  H   UNL     1      -0.522   0.570   2.564  0.00  0.00    +0.146 HD
BRANCH  13  21
ATOM     15  C   UNL     1       0.401   2.192   0.359  0.00  0.00    +0.009 C 
ATOM     16  C   UNL     1       0.645   0.684   0.269  0.00  0.00    +0.006 C 
ATOM     17  C   UNL     1      -0.691  -0.037   0.080  0.00  0.00    +0.005 C 
ATOM     18  C   UNL     1      -0.448  -1.545  -0.011  0.00  0.00    +0.000 C 
ATOM     19  C   UNL     1       0.218  -2.033   1.278  0.00  0.00    +0.002 C 
ATOM     20  C   UNL     1       1.553  -1.311   1.467  0.00  0.00    +0.022 C 
ATOM     21  C   UNL     1       1.310   0.197   1.557  0.00  0.00    +0.073 C 
ENDBRANCH  13  21
ENDBRANCH   1  13
TORSDOF 3
