REMARK  Name = ZINC43013831
REMARK  4 active torsions:
REMARK  status: ('A' for Active; 'I' for Inactive)
REMARK    1  A    between atoms: N_3  and  S_21
REMARK    2  A    between atoms: C_8  and  C_10
REMARK    3  A    between atoms: N_13  and  C_15
REMARK    4  A    between atoms: S_21  and  C_24
REMARK                            x       y       z     vdW  Elec       q    Type
REMARK                         _______ _______ _______ _____ _____    ______ ____
ROOT
ATOM      1  C   UNL     1       0.060   1.833   0.060  0.00  0.00    +0.049 A 
ATOM      2  C   UNL     1       1.371   2.114  -0.033  0.00  0.00    +0.115 A 
ATOM      3  N   UNL     1       2.102   0.961   0.045  0.00  0.00    -0.215 N 
ATOM      4  C   UNL     1       1.257  -0.117   0.194  0.00  0.00    +0.091 A 
ATOM      5  C   UNL     1      -0.060   0.382   0.210  0.00  0.00    +0.090 A 
ATOM      6  N   UNL     1      -1.095  -0.444   0.344  0.00  0.00    -0.253 NA
ATOM      7  C   UNL     1      -0.929  -1.742   0.464  0.00  0.00    +0.120 A 
ATOM      8  C   UNL     1       0.347  -2.310   0.456  0.00  0.00    +0.005 A 
ATOM      9  C   UNL     1       1.463  -1.485   0.319  0.00  0.00    +0.039 A 
ENDROOT
BRANCH   8  10
ATOM     10  C   UNL     1       0.514  -3.779   0.594  0.00  0.00    +0.021 A 
ATOM     11  C   UNL     1       1.735  -4.480   0.609  0.00  0.00    +0.143 A 
ATOM     12  N   UNL     1       1.471  -5.753   0.746  0.00  0.00    -0.179 NA
ATOM     13  N   UNL     1       0.082  -5.913   0.823  0.00  0.00    -0.268 N 
ATOM     14  C   UNL     1      -0.488  -4.694   0.735  0.00  0.00    +0.117 A 
BRANCH  13  15
ATOM     15  C   UNL     1      -0.628  -7.184   0.981  0.00  0.00    +0.104 C 
ATOM     16  C   UNL     1      -1.950  -7.131   0.209  0.00  0.00    +0.008 C 
ATOM     17  C   UNL     1      -2.723  -8.431   0.442  0.00  0.00    -0.081 C 
ATOM     18  N   UNL     1      -2.997  -8.591   1.875  0.00  0.00    +0.379 N 
ATOM     19  C   UNL     1      -1.734  -8.715   2.613  0.00  0.00    -0.081 C 
ATOM     20  C   UNL     1      -0.923  -7.426   2.464  0.00  0.00    +0.008 C 
ATOM     21  H   UNL     1      -3.505  -7.787   2.212  0.00  0.00    -0.086 HD
ATOM     22  H   UNL     1      -3.553  -9.421   2.020  0.00  0.00    -0.086 HD
ENDBRANCH  13  15
ENDBRANCH   8  10
BRANCH   3  23
ATOM     23  S   UNL     1       3.753   0.873  -0.030  0.00  0.00    +0.103 S 
ATOM     24  O   UNL     1       4.064  -0.155  -0.960  0.00  0.00    -0.146 OA
ATOM     25  O   UNL     1       4.225   2.205  -0.180  0.00  0.00    -0.146 OA
BRANCH  23  26
ATOM     26  C   UNL     1       4.317   0.315   1.544  0.00  0.00    +0.224 A 
ATOM     27  C   UNL     1       4.431   1.061   2.656  0.00  0.00    +0.176 A 
ATOM     28  N   UNL     1       4.892   0.279   3.645  0.00  0.00    -0.208 NA
ATOM     29  C   UNL     1       5.068  -0.926   3.184  0.00  0.00    +0.180 A 
ATOM     30  N   UNL     1       4.719  -0.982   1.861  0.00  0.00    -0.276 N 
ATOM     31  C   UNL     1       4.847  -2.201   1.232  0.00  0.00    +0.102 A 
ATOM     32  C   UNL     1       5.288  -3.268   1.897  0.00  0.00    +0.067 A 
ATOM     33  S   UNL     1       5.577  -2.594   3.526  0.00  0.00    -0.058 S 
ATOM     34 CL   UNL     1       4.046   2.748   2.790  0.00  0.00    -0.058 Cl
ENDBRANCH  23  26
ENDBRANCH   3  23
TORSDOF 4
