REMARK  Name = ZINC16513005
REMARK  11 active torsions:
REMARK  status: ('A' for Active; 'I' for Inactive)
REMARK    1  A    between atoms: C_1  and  C_2
REMARK    2  A    between atoms: C_5  and  N_8
REMARK    3  A    between atoms: C_9  and  C_11
REMARK    4  A    between atoms: C_11  and  N_54
REMARK    5  A    between atoms: C_12  and  N_54
REMARK    6  A    between atoms: C_13  and  C_15
REMARK    7  A    between atoms: C_13  and  C_16
REMARK    8  A    between atoms: C_13  and  N_54
REMARK    9  A    between atoms: N_18  and  C_19
REMARK   10  A    between atoms: C_19  and  C_20
REMARK   11  A    between atoms: N_22  and  C_23
REMARK                            x       y       z     vdW  Elec       q    Type
REMARK                         _______ _______ _______ _____ _____    ______ ____
ROOT
ATOM      1  C   UNL     1       5.303  -6.476  -1.153  0.00  0.00    +0.200 C 
ATOM      2  O   UNL     1       6.203  -5.683  -0.975  0.00  0.00    -0.278 OA
ATOM      3  N   UNL     1       5.586  -7.755  -1.470  0.00  0.00    -0.308 N 
ATOM      4  H   UNL     1       4.867  -8.390  -1.613  0.00  0.00    +0.149 HD
ENDROOT
BRANCH   1   5
ATOM      5  C   UNL     1       3.870  -6.032  -1.020  0.00  0.00    +0.016 C 
ATOM      6  C   UNL     1       3.184  -6.846   0.079  0.00  0.00    -0.004 C 
BRANCH   5   8
ATOM      7  C   UNL     1       4.498  -4.359   0.614  0.00  0.00    -0.094 C 
ATOM      8  N   UNL     1       3.844  -4.591  -0.691  0.00  0.00    +0.391 N 
ATOM      9  H   UNL     1       4.353  -4.074  -1.417  0.00  0.00    -0.080 HD
BRANCH   8  10
ATOM     10  C   UNL     1       2.447  -4.108  -0.648  0.00  0.00    +0.020 C 
BRANCH  10  12
ATOM     11  N   UNL     1       1.293  -1.925  -0.493  0.00  0.00    -0.287 N 
ATOM     12  C   UNL     1       2.456  -2.605  -0.532  0.00  0.00    +0.201 C 
ATOM     13  O   UNL     1       3.510  -2.008  -0.473  0.00  0.00    -0.278 OA
ATOM     14  H   UNL     1       0.451  -2.406  -0.462  0.00  0.00    +0.155 HD
BRANCH  11  19
ATOM     15  C   UNL     1       1.321   3.748  -0.510  0.00  0.00    +0.044 C 
ATOM     16  C   UNL     1       1.313   2.240  -0.505  0.00  0.00    -0.050 A 
ATOM     17  C   UNL     1       2.285   1.544  -1.200  0.00  0.00    +0.005 A 
ATOM     18  C   UNL     1       2.281   0.163  -1.198  0.00  0.00    +0.023 A 
ATOM     19  C   UNL     1       1.300  -0.526  -0.497  0.00  0.00    +0.033 A 
ATOM     20  C   UNL     1       0.326   0.176   0.200  0.00  0.00    +0.023 A 
ATOM     21  C   UNL     1       0.335   1.558   0.194  0.00  0.00    +0.005 A 
ENDBRANCH  11  19
ENDBRANCH  10  12
ENDBRANCH   8  10
ENDBRANCH   5   8
ENDBRANCH   1   5
BRANCH   3  22
ATOM     22  C   UNL     1       6.980  -8.187  -1.600  0.00  0.00    +0.200 C 
BRANCH  22  23
ATOM     23  C   UNL     1       7.021  -9.650  -1.958  0.00  0.00    +0.234 C 
ATOM     24  O   UNL     1       5.988 -10.271  -2.092  0.00  0.00    -0.274 OA
ATOM     25  N   UNL     1       8.207 -10.269  -2.130  0.00  0.00    -0.282 N 
ATOM     26  H   UNL     1       9.032  -9.793  -1.948  0.00  0.00    +0.155 HD
BRANCH  25  27
ATOM     27  C   UNL     1       8.246 -11.598  -2.571  0.00  0.00    +0.072 A 
ATOM     28  C   UNL     1       7.155 -12.142  -3.236  0.00  0.00    +0.029 A 
ATOM     29  C   UNL     1       7.196 -13.451  -3.675  0.00  0.00    +0.043 A 
ATOM     30  C   UNL     1       8.320 -14.226  -3.443  0.00  0.00    +0.161 A 
ATOM     31  C   UNL     1       9.409 -13.689  -2.775  0.00  0.00    +0.195 A 
ATOM     32  C   UNL     1       9.374 -12.376  -2.338  0.00  0.00    +0.182 A 
ATOM     33  F   UNL     1      10.434 -11.851  -1.686  0.00  0.00    -0.200 F 
ATOM     34  F   UNL     1      10.504 -14.447  -2.549  0.00  0.00    -0.199 F 
ATOM     35  F   UNL     1       8.355 -15.508  -3.869  0.00  0.00    -0.202 F 
ENDBRANCH  25  27
ENDBRANCH  22  23
ENDBRANCH   3  22
TORSDOF 8
