REMARK  Name = ZINC36704371
REMARK  12 active torsions:
REMARK  status: ('A' for Active; 'I' for Inactive)
REMARK    1  A    between atoms: C_1  and  C_2
REMARK    2  A    between atoms: C_2  and  C_3
REMARK    3  A    between atoms: N_12  and  C_13
REMARK    4  A    between atoms: C_13  and  C_14
REMARK    5  A    between atoms: C_14  and  N_15
REMARK    6  A    between atoms: N_15  and  C_16
REMARK    7  A    between atoms: N_15  and  C_18
REMARK    8  A    between atoms: C_16  and  C_17
REMARK    9  A    between atoms: C_18  and  C_19
REMARK   10  A    between atoms: C_20  and  C_22
REMARK   11  A    between atoms: N_27  and  S_28
REMARK   12  A    between atoms: S_28  and  C_31
REMARK                            x       y       z     vdW  Elec       q    Type
REMARK                         _______ _______ _______ _____ _____    ______ ____
ROOT
ATOM      1  C   UNL     1       1.283   0.674  -2.813  0.00  0.00    -0.021 A 
ATOM      2  C   UNL     1       0.719   1.145  -3.970  0.00  0.00    +0.006 A 
ATOM      3  C   UNL     1       1.500   1.580  -5.031  0.00  0.00    +0.001 A 
ATOM      4  C   UNL     1       2.878   1.538  -4.921  0.00  0.00    +0.017 A 
ATOM      5  C   UNL     1       3.450   1.068  -3.766  0.00  0.00    +0.041 A 
ATOM      6  C   UNL     1       2.687   0.622  -2.662  0.00  0.00    +0.083 A 
ATOM      7  N   UNL     1       3.397   0.193  -1.596  0.00  0.00    -0.224 NA
ATOM      8  C   UNL     1       4.709   0.193  -1.575  0.00  0.00    +0.168 A 
ATOM      9  S   UNL     1       5.116   0.838  -3.192  0.00  0.00    -0.052 S 
ATOM     10  N   UNL     1       5.562  -0.213  -0.562  0.00  0.00    -0.251 N 
ATOM     11  C   UNL     1       5.057  -0.688   0.594  0.00  0.00    +0.240 C 
ATOM     12  O   UNL     1       5.801  -1.124   1.447  0.00  0.00    -0.273 OA
ENDROOT
BRANCH  11  13
ATOM     13  C   UNL     1       3.568  -0.677   0.827  0.00  0.00    +0.166 C 
ATOM     14  C   UNL     1       2.929  -1.933   0.199  0.00  0.00    +0.031 C 
ATOM     15  C   UNL     1       2.810  -2.902   1.406  0.00  0.00    +0.019 C 
ATOM     16  C   UNL     1       2.487  -1.922   2.561  0.00  0.00    +0.110 C 
ATOM     17  N   UNL     1       3.288  -0.715   2.270  0.00  0.00    -0.164 NA
BRANCH  17  18
ATOM     18  S   UNL     1       3.788   0.408   3.380  0.00  0.00    +0.068 S 
ATOM     19  O   UNL     1       3.811  -0.249   4.640  0.00  0.00    -0.152 OA
ATOM     20  O   UNL     1       4.936   1.040   2.830  0.00  0.00    -0.152 OA
BRANCH  18  21
ATOM     21  C   UNL     1       2.532   1.640   3.478  0.00  0.00    +0.143 A 
ATOM     22  C   UNL     1       1.451   1.695   4.294  0.00  0.00    +0.036 A 
ATOM     23  C   UNL     1       0.590   2.771   4.194  0.00  0.00    +0.010 A 
ATOM     24  C   UNL     1       0.851   3.740   3.283  0.00  0.00    +0.047 A 
ATOM     25  S   UNL     1       2.358   3.144   2.532  0.00  0.00    -0.077 S 
ENDBRANCH  18  21
ENDBRANCH  17  18
ENDBRANCH  11  13
BRANCH   1  27
ATOM     26  C   UNL     1       0.244   1.337  -0.661  0.00  0.00    +0.009 C 
ATOM     27  C   UNL     1       0.395   0.212  -1.687  0.00  0.00    +0.034 C 
ENDBRANCH   1  27
BRANCH  10  28
ATOM     28  C   UNL     1       7.013  -0.126  -0.746  0.00  0.00    +0.097 C 
BRANCH  28  29
ATOM     29  C   UNL     1       7.518   1.207  -0.189  0.00  0.00    -0.059 C 
BRANCH  29  30
ATOM     30  N   UNL     1       8.986   1.239  -0.253  0.00  0.00    +0.380 N 
ATOM     31  H   UNL     1       9.361   0.434   0.226  0.00  0.00    -0.082 HD
BRANCH  30  32
ATOM     32  C   UNL     1       9.415   1.217  -1.657  0.00  0.00    -0.082 C 
ATOM     33  C   UNL     1      10.940   1.107  -1.723  0.00  0.00    -0.017 C 
ENDBRANCH  30  32
BRANCH  30  34
ATOM     34  C   UNL     1       9.477   2.465   0.390  0.00  0.00    -0.082 C 
ATOM     35  C   UNL     1       9.144   2.426   1.883  0.00  0.00    -0.017 C 
ENDBRANCH  30  34
ENDBRANCH  29  30
ENDBRANCH  28  29
ENDBRANCH  10  28
TORSDOF 9
