REMARK  Name = ZINC35003667
REMARK  12 active torsions:
REMARK  status: ('A' for Active; 'I' for Inactive)
REMARK    1  A    between atoms: C_1  and  N_2
REMARK    2  A    between atoms: N_2  and  C_3
REMARK    3  A    between atoms: N_2  and  C_4
REMARK    4  A    between atoms: C_4  and  C_5
REMARK    5  A    between atoms: C_5  and  N_6
REMARK    6  A    between atoms: N_6  and  C_7
REMARK    7  A    between atoms: C_7  and  C_8
REMARK    8  A    between atoms: C_15  and  O_22
REMARK    9  A    between atoms: C_16  and  O_20
REMARK   10  A    between atoms: O_20  and  C_21
REMARK   11  A    between atoms: O_22  and  C_23
REMARK   12  A    between atoms: N_26  and  C_27
REMARK                            x       y       z     vdW  Elec       q    Type
REMARK                         _______ _______ _______ _____ _____    ______ ____
ROOT
ATOM      1  N   UNL     1      -2.733  -2.544  -0.111  0.00  0.00    -0.279 N 
ATOM      2  C   UNL     1      -3.319  -2.879   1.055  0.00  0.00    +0.303 C 
ATOM      3  O   UNL     1      -4.459  -3.299   1.064  0.00  0.00    -0.253 OA
ATOM      4  N   UNL     1      -2.640  -2.747   2.212  0.00  0.00    -0.294 N 
ATOM      5  H   UNL     1      -1.730  -2.411   2.205  0.00  0.00    +0.151 HD
ENDROOT
BRANCH   4   6
ATOM      6  C   UNL     1      -3.277  -3.111   3.481  0.00  0.00    +0.037 C 
ATOM      7  C   UNL     1      -4.529  -2.256   3.687  0.00  0.00    +0.029 C 
ATOM      8  C   UNL     1      -5.194  -2.636   5.011  0.00  0.00    -0.008 C 
ATOM      9  C   UNL     1      -4.215  -2.393   6.162  0.00  0.00    +0.007 C 
ATOM     10  C   UNL     1      -2.963  -3.248   5.955  0.00  0.00    -0.008 C 
ATOM     11  C   UNL     1      -2.298  -2.868   4.631  0.00  0.00    +0.029 C 
ATOM     12  C   UNL     1      -3.356  -4.727   5.923  0.00  0.00    +0.007 C 
ATOM     13  C   UNL     1      -4.335  -4.970   4.773  0.00  0.00    -0.008 C 
ATOM     14  C   UNL     1      -5.586  -4.114   4.979  0.00  0.00    +0.007 C 
ATOM     15  C   UNL     1      -3.670  -4.590   3.448  0.00  0.00    +0.029 C 
ENDBRANCH   4   6
BRANCH   1  16
ATOM     16  C   UNL     1      -1.358  -2.037  -0.122  0.00  0.00    +0.091 C 
BRANCH  16  17
ATOM     17  C   UNL     1      -1.376  -0.512   0.012  0.00  0.00    -0.060 C 
BRANCH  17  19
ATOM     18  C   UNL     1      -0.018   1.465   0.010  0.00  0.00    -0.097 C 
ATOM     19  N   UNL     1       0.002  -0.004   0.002  0.00  0.00    +0.377 N 
ATOM     20  C   UNL     1       0.713  -0.491   1.192  0.00  0.00    -0.097 C 
ATOM     21  H   UNL     1       0.474  -0.330  -0.828  0.00  0.00    -0.083 HD
ENDBRANCH  17  19
ENDBRANCH  16  17
ENDBRANCH   1  16
BRANCH   1  22
ATOM     22  C   UNL     1      -3.470  -2.687  -1.369  0.00  0.00    +0.205 C 
BRANCH  22  23
ATOM     23  C   UNL     1      -3.235  -4.063  -1.936  0.00  0.00    +0.233 C 
ATOM     24  O   UNL     1      -2.521  -4.847  -1.347  0.00  0.00    -0.274 OA
ATOM     25  N   UNL     1      -3.817  -4.422  -3.097  0.00  0.00    -0.296 N 
ATOM     26  C   UNL     1      -3.612  -5.761  -3.674  0.00  0.00    +0.113 C 
ATOM     27  C   UNL     1      -4.960  -6.479  -3.685  0.00  0.00    +0.054 C 
ATOM     28  C   UNL     1      -6.038  -5.589  -4.246  0.00  0.00    -0.038 A 
ATOM     29  C   UNL     1      -7.194  -6.200  -4.719  0.00  0.00    +0.053 A 
ATOM     30  C   UNL     1      -8.227  -5.443  -5.239  0.00  0.00    +0.162 A 
ATOM     31  C   UNL     1      -8.110  -4.057  -5.288  0.00  0.00    +0.162 A 
ATOM     32  C   UNL     1      -6.957  -3.454  -4.820  0.00  0.00    +0.054 A 
ATOM     33  C   UNL     1      -5.920  -4.218  -4.304  0.00  0.00    -0.023 A 
ATOM     34  C   UNL     1      -4.686  -3.498  -3.833  0.00  0.00    +0.143 C 
BRANCH  31  35
ATOM     35  O   UNL     1      -9.122  -3.302  -5.793  0.00  0.00    -0.491 OA
ATOM     36  C   UNL     1      -8.928  -1.886  -5.810  0.00  0.00    +0.277 C 
ENDBRANCH  31  35
BRANCH  30  37
ATOM     37  O   UNL     1      -9.353  -6.050  -5.701  0.00  0.00    -0.491 OA
ATOM     38  C   UNL     1      -9.402  -7.476  -5.618  0.00  0.00    +0.277 C 
ENDBRANCH  30  37
ENDBRANCH  22  23
ENDBRANCH   1  22
TORSDOF 8
