REMARK  Name = ZINC13414887
REMARK  9 active torsions:
REMARK  status: ('A' for Active; 'I' for Inactive)
REMARK    1  A    between atoms: C_1  and  C_2
REMARK    2  A    between atoms: C_2  and  C_4
REMARK    3  A    between atoms: C_2  and  O_35
REMARK    4  A    between atoms: C_5  and  C_6
REMARK    5  A    between atoms: C_6  and  C_7
REMARK    6  A    between atoms: C_6  and  C_8
REMARK    7  A    between atoms: C_6  and  O_34
REMARK    8  A    between atoms: C_14  and  C_33
REMARK    9  A    between atoms: C_26  and  O_32
REMARK                            x       y       z     vdW  Elec       q    Type
REMARK                         _______ _______ _______ _____ _____    ______ ____
ROOT
ATOM      1  C   UNL     1      -2.358   0.834   0.278  0.00  0.00    +0.031 C 
ATOM      2  C   UNL     1      -2.142   0.786  -1.261  0.00  0.00    +0.008 C 
ATOM      3  C   UNL     1      -0.731   1.384  -1.529  0.00  0.00    +0.009 C 
ATOM      4  C   UNL     1      -0.102   1.419  -0.133  0.00  0.00    +0.022 C 
ATOM      5  C   UNL     1      -1.300   1.856   0.733  0.00  0.00    -0.020 C 
ATOM      6  C   UNL     1      -0.995   1.975   2.187  0.00  0.00    +0.008 C 
ATOM      7  C   UNL     1       0.367   2.635   2.480  0.00  0.00    +0.013 C 
ATOM      8  C   UNL     1       1.000   3.233   1.271  0.00  0.00    +0.041 C 
ATOM      9  C   UNL     1       1.072   2.309   0.098  0.00  0.00    -0.056 C 
ATOM     10  C   UNL     1       2.143   2.276  -0.658  0.00  0.00    +0.046 C 
ATOM     11  C   UNL     1       3.398   2.991  -0.516  0.00  0.00    +0.160 C 
ATOM     12  O   UNL     1       4.411   2.339  -0.315  0.00  0.00    -0.292 OA
ATOM     13  C   UNL     1       3.500   4.485  -0.650  0.00  0.00    +0.066 C 
ATOM     14  C   UNL     1       4.807   5.041  -0.087  0.00  0.00    +0.043 C 
ATOM     15  C   UNL     1       4.989   4.828   1.413  0.00  0.00    +0.119 C 
ATOM     16  C   UNL     1       3.896   5.500   2.253  0.00  0.00    +0.058 C 
ATOM     17  C   UNL     1       2.772   4.496   2.379  0.00  0.00    -0.024 C 
ATOM     18  C   UNL     1       2.028   4.265   1.335  0.00  0.00    -0.066 C 
ATOM     19  C   UNL     1       2.333   5.114   0.124  0.00  0.00    +0.042 C 
ATOM     20  C   UNL     1      -1.883   3.187   0.233  0.00  0.00    +0.012 C 
ENDROOT
BRANCH   1  21
ATOM     21  C   UNL     1      -2.122  -0.537   0.896  0.00  0.00    +0.085 C 
ATOM     22  C   UNL     1      -0.790  -1.100   0.395  0.00  0.00    +0.046 C 
BRANCH  21  24
ATOM     23  C   UNL     1      -3.992  -2.015   1.424  0.00  0.00    +0.002 C 
ATOM     24  C   UNL     1      -3.241  -1.466   0.502  0.00  0.00    +0.005 C 
BRANCH  23  26
ATOM     25  C   UNL     1      -4.873  -4.322   1.651  0.00  0.00    +0.042 C 
ATOM     26  C   UNL     1      -5.111  -2.944   1.029  0.00  0.00    +0.134 C 
BRANCH  26  27
ATOM     27  O   UNL     1      -6.354  -2.418   1.497  0.00  0.00    -0.388 OA
ATOM     28  H   UNL     1      -6.399  -2.309   2.457  0.00  0.00    +0.210 HD
ENDBRANCH  26  27
ENDBRANCH  23  26
ENDBRANCH  21  24
BRANCH  21  29
ATOM     29  O   UNL     1      -2.082  -0.416   2.320  0.00  0.00    -0.385 OA
ATOM     30  H   UNL     1      -2.895  -0.064   2.707  0.00  0.00    +0.211 HD
ENDBRANCH  21  29
ENDBRANCH   1  21
BRANCH  15  31
ATOM     31  O   UNL     1       5.037   3.443   1.730  0.00  0.00    -0.391 OA
ATOM     32  H   UNL     1       5.151   3.259   2.672  0.00  0.00    +0.210 HD
ENDBRANCH  15  31
TORSDOF 6
