REMARK  Name = ZINC13521577
REMARK  7 active torsions:
REMARK  status: ('A' for Active; 'I' for Inactive)
REMARK    1  A    between atoms: C_5  and  C_7
REMARK    2  A    between atoms: N_12  and  C_28
REMARK    3  A    between atoms: C_13  and  C_20
REMARK    4  A    between atoms: C_15  and  N_17
REMARK    5  A    between atoms: C_23  and  O_27
REMARK    6  A    between atoms: C_24  and  O_26
REMARK    7  A    between atoms: C_28  and  C_29
REMARK                            x       y       z     vdW  Elec       q    Type
REMARK                         _______ _______ _______ _____ _____    ______ ____
ROOT
ATOM      1  C   UNL     1      -0.268   6.413  -4.083  0.00  0.00    +0.060 C 
ATOM      2  C   UNL     1       1.051   6.628  -3.338  0.00  0.00    +0.106 C 
ATOM      3  C   UNL     1       0.949   6.076  -1.946  0.00  0.00    +0.217 C 
ATOM      4  O   UNL     1       1.976   5.870  -1.333  0.00  0.00    -0.276 OA
ATOM      5  N   UNL     1      -0.209   5.793  -1.348  0.00  0.00    -0.288 N 
ATOM      6  C   UNL     1      -1.514   5.951  -1.979  0.00  0.00    +0.137 C 
ATOM      7  C   UNL     1      -1.416   6.888  -3.184  0.00  0.00    +0.202 C 
ENDROOT
BRANCH   1  12
ATOM      8  C   UNL     1      -0.102   9.312  -6.496  0.00  0.00    +0.000 A 
ATOM      9  C   UNL     1      -0.256   8.670  -7.711  0.00  0.00    +0.001 A 
ATOM     10  C   UNL     1      -0.413   7.298  -7.752  0.00  0.00    +0.015 A 
ATOM     11  C   UNL     1      -0.417   6.566  -6.578  0.00  0.00    +0.021 A 
ATOM     12  C   UNL     1      -0.264   7.209  -5.363  0.00  0.00    -0.028 A 
ATOM     13  C   UNL     1      -0.112   8.583  -5.322  0.00  0.00    +0.005 A 
ATOM     14 BR   UNL     1      -0.632   4.689  -6.634  0.00  0.00    -0.050 Br
ENDBRANCH   1  12
BRANCH   6  15
ATOM     15  C   UNL     1      -2.013   4.604  -2.435  0.00  0.00    -0.021 A 
ATOM     16  C   UNL     1      -1.136   3.701  -3.007  0.00  0.00    +0.009 A 
ATOM     17  C   UNL     1      -1.587   2.462  -3.422  0.00  0.00    +0.049 A 
ATOM     18  C   UNL     1      -2.924   2.127  -3.275  0.00  0.00    +0.158 A 
ATOM     19  C   UNL     1      -3.808   3.038  -2.704  0.00  0.00    +0.159 A 
ATOM     20  C   UNL     1      -3.347   4.276  -2.285  0.00  0.00    +0.054 A 
BRANCH  19  21
ATOM     21  O   UNL     1      -5.120   2.714  -2.557  0.00  0.00    -0.503 OA
ATOM     22  H   UNL     1      -5.672   2.954  -3.314  0.00  0.00    +0.292 HD
ENDBRANCH  19  21
BRANCH  18  23
ATOM     23  O   UNL     1      -3.371   0.911  -3.688  0.00  0.00    -0.503 OA
ATOM     24  H   UNL     1      -3.672   0.894  -4.606  0.00  0.00    +0.292 HD
ENDBRANCH  18  23
ENDBRANCH   6  15
BRANCH   7  25
ATOM     25  N   UNL     1      -1.148   8.253  -2.724  0.00  0.00    +0.028 N 
ATOM     26  O   UNL     1      -0.140   8.493  -2.084  0.00  0.00    -0.131 OA
ATOM     27  O   UNL     1      -1.933   9.148  -2.982  0.00  0.00    -0.131 OA
ENDBRANCH   7  25
BRANCH   5  28
ATOM     28  C   UNL     1      -0.169   5.299   0.030  0.00  0.00    +0.145 C 
BRANCH  28  29
ATOM     29  C   UNL     1      -0.084   3.795   0.022  0.00  0.00    -0.012 A 
ATOM     30  C   UNL     1       1.150   3.161   0.008  0.00  0.00    +0.008 A 
ATOM     31  C   UNL     1       1.180   1.775   0.000  0.00  0.00    +0.020 A 
ATOM     32  C   UNL     1      -0.013   1.076   0.008  0.00  0.00    +0.111 A 
ATOM     33  N   UNL     1      -1.167   1.712   0.017  0.00  0.00    -0.263 NA
ATOM     34  C   UNL     1      -1.234   3.029   0.029  0.00  0.00    +0.115 A 
ENDBRANCH  28  29
ENDBRANCH   5  28
TORSDOF 7
