REMARK  Name = ZINC40979706
REMARK  12 active torsions:
REMARK  status: ('A' for Active; 'I' for Inactive)
REMARK    1  A    between atoms: C_1  and  C_2
REMARK    2  A    between atoms: C_2  and  C_3
REMARK    3  A    between atoms: C_3  and  C_4
REMARK    4  A    between atoms: C_4  and  O_5
REMARK    5  A    between atoms: O_5  and  C_6
REMARK    6  A    between atoms: C_6  and  C_8
REMARK    7  A    between atoms: C_9  and  C_29
REMARK    8  A    between atoms: C_16  and  C_18
REMARK    9  A    between atoms: C_23  and  O_24
REMARK   10  A    between atoms: O_24  and  C_25
REMARK   11  A    between atoms: C_25  and  C_26
REMARK   12  A    between atoms: C_26  and  C_27
REMARK                            x       y       z     vdW  Elec       q    Type
REMARK                         _______ _______ _______ _____ _____    ______ ____
ROOT
ATOM      1  C   UNL     1       1.985  -4.382  -3.849  0.00  0.00    +0.082 C 
ATOM      2  C   UNL     1       2.334  -5.677  -3.824  0.00  0.00    +0.020 C 
ATOM      3  N   UNL     1       3.146  -6.237  -4.780  0.00  0.00    -0.286 N 
ATOM      4  C   UNL     1       3.809  -5.372  -5.639  0.00  0.00    +0.240 A 
ATOM      5  N   UNL     1       4.781  -5.583  -6.479  0.00  0.00    -0.092 NA
ATOM      6  N   UNL     1       5.101  -4.487  -7.077  0.00  0.00    -0.021 NA
ATOM      7  N   UNL     1       4.358  -3.513  -6.661  0.00  0.00    -0.042 NA
ATOM      8  N   UNL     1       3.490  -4.054  -5.714  0.00  0.00    -0.201 N 
ATOM      9  C   UNL     1       2.430  -3.431  -4.929  0.00  0.00    +0.184 C 
ATOM     10  C   UNL     1       1.819  -6.548  -2.708  0.00  0.00    +0.061 C 
ATOM     11  H   UNL     1       3.251  -7.198  -4.852  0.00  0.00    +0.155 HD
ENDROOT
BRANCH   9  12
ATOM     12  C   UNL     1       1.262  -3.103  -5.823  0.00  0.00    +0.024 A 
ATOM     13  C   UNL     1       0.611  -4.111  -6.508  0.00  0.00    +0.025 A 
ATOM     14  C   UNL     1      -0.461  -3.810  -7.328  0.00  0.00    +0.018 A 
ATOM     15  C   UNL     1      -0.884  -2.500  -7.465  0.00  0.00    +0.019 A 
ATOM     16  C   UNL     1      -0.236  -1.489  -6.782  0.00  0.00    +0.047 A 
ATOM     17  C   UNL     1       0.836  -1.789  -5.954  0.00  0.00    +0.126 A 
ATOM     18 BR   UNL     1      -1.349  -5.192  -8.265  0.00  0.00    -0.050 Br
BRANCH  17  19
ATOM     19  O   UNL     1       1.471  -0.797  -5.277  0.00  0.00    -0.492 OA
BRANCH  19  20
ATOM     20  C   UNL     1       0.978   0.532  -5.460  0.00  0.00    +0.229 C 
BRANCH  20  21
ATOM     21  C   UNL     1       1.813   1.505  -4.624  0.00  0.00    +0.038 C 
ATOM     22  C   UNL     1       1.285   2.928  -4.820  0.00  0.00    +0.007 C 
ENDBRANCH  20  21
ENDBRANCH  19  20
ENDBRANCH  17  19
ENDBRANCH   9  12
BRANCH   1  23
ATOM     23  C   UNL     1       1.156  -3.888  -2.817  0.00  0.00    +0.339 C 
ATOM     24  O   UNL     1       1.626  -3.185  -1.943  0.00  0.00    -0.245 OA
BRANCH  23  25
ATOM     25  O   UNL     1      -0.158  -4.197  -2.801  0.00  0.00    -0.461 OA
BRANCH  25  26
ATOM     26  C   UNL     1      -0.937  -3.664  -1.729  0.00  0.00    +0.232 C 
BRANCH  26  27
ATOM     27  C   UNL     1      -2.390  -4.118  -1.878  0.00  0.00    +0.041 C 
BRANCH  27  29
ATOM     28  C   UNL     1      -4.677  -4.002  -0.879  0.00  0.00    +0.004 C 
ATOM     29  C   UNL     1      -3.224  -3.547  -0.730  0.00  0.00    -0.000 C 
ENDBRANCH  27  29
ENDBRANCH  26  27
ENDBRANCH  25  26
ENDBRANCH  23  25
ENDBRANCH   1  23
TORSDOF 9
