REMARK  Name = ZINC13495903
REMARK  14 active torsions:
REMARK  status: ('A' for Active; 'I' for Inactive)
REMARK    1  A    between atoms: C_1  and  C_2
REMARK    2  A    between atoms: C_2  and  C_3
REMARK    3  A    between atoms: C_3  and  C_5
REMARK    4  A    between atoms: C_3  and  N_18
REMARK    5  A    between atoms: N_9  and  C_10
REMARK    6  A    between atoms: C_10  and  C_11
REMARK    7  A    between atoms: C_11  and  C_12
REMARK    8  A    between atoms: N_18  and  C_19
REMARK    9  A    between atoms: N_18  and  C_28
REMARK   10  A    between atoms: C_19  and  C_20
REMARK   11  A    between atoms: C_20  and  C_21
REMARK   12  A    between atoms: C_26  and  C_27
REMARK   13  A    between atoms: C_28  and  C_29
REMARK   14  A    between atoms: C_33  and  C_41
REMARK                            x       y       z     vdW  Elec       q    Type
REMARK                         _______ _______ _______ _____ _____    ______ ____
ROOT
ATOM      1  N   UNL     1      -2.355   1.491  -1.313  0.00  0.00    -0.288 NA
ENDROOT
BRANCH   1   2
ATOM      2  C   UNL     1      -1.217   1.361  -0.394  0.00  0.00    +0.126 C 
BRANCH   2   3
ATOM      3  C   UNL     1      -0.257   0.328  -0.926  0.00  0.00    +0.168 A 
ATOM      4  N   UNL     1      -0.565  -0.849  -1.413  0.00  0.00    -0.112 NA
ATOM      5  N   UNL     1       0.528  -1.432  -1.766  0.00  0.00    -0.023 NA
ATOM      6  N   UNL     1       1.526  -0.658  -1.516  0.00  0.00    -0.044 NA
ATOM      7  N   UNL     1       1.083   0.437  -0.997  0.00  0.00    -0.227 N 
BRANCH   7   8
ATOM      8  C   UNL     1       1.887   1.584  -0.567  0.00  0.00    +0.152 C 
BRANCH   8   9
ATOM      9  C   UNL     1       2.284   1.407   0.900  0.00  0.00    +0.058 C 
BRANCH   9  10
ATOM     10  C   UNL     1       3.111   2.586   1.342  0.00  0.00    -0.046 A 
ATOM     11  C   UNL     1       4.487   2.554   1.212  0.00  0.00    +0.004 A 
ATOM     12  C   UNL     1       5.245   3.638   1.613  0.00  0.00    +0.000 A 
ATOM     13  C   UNL     1       4.628   4.750   2.154  0.00  0.00    +0.000 A 
ATOM     14  C   UNL     1       3.253   4.780   2.290  0.00  0.00    +0.000 A 
ATOM     15  C   UNL     1       2.494   3.699   1.884  0.00  0.00    +0.004 A 
ENDBRANCH   9  10
ENDBRANCH   8   9
ENDBRANCH   7   8
ENDBRANCH   2   3
BRANCH   2  17
ATOM     16  C   UNL     1      -2.389  -0.444   0.875  0.00  0.00    +0.006 C 
ATOM     17  C   UNL     1      -1.720   0.928   0.985  0.00  0.00    +0.023 C 
ENDBRANCH   2  17
ENDBRANCH   1   2
BRANCH   1  18
ATOM     18  C   UNL     1      -1.899   1.589  -2.706  0.00  0.00    +0.090 C 
BRANCH  18  19
ATOM     19  C   UNL     1      -3.095   1.427  -3.646  0.00  0.00    +0.051 C 
BRANCH  19  20
ATOM     20  C   UNL     1      -2.613   1.418  -5.074  0.00  0.00    -0.043 A 
ATOM     21  C   UNL     1      -2.603   2.590  -5.807  0.00  0.00    +0.004 A 
ATOM     22  C   UNL     1      -2.156   2.583  -7.115  0.00  0.00    +0.000 A 
ATOM     23  C   UNL     1      -1.730   1.403  -7.694  0.00  0.00    +0.000 A 
ATOM     24  C   UNL     1      -1.744   0.230  -6.963  0.00  0.00    +0.003 A 
ATOM     25  C   UNL     1      -2.186   0.238  -5.653  0.00  0.00    -0.047 A 
ATOM     26  C   UNL     1      -2.203  -1.041  -4.856  0.00  0.00    +0.044 C 
ENDBRANCH  19  20
ENDBRANCH  18  19
ENDBRANCH   1  18
BRANCH   1  27
ATOM     27  C   UNL     1      -3.195   2.641  -0.951  0.00  0.00    +0.125 C 
BRANCH  27  28
ATOM     28  C   UNL     1      -2.421   3.916  -1.166  0.00  0.00    +0.031 A 
ATOM     29  C   UNL     1      -2.534   4.585  -2.340  0.00  0.00    +0.020 A 
ATOM     30  C   UNL     1      -1.769   5.820  -2.518  0.00  0.00    -0.001 A 
ATOM     31  C   UNL     1      -1.845   6.554  -3.706  0.00  0.00    +0.013 A 
ATOM     32  C   UNL     1      -1.119   7.704  -3.840  0.00  0.00    -0.050 A 
ATOM     33  C   UNL     1      -0.305   8.149  -2.807  0.00  0.00    +0.005 A 
ATOM     34  C   UNL     1      -0.215   7.442  -1.627  0.00  0.00    +0.026 A 
ATOM     35  C   UNL     1      -0.945   6.269  -1.468  0.00  0.00    +0.049 A 
ATOM     36  N   UNL     1      -0.874   5.543  -0.299  0.00  0.00    -0.322 N 
ATOM     37  H   UNL     1      -0.229   5.886   0.524  0.00  0.00    +0.169 HD
ATOM     38  C   UNL     1      -1.585   4.412  -0.143  0.00  0.00    +0.254 A 
ATOM     39  O   UNL     1      -1.502   3.797   0.906  0.00  0.00    -0.268 OA
ATOM     40  C   UNL     1      -1.201   8.494  -5.120  0.00  0.00    +0.044 C 
ENDBRANCH  27  28
ENDBRANCH   1  27
TORSDOF 11
