REMARK  Name = ZINC38547620
REMARK  9 active torsions:
REMARK  status: ('A' for Active; 'I' for Inactive)
REMARK    1  A    between atoms: C_1  and  C_2
REMARK    2  A    between atoms: N_8  and  C_9
REMARK    3  A    between atoms: C_9  and  C_11
REMARK    4  A    between atoms: C_9  and  C_21
REMARK    5  A    between atoms: C_14  and  C_17
REMARK    6  A    between atoms: C_22  and  C_35
REMARK    7  A    between atoms: C_23  and  C_34
REMARK    8  A    between atoms: C_25  and  N_26
REMARK    9  A    between atoms: C_27  and  C_29
REMARK                            x       y       z     vdW  Elec       q    Type
REMARK                         _______ _______ _______ _____ _____    ______ ____
ROOT
ATOM      1  C   UNL     1      -0.342  -2.087   3.901  0.00  0.00    +0.135 C 
ENDROOT
BRANCH   1   9
ATOM      2  C   UNL     1       2.859  -5.977   2.959  0.00  0.00    +0.044 C 
ATOM      3  C   UNL     1       1.851  -5.205   2.148  0.00  0.00    -0.046 A 
ATOM      4  C   UNL     1       1.651  -5.493   0.804  0.00  0.00    +0.021 A 
ATOM      5  C   UNL     1       0.720  -4.767   0.088  0.00  0.00    +0.084 A 
ATOM      6  N   UNL     1       0.021  -3.808   0.665  0.00  0.00    -0.350 N 
ATOM      7  C   UNL     1       0.183  -3.504   1.943  0.00  0.00    +0.097 A 
ATOM      8  C   UNL     1       1.100  -4.198   2.726  0.00  0.00    +0.045 A 
ATOM      9  N   UNL     1      -0.575  -2.485   2.510  0.00  0.00    -0.320 N 
ATOM     10  H   UNL     1      -1.257  -2.039   1.985  0.00  0.00    +0.148 HD
ATOM     11  H   UNL     1      -0.627  -3.314   0.139  0.00  0.00    +0.166 HD
ENDBRANCH   1   9
BRANCH   1  12
ATOM     12  C   UNL     1       0.873  -1.198   3.972  0.00  0.00    +0.009 A 
ATOM     13  C   UNL     1       1.815  -1.372   4.969  0.00  0.00    -0.033 A 
ATOM     14  C   UNL     1       2.895  -0.556   5.004  0.00  0.00    -0.008 A 
ATOM     15  S   UNL     1       2.607   0.506   3.598  0.00  0.00    -0.078 S 
ATOM     16  C   UNL     1       1.066  -0.211   3.052  0.00  0.00    +0.078 A 
ATOM     17  C   UNL     1       4.045  -0.546   5.979  0.00  0.00    +0.052 C 
ATOM     18  C   UNL     1       1.641  -2.454   6.003  0.00  0.00    +0.045 C 
BRANCH  16  19
ATOM     19  N   UNL     1       0.265   0.146   1.965  0.00  0.00    -0.273 N 
ATOM     20  C   UNL     1       0.608   1.196   1.192  0.00  0.00    +0.284 C 
ATOM     21  O   UNL     1       1.662   1.775   1.384  0.00  0.00    -0.266 OA
ATOM     22  H   UNL     1      -0.537  -0.360   1.766  0.00  0.00    +0.156 HD
BRANCH  20  23
ATOM     23  C   UNL     1      -0.288   1.642   0.121  0.00  0.00    +0.189 A 
ATOM     24  C   UNL     1      -0.025   2.625  -0.789  0.00  0.00    +0.054 A 
ATOM     25  C   UNL     1      -1.151   2.717  -1.622  0.00  0.00    +0.042 A 
ATOM     26  C   UNL     1      -2.041   1.797  -1.189  0.00  0.00    +0.196 A 
ATOM     27  O   UNL     1      -1.516   1.148  -0.142  0.00  0.00    -0.458 OA
ENDBRANCH  20  23
ENDBRANCH  16  19
ENDBRANCH   1  12
BRANCH   1  28
ATOM     28  C   UNL     1      -1.544  -1.337   4.416  0.00  0.00    -0.023 A 
ATOM     29  C   UNL     1      -2.253  -0.504   3.571  0.00  0.00    +0.006 A 
ATOM     30  C   UNL     1      -3.355   0.184   4.043  0.00  0.00    +0.013 A 
ATOM     31  C   UNL     1      -3.749   0.037   5.361  0.00  0.00    +0.055 A 
ATOM     32  C   UNL     1      -3.040  -0.797   6.205  0.00  0.00    +0.013 A 
ATOM     33  C   UNL     1      -1.940  -1.487   5.731  0.00  0.00    +0.006 A 
BRANCH  31  34
ATOM     34  C   UNL     1      -4.950   0.788   5.876  0.00  0.00    +0.417 C 
ATOM     35  F   UNL     1      -6.099   0.011   5.691  0.00  0.00    -0.166 F 
ATOM     36  F   UNL     1      -4.783   1.056   7.239  0.00  0.00    -0.166 F 
ATOM     37  F   UNL     1      -5.083   1.992   5.176  0.00  0.00    -0.166 F 
ENDBRANCH  31  34
ENDBRANCH   1  28
TORSDOF 6
