REMARK  Name = ZINC22363152
REMARK  13 active torsions:
REMARK  status: ('A' for Active; 'I' for Inactive)
REMARK    1  A    between atoms: C_1  and  C_2
REMARK    2  A    between atoms: C_2  and  C_3
REMARK    3  A    between atoms: C_3  and  C_5
REMARK    4  A    between atoms: C_3  and  N_13
REMARK    5  A    between atoms: C_8  and  C_12
REMARK    6  A    between atoms: C_10  and  C_11
REMARK    7  A    between atoms: C_14  and  C_16
REMARK    8  A    between atoms: C_16  and  N_17
REMARK    9  A    between atoms: N_17  and  C_18
REMARK   10  A    between atoms: N_17  and  S_26
REMARK   11  A    between atoms: C_21  and  C_25
REMARK   12  A    between atoms: C_22  and  C_24
REMARK   13  A    between atoms: S_26  and  C_29
REMARK                            x       y       z     vdW  Elec       q    Type
REMARK                         _______ _______ _______ _____ _____    ______ ____
ROOT
ATOM      1  N   UNL     1      -1.197  -0.720   0.009  0.00  0.00    -0.194 N 
ENDROOT
BRANCH   1   2
ATOM      2  C   UNL     1       0.004  -0.007  -0.009  0.00  0.00    +0.052 A 
ATOM      3  C   UNL     1       1.060  -0.442  -0.801  0.00  0.00    +0.025 A 
ATOM      4  C   UNL     1       2.245   0.266  -0.817  0.00  0.00    +0.005 A 
ATOM      5  C   UNL     1       2.383   1.405  -0.045  0.00  0.00    -0.047 A 
ATOM      6  C   UNL     1       1.334   1.841   0.744  0.00  0.00    -0.046 A 
ATOM      7  C   UNL     1       0.145   1.138   0.764  0.00  0.00    +0.028 A 
ATOM      8  C   UNL     1       1.488   3.083   1.582  0.00  0.00    +0.044 C 
ATOM      9  C   UNL     1       3.678   2.175  -0.066  0.00  0.00    +0.044 C 
ENDBRANCH   1   2
BRANCH   1  10
ATOM     10  S   UNL     1      -1.212  -2.305   0.491  0.00  0.00    +0.075 S 
ATOM     11  O   UNL     1      -2.282  -2.930  -0.204  0.00  0.00    -0.150 OA
ATOM     12  O   UNL     1       0.128  -2.769   0.404  0.00  0.00    -0.150 OA
BRANCH  10  13
ATOM     13  C   UNL     1      -1.641  -2.325   2.200  0.00  0.00    +0.109 A 
ATOM     14  C   UNL     1      -0.651  -2.261   3.162  0.00  0.00    +0.030 A 
ATOM     15  C   UNL     1      -0.987  -2.271   4.503  0.00  0.00    +0.022 A 
ATOM     16  C   UNL     1      -2.315  -2.357   4.882  0.00  0.00    +0.041 A 
ATOM     17  C   UNL     1      -3.305  -2.427   3.919  0.00  0.00    +0.022 A 
ATOM     18  C   UNL     1      -2.968  -2.411   2.578  0.00  0.00    +0.030 A 
ATOM     19 CL   UNL     1      -2.737  -2.376   6.565  0.00  0.00    -0.084 Cl
ENDBRANCH  10  13
ENDBRANCH   1  10
BRANCH   1  20
ATOM     20  C   UNL     1      -2.443  -0.067  -0.398  0.00  0.00    +0.227 C 
BRANCH  20  22
ATOM     21  N   UNL     1      -3.663   0.392  -2.501  0.00  0.00    -0.307 N 
ATOM     22  C   UNL     1      -2.586  -0.147  -1.897  0.00  0.00    +0.233 C 
ATOM     23  O   UNL     1      -1.730  -0.696  -2.559  0.00  0.00    -0.274 OA
ATOM     24  H   UNL     1      -4.439   0.890  -1.900  0.00  0.00    +0.149 HD
BRANCH  21  25
ATOM     25  C   UNL     1      -3.802   0.314  -3.957  0.00  0.00    +0.103 C 
BRANCH  25  26
ATOM     26  C   UNL     1      -5.260   0.399  -4.328  0.00  0.00    -0.024 A 
ATOM     27  C   UNL     1      -6.154   1.025  -3.479  0.00  0.00    +0.006 A 
ATOM     28  C   UNL     1      -7.491   1.103  -3.820  0.00  0.00    +0.004 A 
ATOM     29  C   UNL     1      -7.935   0.556  -5.009  0.00  0.00    -0.050 A 
ATOM     30  C   UNL     1      -7.041  -0.068  -5.859  0.00  0.00    +0.007 A 
ATOM     31  C   UNL     1      -5.702  -0.143  -5.520  0.00  0.00    -0.045 A 
ATOM     32  C   UNL     1      -4.727  -0.819  -6.448  0.00  0.00    +0.044 C 
ATOM     33  C   UNL     1      -9.393   0.640  -5.380  0.00  0.00    +0.044 C 
ENDBRANCH  25  26
BRANCH  25  35
ATOM     34  C   UNL     1      -1.545   1.319  -4.331  0.00  0.00    +0.006 C 
ATOM     35  C   UNL     1      -3.042   1.474  -4.604  0.00  0.00    +0.024 C 
ENDBRANCH  25  35
ENDBRANCH  21  25
ENDBRANCH  20  22
ENDBRANCH   1  20
TORSDOF 8
