REMARK  Name = ZINC63140344
REMARK  6 active torsions:
REMARK  status: ('A' for Active; 'I' for Inactive)
REMARK    1  A    between atoms: C_1  and  C_2
REMARK    2  A    between atoms: C_2  and  O_3
REMARK    3  A    between atoms: O_3  and  C_4
REMARK    4  A    between atoms: C_9  and  C_10
REMARK    5  A    between atoms: N_29  and  C_32
REMARK    6  A    between atoms: C_32  and  C_33
REMARK                            x       y       z     vdW  Elec       q    Type
REMARK                         _______ _______ _______ _____ _____    ______ ____
ROOT
ATOM      1  C   UNL     1      -3.984  -1.437  -0.036  0.00  0.00    +0.137 C 
ATOM      2  C   UNL     1      -4.323  -1.022   1.399  0.00  0.00    +0.131 C 
ATOM      3  C   UNL     1      -4.843  -2.267   2.104  0.00  0.00    -0.034 C 
ATOM      4  C   UNL     1      -4.085  -2.432   3.182  0.00  0.00    -0.001 A 
ATOM      5  C   UNL     1      -4.144  -3.408   4.282  0.00  0.00    +0.010 A 
ATOM      6  C   UNL     1      -3.184  -3.294   5.237  0.00  0.00    +0.001 A 
ATOM      7  C   UNL     1      -2.182  -2.319   5.208  0.00  0.00    +0.002 A 
ATOM      8  C   UNL     1      -2.054  -1.379   4.238  0.00  0.00    +0.026 A 
ATOM      9  C   UNL     1      -3.009  -1.393   3.180  0.00  0.00    +0.043 A 
ATOM     10  N   UNL     1      -3.135  -0.592   2.139  0.00  0.00    -0.375 N 
ATOM     11  C   UNL     1      -5.958  -3.111   1.538  0.00  0.00    +0.065 C 
ATOM     12  C   UNL     1      -5.589  -3.399   0.071  0.00  0.00    +0.167 C 
ATOM     13  N   UNL     1      -5.150  -2.168  -0.581  0.00  0.00    -0.279 N 
ATOM     14  C   UNL     1      -5.760  -1.662  -1.659  0.00  0.00    +0.234 C 
ATOM     15  O   UNL     1      -5.329  -0.623  -2.114  0.00  0.00    -0.274 OA
ATOM     16  C   UNL     1      -6.931  -2.285  -2.342  0.00  0.00    +0.204 C 
ATOM     17  N   UNL     1      -7.342  -3.526  -1.707  0.00  0.00    -0.287 N 
ATOM     18  C   UNL     1      -6.749  -4.033  -0.624  0.00  0.00    +0.237 C 
ATOM     19  O   UNL     1      -7.177  -5.077  -0.177  0.00  0.00    -0.274 OA
ATOM     20  H   UNL     1      -2.551   0.143   1.897  0.00  0.00    +0.160 HD
ENDROOT
BRANCH   1  26
ATOM     21  C   UNL     1      -1.633  -1.960  -0.734  0.00  0.00    +0.125 A 
ATOM     22  C   UNL     1      -0.518  -2.785  -0.728  0.00  0.00    +0.046 A 
ATOM     23  C   UNL     1      -0.546  -3.977  -0.032  0.00  0.00    +0.004 A 
ATOM     24  C   UNL     1      -1.685  -4.349   0.659  0.00  0.00    +0.001 A 
ATOM     25  C   UNL     1      -2.798  -3.529   0.654  0.00  0.00    +0.009 A 
ATOM     26  C   UNL     1      -2.773  -2.333  -0.036  0.00  0.00    +0.017 A 
BRANCH  21  27
ATOM     27  O   UNL     1      -1.608  -0.786  -1.418  0.00  0.00    -0.492 OA
BRANCH  27  29
ATOM     28  C   UNL     1      -0.561   0.882  -2.819  0.00  0.00    +0.048 C 
ATOM     29  C   UNL     1      -0.402  -0.467  -2.114  0.00  0.00    +0.225 C 
ENDBRANCH  27  29
ENDBRANCH  21  27
ENDBRANCH   1  26
BRANCH  17  30
ATOM     30  C   UNL     1      -8.471  -4.259  -2.285  0.00  0.00    +0.145 C 
BRANCH  30  31
ATOM     31  C   UNL     1      -9.762  -3.710  -1.733  0.00  0.00    -0.012 A 
ATOM     32  C   UNL     1     -10.364  -4.321  -0.649  0.00  0.00    +0.006 A 
ATOM     33  C   UNL     1     -11.548  -3.818  -0.143  0.00  0.00    +0.000 A 
ATOM     34  C   UNL     1     -12.130  -2.704  -0.720  0.00  0.00    +0.001 A 
ATOM     35  C   UNL     1     -11.528  -2.093  -1.803  0.00  0.00    +0.020 A 
ATOM     36  C   UNL     1     -10.340  -2.593  -2.307  0.00  0.00    +0.046 A 
ATOM     37 CL   UNL     1      -9.580  -1.822  -3.664  0.00  0.00    -0.083 Cl
ENDBRANCH  30  31
ENDBRANCH  17  30
TORSDOF 5
