REMARK  Name = ZINC09668416
REMARK  8 active torsions:
REMARK  status: ('A' for Active; 'I' for Inactive)
REMARK    1  A    between atoms: C_1  and  O_2
REMARK    2  A    between atoms: O_2  and  C_3
REMARK    3  A    between atoms: C_6  and  O_36
REMARK    4  A    between atoms: C_7  and  C_9
REMARK    5  A    between atoms: C_10  and  C_19
REMARK    6  A    between atoms: N_29  and  C_30
REMARK    7  A    between atoms: C_30  and  C_31
REMARK    8  A    between atoms: O_36  and  C_37
REMARK                            x       y       z     vdW  Elec       q    Type
REMARK                         _______ _______ _______ _____ _____    ______ ____
ROOT
ATOM      1  C   UNL     1      -3.244  -0.513  -1.251  0.00  0.00    +0.056 A 
ATOM      2  C   UNL     1      -1.920  -0.809  -1.228  0.00  0.00    +0.011 A 
ATOM      3  C   UNL     1      -1.529  -1.119  -2.603  0.00  0.00    +0.006 A 
ATOM      4  C   UNL     1      -0.325  -1.495  -3.205  0.00  0.00    +0.010 A 
ATOM      5  C   UNL     1      -0.282  -1.720  -4.552  0.00  0.00    +0.001 A 
ATOM      6  C   UNL     1      -1.425  -1.579  -5.327  0.00  0.00    +0.002 A 
ATOM      7  C   UNL     1      -2.623  -1.210  -4.754  0.00  0.00    +0.026 A 
ATOM      8  C   UNL     1      -2.691  -0.976  -3.385  0.00  0.00    +0.047 A 
ATOM      9  N   UNL     1      -3.714  -0.604  -2.540  0.00  0.00    -0.354 N 
ATOM     10  H   UNL     1      -4.629  -0.435  -2.813  0.00  0.00    +0.166 HD
ENDROOT
BRANCH   2  11
ATOM     11  C   UNL     1      -1.024  -0.823  -0.016  0.00  0.00    +0.141 C 
ATOM     12  C   UNL     1      -0.129   0.391  -0.020  0.00  0.00    -0.010 A 
ATOM     13  C   UNL     1      -0.376   1.744   0.010  0.00  0.00    +0.006 A 
ATOM     14  C   UNL     1       0.680   2.640  -0.003  0.00  0.00    +0.000 A 
ATOM     15  C   UNL     1       1.984   2.178  -0.046  0.00  0.00    +0.001 A 
ATOM     16  C   UNL     1       2.242   0.823  -0.076  0.00  0.00    +0.013 A 
ATOM     17  C   UNL     1       1.183  -0.086  -0.063  0.00  0.00    +0.042 A 
ATOM     18  C   UNL     1       1.139  -1.561  -0.086  0.00  0.00    +0.248 C 
ATOM     19  O   UNL     1       2.115  -2.284  -0.125  0.00  0.00    -0.270 OA
ATOM     20  N   UNL     1      -0.135  -1.989  -0.060  0.00  0.00    -0.279 N 
BRANCH  20  21
ATOM     21  C   UNL     1      -0.565  -3.390  -0.072  0.00  0.00    +0.183 C 
BRANCH  21  22
ATOM     22  C   UNL     1      -0.674  -3.894   1.344  0.00  0.00    +0.122 A 
ATOM     23  C   UNL     1      -1.774  -3.838   2.116  0.00  0.00    +0.046 A 
ATOM     24  C   UNL     1      -1.433  -4.420   3.358  0.00  0.00    +0.041 A 
ATOM     25  C   UNL     1      -0.145  -4.797   3.271  0.00  0.00    +0.195 A 
ATOM     26  O   UNL     1       0.308  -4.481   2.047  0.00  0.00    -0.466 OA
ENDBRANCH  21  22
ENDBRANCH  20  21
ENDBRANCH   2  11
BRANCH   1  31
ATOM     27  C   UNL     1      -5.212  -0.773   1.941  0.00  0.00    +0.121 A 
ATOM     28  C   UNL     1      -5.578   0.551   2.143  0.00  0.00    +0.049 A 
ATOM     29  C   UNL     1      -5.187   1.526   1.246  0.00  0.00    +0.050 A 
ATOM     30  C   UNL     1      -4.422   1.189   0.141  0.00  0.00    +0.129 A 
ATOM     31  C   UNL     1      -4.055  -0.145  -0.071  0.00  0.00    +0.044 A 
ATOM     32  C   UNL     1      -4.453  -1.125   0.839  0.00  0.00    +0.059 A 
BRANCH  27  34
ATOM     33  C   UNL     1      -6.383  -1.295   3.944  0.00  0.00    +0.277 C 
ATOM     34  O   UNL     1      -5.602  -1.727   2.828  0.00  0.00    -0.495 OA
ENDBRANCH  27  34
BRANCH  30  35
ATOM     35  O   UNL     1      -4.034   2.151  -0.738  0.00  0.00    -0.494 OA
ATOM     36  C   UNL     1      -4.350   3.503  -0.402  0.00  0.00    +0.277 C 
ENDBRANCH  30  35
ENDBRANCH   1  31
TORSDOF 6
