REMARK  Name = ZINC09780826
REMARK  6 active torsions:
REMARK  status: ('A' for Active; 'I' for Inactive)
REMARK    1  A    between atoms: C_1  and  C_2
REMARK    2  A    between atoms: C_5  and  C_8
REMARK    3  A    between atoms: C_10  and  N_13
REMARK    4  A    between atoms: C_14  and  C_16
REMARK    5  A    between atoms: C_16  and  N_59
REMARK    6  A    between atoms: C_20  and  C_22
REMARK                            x       y       z     vdW  Elec       q    Type
REMARK                         _______ _______ _______ _____ _____    ______ ____
ROOT
ATOM      1  C   UNL     1      -5.665   6.159   0.062  0.00  0.00    +0.020 C 
ENDROOT
BRANCH   1   6
ATOM      2  C   UNL     1      -7.530   5.308   1.359  0.00  0.00    -0.077 C 
ATOM      3  C   UNL     1      -8.640   6.220   1.921  0.00  0.00    -0.020 C 
ATOM      4  C   UNL     1      -9.180   6.936   0.655  0.00  0.00    -0.013 C 
ATOM      5  C   UNL     1      -7.887   7.112  -0.180  0.00  0.00    -0.037 C 
ATOM      6  N   UNL     1      -7.123   5.871   0.061  0.00  0.00    +0.390 N 
ATOM      7  H   UNL     1      -7.331   5.195  -0.683  0.00  0.00    -0.080 HD
BRANCH   5   8
ATOM      8  C   UNL     1      -8.221   7.237  -1.644  0.00  0.00    -0.057 A 
ATOM      9  C   UNL     1      -8.587   6.116  -2.365  0.00  0.00    +0.006 A 
ATOM     10  C   UNL     1      -8.895   6.223  -3.710  0.00  0.00    +0.049 A 
ATOM     11  C   UNL     1      -8.835   7.459  -4.331  0.00  0.00    +0.162 A 
ATOM     12  C   UNL     1      -8.468   8.584  -3.607  0.00  0.00    +0.162 A 
ATOM     13  C   UNL     1      -8.166   8.474  -2.260  0.00  0.00    +0.051 A 
ATOM     14  O   UNL     1      -8.412   9.798  -4.229  0.00  0.00    -0.488 OA
ATOM     15  C   UNL     1      -9.665  10.345  -4.644  0.00  0.00    +0.232 C 
ATOM     16  C   UNL     1     -10.070   9.794  -6.002  0.00  0.00    +0.082 C 
ATOM     17  C   UNL     1     -10.333   8.296  -5.963  0.00  0.00    +0.232 C 
ATOM     18  O   UNL     1      -9.136   7.579  -5.657  0.00  0.00    -0.488 OA
ENDBRANCH   5   8
ENDBRANCH   1   6
BRANCH   1  20
ATOM     19  N   UNL     1      -3.554   4.870   0.045  0.00  0.00    -0.256 N 
ATOM     20  C   UNL     1      -4.902   4.860   0.051  0.00  0.00    +0.203 C 
ATOM     21  O   UNL     1      -5.501   3.805   0.049  0.00  0.00    -0.277 OA
ATOM     22  H   UNL     1      -3.076   5.713   0.047  0.00  0.00    +0.158 HD
BRANCH  19  25
ATOM     23  C   UNL     1      -1.311   2.116   0.020  0.00  0.00    +0.115 A 
ATOM     24  C   UNL     1      -1.497   3.523   0.028  0.00  0.00    +0.097 A 
ATOM     25  C   UNL     1      -2.852   3.673   0.035  0.00  0.00    +0.224 A 
ATOM     26  O   UNL     1      -3.372   2.436   0.031  0.00  0.00    -0.339 OA
ATOM     27  N   UNL     1      -2.511   1.587   0.017  0.00  0.00    -0.076 NA
BRANCH  23  32
ATOM     28  C   UNL     1       3.710  -0.706  -0.037  0.00  0.00    +0.044 C 
ATOM     29  C   UNL     1       2.396   0.033  -0.021  0.00  0.00    -0.050 A 
ATOM     30  C   UNL     1       1.208  -0.675  -0.013  0.00  0.00    +0.004 A 
ATOM     31  C   UNL     1       0.002  -0.004   0.002  0.00  0.00    +0.010 A 
ATOM     32  C   UNL     1      -0.017   1.389   0.010  0.00  0.00    +0.004 A 
ATOM     33  C   UNL     1       1.183   2.097   0.002  0.00  0.00    +0.010 A 
ATOM     34  C   UNL     1       2.383   1.416  -0.013  0.00  0.00    +0.004 A 
ENDBRANCH  23  32
ENDBRANCH  19  25
ENDBRANCH   1  20
TORSDOF 5
