REMARK  Name = ZINC43746811
REMARK  5 active torsions:
REMARK  status: ('A' for Active; 'I' for Inactive)
REMARK    1  A    between atoms: C_1  and  C_2
REMARK    2  A    between atoms: C_6  and  O_38
REMARK    3  A    between atoms: C_7  and  O_37
REMARK    4  A    between atoms: C_12  and  C_13
REMARK    5  A    between atoms: C_13  and  C_14
REMARK                            x       y       z     vdW  Elec       q    Type
REMARK                         _______ _______ _______ _____ _____    ______ ____
ROOT
ATOM      1  C   UNL     1      -1.387   0.130   2.999  0.00  0.00    +0.221 C 
ATOM      2  O   UNL     1      -2.223  -0.602   2.513  0.00  0.00    -0.275 OA
ATOM      3  N   UNL     1      -1.629   0.744   4.174  0.00  0.00    -0.294 N 
ATOM      4  C   UNL     1      -0.525   1.220   5.021  0.00  0.00    +0.109 C 
ATOM      5  C   UNL     1      -0.702   2.714   5.297  0.00  0.00    +0.023 C 
ATOM      6  C   UNL     1      -2.059   2.962   5.965  0.00  0.00    +0.034 C 
ATOM      7  C   UNL     1      -3.141   2.396   5.061  0.00  0.00    -0.053 C 
ATOM      8  C   UNL     1      -4.121   3.164   4.692  0.00  0.00    -0.024 C 
ATOM      9  C   UNL     1      -5.219   2.707   3.770  0.00  0.00    -0.002 C 
ATOM     10  C   UNL     1      -5.392   1.190   3.912  0.00  0.00    +0.010 C 
ATOM     11  C   UNL     1      -4.036   0.539   3.623  0.00  0.00    -0.002 C 
ATOM     12  C   UNL     1      -3.004   0.963   4.642  0.00  0.00    +0.103 C 
ATOM     13  C   UNL     1      -3.562   0.974   2.236  0.00  0.00    -0.073 C 
ATOM     14  N   UNL     1      -4.603   1.780   1.583  0.00  0.00    +0.382 N 
ATOM     15  C   UNL     1      -4.828   3.051   2.327  0.00  0.00    -0.062 C 
ATOM     16  C   UNL     1      -5.966   3.853   1.689  0.00  0.00    -0.015 C 
ATOM     17  C   UNL     1      -5.601   4.196   0.243  0.00  0.00    -0.003 C 
ATOM     18  C   UNL     1      -5.312   2.898  -0.518  0.00  0.00    -0.019 C 
ATOM     19  C   UNL     1      -4.179   2.079   0.209  0.00  0.00    -0.078 C 
ATOM     20  H   UNL     1      -5.466   1.258   1.561  0.00  0.00    -0.081 HD
ENDROOT
BRANCH   1  21
ATOM     21  C   UNL     1      -0.076   0.352   2.289  0.00  0.00    +0.138 C 
BRANCH  21  33
ATOM     22  C   UNL     1      -0.844   1.589  -0.205  0.00  0.00    +0.045 C 
ATOM     23  C   UNL     1      -0.420   0.143  -0.162  0.00  0.00    -0.029 A 
ATOM     24  C   UNL     1      -0.381  -0.665  -1.383  0.00  0.00    +0.025 A 
ATOM     25  C   UNL     1      -0.735  -0.119  -2.621  0.00  0.00    +0.015 A 
ATOM     26  C   UNL     1      -0.690  -0.893  -3.744  0.00  0.00    +0.050 A 
ATOM     27  C   UNL     1      -0.293  -2.226  -3.668  0.00  0.00    +0.162 A 
ATOM     28  C   UNL     1       0.062  -2.787  -2.449  0.00  0.00    +0.202 A 
ATOM     29  C   UNL     1       0.022  -2.010  -1.296  0.00  0.00    +0.184 A 
ATOM     30  O   UNL     1       0.364  -2.534  -0.098  0.00  0.00    -0.418 OA
ATOM     31  C   UNL     1       0.330  -1.798   1.024  0.00  0.00    +0.341 A 
ATOM     32  O   UNL     1       0.648  -2.313   2.081  0.00  0.00    -0.245 OA
ATOM     33  C   UNL     1      -0.058  -0.443   1.008  0.00  0.00    +0.049 A 
BRANCH  28  34
ATOM     34  O   UNL     1       0.448  -4.090  -2.382  0.00  0.00    -0.501 OA
ATOM     35  H   UNL     1       1.398  -4.225  -2.497  0.00  0.00    +0.292 HD
ENDBRANCH  28  34
BRANCH  27  36
ATOM     36  O   UNL     1      -0.254  -2.983  -4.795  0.00  0.00    -0.503 OA
ATOM     37  H   UNL     1       0.596  -2.960  -5.255  0.00  0.00    +0.292 HD
ENDBRANCH  27  36
ENDBRANCH  21  33
ENDBRANCH   1  21
TORSDOF 4
