REMARK  Name = ZINC09359823
REMARK  4 active torsions:
REMARK  status: ('A' for Active; 'I' for Inactive)
REMARK    1  A    between atoms: C_1  and  C_2
REMARK    2  A    between atoms: N_23  and  C_26
REMARK    3  A    between atoms: C_30  and  N_33
REMARK    4  A    between atoms: C_31  and  C_32
REMARK                            x       y       z     vdW  Elec       q    Type
REMARK                         _______ _______ _______ _____ _____    ______ ____
ROOT
ATOM      1  C   UNL     1      -5.114   0.872   3.192  0.00  0.00    +0.045 C 
ATOM      2  C   UNL     1      -4.328   1.718   2.223  0.00  0.00    -0.029 A 
ATOM      3  C   UNL     1      -4.973   2.674   1.466  0.00  0.00    +0.005 A 
ATOM      4  C   UNL     1      -4.261   3.455   0.574  0.00  0.00    +0.001 A 
ATOM      5  C   UNL     1      -2.895   3.276   0.441  0.00  0.00    +0.004 A 
ATOM      6  C   UNL     1      -2.247   2.325   1.196  0.00  0.00    -0.027 A 
ATOM      7  C   UNL     1      -2.954   1.532   2.096  0.00  0.00    +0.039 A 
ATOM      8  N   UNL     1      -2.089   0.645   2.740  0.00  0.00    -0.286 N 
ATOM      9  C   UNL     1      -0.815   0.788   2.327  0.00  0.00    +0.212 C 
ATOM     10  O   UNL     1       0.146   0.155   2.711  0.00  0.00    -0.277 OA
ATOM     11  C   UNL     1      -0.814   1.885   1.298  0.00  0.00    +0.053 C 
ATOM     12  C   UNL     1      -0.284   1.387  -0.051  0.00  0.00    +0.089 C 
ATOM     13  C   UNL     1       1.198   1.851  -0.089  0.00  0.00    +0.074 C 
ATOM     14  C   UNL     1       1.424   2.579   1.249  0.00  0.00    -0.054 C 
ATOM     15  C   UNL     1      -0.273   4.211   0.928  0.00  0.00    -0.076 C 
ATOM     16  C   UNL     1       1.045   4.834   0.440  0.00  0.00    -0.020 C 
ATOM     17  C   UNL     1       2.157   3.912   0.985  0.00  0.00    -0.016 C 
ATOM     18  C   UNL     1       1.971   0.552  -0.090  0.00  0.00    +0.228 C 
ATOM     19  O   UNL     1       3.179   0.456  -0.118  0.00  0.00    -0.275 OA
ATOM     20  N   UNL     1       1.115  -0.475  -0.057  0.00  0.00    -0.210 N 
ATOM     21  C   UNL     1      -0.176  -0.122  -0.032  0.00  0.00    +0.229 C 
ATOM     22  O   UNL     1      -1.112  -0.891   0.001  0.00  0.00    -0.275 OA
ATOM     23  H   UNL     1      -2.373   0.001   3.407  0.00  0.00    +0.155 HD
ATOM     24  N   UNL     1       0.089   2.975   1.660  0.00  0.00    +0.395 N 
ATOM     25  H   UNL     1       0.055   3.143   2.672  0.00  0.00    -0.079 HD
ENDROOT
BRANCH  20  26
ATOM     26  C   UNL     1       1.534  -1.813  -0.047  0.00  0.00    +0.049 A 
ATOM     27  C   UNL     1       1.865  -2.430   1.152  0.00  0.00    +0.024 A 
ATOM     28  C   UNL     1       2.272  -3.749   1.158  0.00  0.00    +0.004 A 
ATOM     29  C   UNL     1       2.363  -4.453  -0.029  0.00  0.00    +0.033 A 
ATOM     30  C   UNL     1       2.040  -3.839  -1.225  0.00  0.00    +0.131 A 
ATOM     31  C   UNL     1       1.626  -2.521  -1.238  0.00  0.00    +0.002 A 
ATOM     32  C   UNL     1       1.275  -1.853  -2.542  0.00  0.00    +0.048 C 
BRANCH  30  33
ATOM     33  N   UNL     1       2.138  -4.595  -2.494  0.00  0.00    +0.057 N 
ATOM     34  O   UNL     1       2.387  -5.787  -2.475  0.00  0.00    -0.126 OA
ATOM     35  O   UNL     1       1.968  -4.026  -3.557  0.00  0.00    -0.126 OA
ENDBRANCH  30  33
ENDBRANCH  20  26
TORSDOF 2
