REMARK  Name = ZINC01893682
REMARK  8 active torsions:
REMARK  status: ('A' for Active; 'I' for Inactive)
REMARK    1  A    between atoms: C_1  and  C_2
REMARK    2  A    between atoms: C_2  and  O_3
REMARK    3  A    between atoms: O_3  and  C_4
REMARK    4  A    between atoms: C_9  and  C_10
REMARK    5  A    between atoms: C_12  and  C_36
REMARK    6  A    between atoms: C_36  and  C_38
REMARK    7  A    between atoms: C_41  and  O_44
REMARK    8  A    between atoms: O_44  and  C_45
REMARK                            x       y       z     vdW  Elec       q    Type
REMARK                         _______ _______ _______ _____ _____    ______ ____
ROOT
ATOM      1  C   UNL     1       2.054  -1.309  -3.551  0.00  0.00    +0.074 C 
ATOM      2  C   UNL     1       1.517  -1.789  -4.930  0.00  0.00    +0.154 C 
ATOM      3  N   UNL     1       2.524  -1.308  -5.879  0.00  0.00    -0.311 N 
ATOM      4  C   UNL     1       2.370  -0.841  -7.178  0.00  0.00    +0.038 A 
ATOM      5  C   UNL     1       1.426  -1.318  -8.059  0.00  0.00    +0.024 A 
ATOM      6  C   UNL     1       1.364  -0.798  -9.342  0.00  0.00    +0.002 A 
ATOM      7  C   UNL     1       2.244   0.195  -9.738  0.00  0.00    +0.001 A 
ATOM      8  C   UNL     1       3.191   0.688  -8.861  0.00  0.00    +0.010 A 
ATOM      9  C   UNL     1       3.260   0.182  -7.569  0.00  0.00    -0.004 A 
ATOM     10  C   UNL     1       4.223   0.698  -6.577  0.00  0.00    +0.007 C 
ATOM     11  C   UNL     1       4.502   0.016  -5.470  0.00  0.00    -0.003 C 
ATOM     12  C   UNL     1       3.841  -1.309  -5.204  0.00  0.00    +0.119 C 
ATOM     13  C   UNL     1       3.573  -1.522  -3.714  0.00  0.00    +0.127 C 
ATOM     14  C   UNL     1       4.345  -0.548  -2.865  0.00  0.00    +0.180 C 
ATOM     15  O   UNL     1       4.291   0.662  -2.921  0.00  0.00    -0.291 OA
ATOM     16  C   UNL     1       5.172  -1.345  -1.957  0.00  0.00    +0.029 A 
ATOM     17  C   UNL     1       6.071  -0.917  -0.974  0.00  0.00    +0.012 A 
ATOM     18  C   UNL     1       6.731  -1.902  -0.251  0.00  0.00    +0.001 A 
ATOM     19  C   UNL     1       6.520  -3.247  -0.481  0.00  0.00    +0.001 A 
ATOM     20  C   UNL     1       5.633  -3.699  -1.450  0.00  0.00    +0.012 A 
ATOM     21  C   UNL     1       4.955  -2.727  -2.194  0.00  0.00    +0.029 A 
ATOM     22  C   UNL     1       3.974  -2.901  -3.267  0.00  0.00    +0.180 C 
ATOM     23  O   UNL     1       3.565  -3.953  -3.710  0.00  0.00    -0.291 OA
ENDROOT
BRANCH   1  29
ATOM     24  C   UNL     1       1.252  -1.596  -1.192  0.00  0.00    +0.124 A 
ATOM     25  C   UNL     1       0.743  -2.381  -0.168  0.00  0.00    +0.046 A 
ATOM     26  C   UNL     1       0.498  -3.723  -0.384  0.00  0.00    +0.004 A 
ATOM     27  C   UNL     1       0.759  -4.285  -1.620  0.00  0.00    +0.001 A 
ATOM     28  C   UNL     1       1.266  -3.505  -2.643  0.00  0.00    +0.007 A 
ATOM     29  C   UNL     1       1.507  -2.160  -2.434  0.00  0.00    +0.001 A 
BRANCH  24  30
ATOM     30  O   UNL     1       1.493  -0.275  -0.983  0.00  0.00    -0.492 OA
BRANCH  30  32
ATOM     31  C   UNL     1       1.539   1.730   0.365  0.00  0.00    +0.048 C 
ATOM     32  C   UNL     1       1.206   0.237   0.320  0.00  0.00    +0.225 C 
ENDBRANCH  30  32
ENDBRANCH  24  30
ENDBRANCH   1  29
BRANCH   2  33
ATOM     33  C   UNL     1       0.173  -1.171  -5.219  0.00  0.00    +0.184 C 
ATOM     34  O   UNL     1       0.020   0.027  -5.108  0.00  0.00    -0.290 OA
BRANCH  33  35
ATOM     35  C   UNL     1      -0.951  -2.020  -5.636  0.00  0.00    +0.020 A 
ATOM     36  C   UNL     1      -0.812  -3.413  -5.648  0.00  0.00    +0.015 A 
ATOM     37  C   UNL     1      -1.865  -4.201  -6.038  0.00  0.00    +0.046 A 
ATOM     38  C   UNL     1      -3.068  -3.619  -6.420  0.00  0.00    +0.120 A 
ATOM     39  C   UNL     1      -3.211  -2.235  -6.410  0.00  0.00    +0.046 A 
ATOM     40  C   UNL     1      -2.167  -1.439  -6.016  0.00  0.00    +0.015 A 
BRANCH  38  41
ATOM     41  O   UNL     1      -4.106  -4.403  -6.805  0.00  0.00    -0.495 OA
ATOM     42  C   UNL     1      -5.314  -3.740  -7.185  0.00  0.00    +0.277 C 
ENDBRANCH  38  41
ENDBRANCH  33  35
ENDBRANCH   2  33
TORSDOF 6
