REMARK  Name = ZINC33058304
REMARK  9 active torsions:
REMARK  status: ('A' for Active; 'I' for Inactive)
REMARK    1  A    between atoms: C_1  and  C_2
REMARK    2  A    between atoms: C_5  and  N_9
REMARK    3  A    between atoms: C_6  and  C_8
REMARK    4  A    between atoms: N_9  and  C_10
REMARK    5  A    between atoms: C_11  and  S_27
REMARK    6  A    between atoms: C_12  and  N_26
REMARK    7  A    between atoms: C_13  and  C_15
REMARK    8  A    between atoms: C_15  and  C_17
REMARK    9  A    between atoms: S_27  and  C_30
REMARK                            x       y       z     vdW  Elec       q    Type
REMARK                         _______ _______ _______ _____ _____    ______ ____
ROOT
ATOM      1  C   UNL     1       2.274  -2.991   0.109  0.00  0.00    +0.098 A 
ATOM      2  C   UNL     1       2.701  -4.223  -0.344  0.00  0.00    +0.143 A 
ATOM      3  C   UNL     1       4.049  -4.469  -0.426  0.00  0.00    +0.070 A 
ATOM      4  C   UNL     1       4.931  -3.452  -0.043  0.00  0.00    +0.084 A 
ATOM      5  S   UNL     1       3.812  -2.143   0.426  0.00  0.00    -0.066 S 
ENDROOT
BRANCH   3   6
ATOM      6  N   UNL     1       4.525  -5.696  -0.876  0.00  0.00    -0.355 N 
ATOM      7  H   UNL     1       5.609  -5.877  -0.936  0.00  0.00    +0.142 HD
ATOM      8  H   UNL     1       3.819  -6.485  -1.173  0.00  0.00    +0.142 HD
ENDBRANCH   3   6
BRANCH   2   9
ATOM      9  S   UNL     1       1.535  -5.460  -0.809  0.00  0.00    +0.029 S 
ATOM     10  O   UNL     1       2.162  -6.715  -0.581  0.00  0.00    -0.164 OA
ATOM     11  O   UNL     1       0.301  -5.104  -0.202  0.00  0.00    -0.164 OA
BRANCH   9  12
ATOM     12  C   UNL     1       1.298  -5.325  -2.550  0.00  0.00    +0.094 A 
ATOM     13  C   UNL     1       0.307  -4.501  -3.050  0.00  0.00    +0.027 A 
ATOM     14  C   UNL     1       0.124  -4.391  -4.416  0.00  0.00    +0.002 A 
ATOM     15  C   UNL     1       0.926  -5.113  -5.281  0.00  0.00    +0.000 A 
ATOM     16  C   UNL     1       1.914  -5.940  -4.780  0.00  0.00    +0.002 A 
ATOM     17  C   UNL     1       2.100  -6.046  -3.415  0.00  0.00    +0.027 A 
ENDBRANCH   9  12
ENDBRANCH   2   9
BRANCH   1  18
ATOM     18  N   UNL     1       0.979  -2.528   0.271  0.00  0.00    -0.307 N 
ATOM     19  H   UNL     1       0.129  -3.211   0.127  0.00  0.00    +0.153 HD
BRANCH  18  24
ATOM     20  C   UNL     1       0.059   2.890   1.671  0.00  0.00    +0.044 C 
ATOM     21  C   UNL     1       0.304   1.450   1.300  0.00  0.00    -0.050 A 
ATOM     22  C   UNL     1       1.464   1.097   0.634  0.00  0.00    +0.005 A 
ATOM     23  C   UNL     1       1.691  -0.221   0.291  0.00  0.00    +0.024 A 
ATOM     24  C   UNL     1       0.753  -1.194   0.616  0.00  0.00    +0.035 A 
ATOM     25  C   UNL     1      -0.411  -0.835   1.285  0.00  0.00    -0.029 A 
ATOM     26  C   UNL     1      -0.632   0.485   1.625  0.00  0.00    +0.008 A 
ATOM     27  C   UNL     1      -1.431  -1.887   1.640  0.00  0.00    +0.045 C 
ENDBRANCH  18  24
ENDBRANCH   1  18
BRANCH   4  28
ATOM     28  C   UNL     1       6.338  -3.457  -0.036  0.00  0.00    +0.202 C 
ATOM     29  O   UNL     1       6.945  -4.485  -0.286  0.00  0.00    -0.286 OA
BRANCH  28  30
ATOM     30  C   UNL     1       7.080  -2.217   0.275  0.00  0.00    +0.027 A 
ATOM     31  C   UNL     1       8.331  -2.287   0.893  0.00  0.00    +0.015 A 
ATOM     32  C   UNL     1       9.022  -1.130   1.182  0.00  0.00    +0.050 A 
ATOM     33  C   UNL     1       8.479   0.107   0.862  0.00  0.00    +0.166 A 
ATOM     34  C   UNL     1       7.229   0.183   0.245  0.00  0.00    +0.167 A 
ATOM     35  C   UNL     1       6.535  -0.974  -0.053  0.00  0.00    +0.061 A 
ATOM     36  O   UNL     1       6.925   1.498   0.039  0.00  0.00    -0.453 OA
ATOM     37  C   UNL     1       8.173   2.204   0.161  0.00  0.00    +0.466 C 
ATOM     38  O   UNL     1       8.953   1.373   1.041  0.00  0.00    -0.453 OA
ENDBRANCH  28  30
ENDBRANCH   4  28
TORSDOF 7
