REMARK  Name = ZINC04392491
REMARK  5 active torsions:
REMARK  status: ('A' for Active; 'I' for Inactive)
REMARK    1  A    between atoms: C_1  and  C_2
REMARK    2  A    between atoms: C_9  and  N_14
REMARK    3  A    between atoms: C_10  and  C_11
REMARK    4  A    between atoms: C_15  and  C_17
REMARK    5  A    between atoms: C_17  and  C_18
REMARK                            x       y       z     vdW  Elec       q    Type
REMARK                         _______ _______ _______ _____ _____    ______ ____
ROOT
ATOM      1  C   UNL     1      -1.859  11.983   1.635  0.00  0.00    +0.008 C 
ATOM      2  C   UNL     1      -1.704  10.581   2.228  0.00  0.00    -0.009 C 
ATOM      3  C   UNL     1      -2.995  10.182   2.947  0.00  0.00    +0.008 C 
ATOM      4  C   UNL     1      -2.770   8.898   3.748  0.00  0.00    +0.037 C 
ATOM      5  C   UNL     1      -2.170   7.844   2.826  0.00  0.00    -0.023 A 
ATOM      6  C   UNL     1      -1.587   8.191   1.658  0.00  0.00    -0.004 A 
ATOM      7  S   UNL     1      -1.050   6.661   0.947  0.00  0.00    -0.077 S 
ATOM      8  C   UNL     1      -1.593   5.574   2.182  0.00  0.00    +0.084 A 
ATOM      9  C   UNL     1      -2.181   6.419   3.112  0.00  0.00    +0.068 A 
ATOM     10  C   UNL     1      -1.433   9.573   1.101  0.00  0.00    +0.046 C 
ENDROOT
BRANCH   9  11
ATOM     11  C   UNL     1      -2.787   5.895   4.340  0.00  0.00    +0.244 C 
ATOM     12  O   UNL     1      -2.114   5.775   5.347  0.00  0.00    -0.270 OA
ATOM     13  N   UNL     1      -4.089   5.547   4.354  0.00  0.00    -0.325 N 
ATOM     14  H   UNL     1      -4.625   5.643   3.551  0.00  0.00    +0.145 HD
ATOM     15  H   UNL     1      -4.490   5.200   5.166  0.00  0.00    +0.145 HD
ENDBRANCH   9  11
BRANCH   8  16
ATOM     16  N   UNL     1      -1.473   4.193   2.228  0.00  0.00    -0.279 N 
ATOM     17  C   UNL     1      -0.868   3.535   1.219  0.00  0.00    +0.218 C 
ATOM     18  O   UNL     1      -0.429   4.151   0.271  0.00  0.00    -0.275 OA
ATOM     19  H   UNL     1      -1.825   3.700   2.986  0.00  0.00    +0.155 HD
BRANCH  17  20
ATOM     20  C   UNL     1      -0.738   2.035   1.268  0.00  0.00    +0.101 C 
BRANCH  20  21
ATOM     21  C   UNL     1      -0.019   1.544   0.011  0.00  0.00    +0.020 C 
ATOM     22  C   UNL     1       1.419   2.087  -0.000  0.00  0.00    +0.028 C 
ATOM     23  C   UNL     1       2.215   1.332  -1.103  0.00  0.00    +0.166 C 
ATOM     24  S   UNL     1       1.582  -0.382  -0.860  0.00  0.00    -0.031 S 
ATOM     25  O   UNL     1       2.444  -1.070   0.035  0.00  0.00    -0.174 OA
ATOM     26  O   UNL     1       1.292  -0.952  -2.129  0.00  0.00    -0.174 OA
ATOM     27  C   UNL     1       0.002  -0.004   0.002  0.00  0.00    +0.170 C 
ENDBRANCH  20  21
ENDBRANCH  17  20
ENDBRANCH   8  16
TORSDOF 4
