REMARK  Name = ZINC20711016
REMARK  8 active torsions:
REMARK  status: ('A' for Active; 'I' for Inactive)
REMARK    1  A    between atoms: C_4  and  C_7
REMARK    2  A    between atoms: C_7  and  O_8
REMARK    3  A    between atoms: O_8  and  C_9
REMARK    4  A    between atoms: C_14  and  C_15
REMARK    5  A    between atoms: C_26  and  S_31
REMARK    6  A    between atoms: S_31  and  N_34
REMARK    7  A    between atoms: N_34  and  C_35
REMARK    8  A    between atoms: C_35  and  C_36
REMARK                            x       y       z     vdW  Elec       q    Type
REMARK                         _______ _______ _______ _____ _____    ______ ____
ROOT
ATOM      1  C   UNL     1       0.658   3.241   2.091  0.00  0.00    +0.108 C 
ATOM      2  C   UNL     1       0.814   3.219   0.568  0.00  0.00    +0.029 C 
ATOM      3  C   UNL     1      -0.608   3.132  -0.060  0.00  0.00    +0.033 C 
ATOM      4  C   UNL     1      -0.930   1.651  -0.003  0.00  0.00    -0.030 C 
ATOM      5  C   UNL     1       0.171   0.946   0.098  0.00  0.00    -0.023 C 
ATOM      6  C   UNL     1       1.376   1.857   0.117  0.00  0.00    +0.049 C 
ATOM      7  C   UNL     1       2.433   1.341   1.040  0.00  0.00    -0.018 A 
ATOM      8  C   UNL     1       3.215   0.261   0.594  0.00  0.00    +0.034 A 
ATOM      9  C   UNL     1       4.219  -0.246   1.394  0.00  0.00    +0.106 A 
ATOM     10  C   UNL     1       4.480   0.321   2.628  0.00  0.00    +0.030 A 
ATOM     11  C   UNL     1       3.730   1.397   3.059  0.00  0.00    +0.025 A 
ATOM     12  C   UNL     1       2.718   1.906   2.255  0.00  0.00    +0.031 A 
ATOM     13  N   UNL     1       1.967   2.996   2.707  0.00  0.00    -0.336 N 
ATOM     14  H   UNL     1       2.334   3.662   3.502  0.00  0.00    +0.147 HD
ENDROOT
BRANCH   1  20
ATOM     15  C   UNL     1      -1.664   2.453   2.612  0.00  0.00    +0.126 A 
ATOM     16  C   UNL     1      -2.554   1.460   2.998  0.00  0.00    +0.046 A 
ATOM     17  C   UNL     1      -2.089   0.194   3.294  0.00  0.00    +0.004 A 
ATOM     18  C   UNL     1      -0.738  -0.086   3.201  0.00  0.00    +0.001 A 
ATOM     19  C   UNL     1       0.150   0.899   2.812  0.00  0.00    +0.009 A 
ATOM     20  C   UNL     1      -0.310   2.167   2.515  0.00  0.00    +0.015 A 
BRANCH  15  21
ATOM     21  O   UNL     1      -2.119   3.701   2.326  0.00  0.00    -0.487 OA
BRANCH  21  22
ATOM     22  C   UNL     1      -3.526   3.923   2.448  0.00  0.00    +0.264 C 
BRANCH  22  26
ATOM     23  C   UNL     1      -4.420   7.977   1.441  0.00  0.00    +0.000 A 
ATOM     24  C   UNL     1      -4.424   7.004   0.459  0.00  0.00    +0.000 A 
ATOM     25  C   UNL     1      -4.135   5.692   0.785  0.00  0.00    +0.007 A 
ATOM     26  C   UNL     1      -3.841   5.353   2.092  0.00  0.00    -0.010 A 
ATOM     27  C   UNL     1      -3.842   6.325   3.075  0.00  0.00    +0.007 A 
ATOM     28  C   UNL     1      -4.128   7.638   2.749  0.00  0.00    +0.000 A 
ENDBRANCH  22  26
ENDBRANCH  21  22
ENDBRANCH  15  21
ENDBRANCH   1  20
BRANCH   9  29
ATOM     29  S   UNL     1       5.172  -1.621   0.841  0.00  0.00    +0.058 S 
ATOM     30  O   UNL     1       5.095  -1.623  -0.578  0.00  0.00    -0.153 OA
ATOM     31  O   UNL     1       6.410  -1.563   1.536  0.00  0.00    -0.153 OA
BRANCH  29  32
ATOM     32  N   UNL     1       4.402  -2.991   1.359  0.00  0.00    -0.187 NA
ATOM     33  H   UNL     1       4.818  -3.554   2.208  0.00  0.00    +0.148 HD
BRANCH  32  34
ATOM     34  C   UNL     1       3.073  -3.325   0.841  0.00  0.00    +0.137 C 
BRANCH  34  35
ATOM     35  C   UNL     1       2.748  -4.784   1.171  0.00  0.00    +0.134 C 
ATOM     36  C   UNL     1       1.355  -5.147   0.623  0.00  0.00    +0.035 C 
ATOM     37  C   UNL     1       1.622  -6.332  -0.337  0.00  0.00    +0.031 C 
ATOM     38  C   UNL     1       2.990  -6.857   0.168  0.00  0.00    +0.160 C 
ATOM     39  O   UNL     1       3.701  -5.652   0.535  0.00  0.00    -0.375 OA
ENDBRANCH  34  35
ENDBRANCH  32  34
ENDBRANCH  29  32
ENDBRANCH   9  29
TORSDOF 8
