REMARK  Name = ZINC34988467
REMARK  11 active torsions:
REMARK  status: ('A' for Active; 'I' for Inactive)
REMARK    1  A    between atoms: C_1  and  C_2
REMARK    2  A    between atoms: C_4  and  C_13
REMARK    3  A    between atoms: C_7  and  O_8
REMARK    4  A    between atoms: O_8  and  C_9
REMARK    5  A    between atoms: C_9  and  C_10
REMARK    6  A    between atoms: C_10  and  C_11
REMARK    7  A    between atoms: C_10  and  C_12
REMARK    8  A    between atoms: C_14  and  C_24
REMARK    9  A    between atoms: N_16  and  C_18
REMARK   10  A    between atoms: C_25  and  C_26
REMARK   11  A    between atoms: C_25  and  C_28
REMARK                            x       y       z     vdW  Elec       q    Type
REMARK                         _______ _______ _______ _____ _____    ______ ____
ROOT
ATOM      1  C   UNL     1       0.544  -2.663  -2.864  0.00  0.00    +0.100 A 
ATOM      2  C   UNL     1       0.933  -4.079  -2.916  0.00  0.00    +0.022 A 
ATOM      3  C   UNL     1       0.621  -4.521  -4.190  0.00  0.00    +0.123 A 
ATOM      4  N   UNL     1       0.091  -3.485  -4.866  0.00  0.00    -0.239 N 
ATOM      5  N   UNL     1       0.045  -2.358  -4.041  0.00  0.00    -0.166 NA
ENDROOT
BRANCH   1   9
ATOM      6  C   UNL     1       1.430   1.896  -1.036  0.00  0.00    +0.047 C 
ATOM      7  C   UNL     1       1.109   0.439  -0.821  0.00  0.00    -0.008 A 
ATOM      8  C   UNL     1       0.981  -0.405  -1.903  0.00  0.00    +0.017 A 
ATOM      9  C   UNL     1       0.683  -1.753  -1.703  0.00  0.00    +0.003 A 
ATOM     10  C   UNL     1       0.516  -2.242  -0.408  0.00  0.00    +0.014 A 
ATOM     11  C   UNL     1       0.645  -1.393   0.670  0.00  0.00    +0.046 A 
ATOM     12  C   UNL     1       0.947  -0.052   0.468  0.00  0.00    +0.123 A 
BRANCH  12  13
ATOM     13  O   UNL     1       1.079   0.781   1.533  0.00  0.00    -0.491 OA
BRANCH  13  14
ATOM     14  C   UNL     1       0.900   0.210   2.830  0.00  0.00    +0.232 C 
BRANCH  14  15
ATOM     15  C   UNL     1       1.086   1.293   3.895  0.00  0.00    +0.020 C 
ATOM     16  C   UNL     1      -0.022   2.339   3.757  0.00  0.00    +0.010 C 
ATOM     17  C   UNL     1       1.018   0.658   5.285  0.00  0.00    +0.010 C 
ENDBRANCH  14  15
ENDBRANCH  13  14
ENDBRANCH  12  13
ENDBRANCH   1   9
BRANCH   4  18
ATOM     18  C   UNL     1      -0.353  -3.531  -6.193  0.00  0.00    +0.065 A 
ATOM     19  C   UNL     1      -0.268  -4.715  -6.915  0.00  0.00    +0.028 A 
ATOM     20  C   UNL     1      -0.707  -4.757  -8.224  0.00  0.00    +0.002 A 
ATOM     21  C   UNL     1      -1.230  -3.622  -8.816  0.00  0.00    +0.000 A 
ATOM     22  C   UNL     1      -1.315  -2.442  -8.101  0.00  0.00    +0.002 A 
ATOM     23  C   UNL     1      -0.884  -2.395  -6.789  0.00  0.00    +0.028 A 
ENDBRANCH   4  18
BRANCH   2  24
ATOM     24  C   UNL     1       1.531  -4.865  -1.835  0.00  0.00    +0.034 C 
ATOM     25  C   UNL     1       1.523  -6.229  -1.898  0.00  0.00    +0.097 C 
BRANCH  25  26
ATOM     26  C   UNL     1       2.256  -7.020  -0.888  0.00  0.00    +0.175 A 
ATOM     27  N   UNL     1       2.235  -8.339  -0.978  0.00  0.00    -0.226 NA
ATOM     28  C   UNL     1       2.889  -9.088  -0.081  0.00  0.00    +0.079 A 
ATOM     29  C   UNL     1       2.888 -10.489  -0.144  0.00  0.00    +0.028 A 
ATOM     30  C   UNL     1       3.570 -11.206   0.793  0.00  0.00    +0.002 A 
ATOM     31  C   UNL     1       4.268 -10.569   1.816  0.00  0.00    +0.001 A 
ATOM     32  C   UNL     1       4.289  -9.208   1.908  0.00  0.00    +0.015 A 
ATOM     33  C   UNL     1       3.600  -8.442   0.961  0.00  0.00    +0.067 A 
ATOM     34  C   UNL     1       3.588  -7.027   1.007  0.00  0.00    +0.281 A 
ATOM     35  O   UNL     1       4.250  -6.359   1.979  0.00  0.00    -0.265 OA
ATOM     36  N   UNL     1       2.918  -6.374   0.073  0.00  0.00    -0.188 NA
ENDBRANCH  25  26
BRANCH  25  37
ATOM     37  C   UNL     1       0.803  -6.893  -2.943  0.00  0.00    +0.103 C 
ATOM     38  N   UNL     1       0.232  -7.420  -3.772  0.00  0.00    -0.191 NA
ENDBRANCH  25  37
ENDBRANCH   2  24
TORSDOF 8
