REMARK  Name = ZINC06462053
REMARK  13 active torsions:
REMARK  status: ('A' for Active; 'I' for Inactive)
REMARK    1  A    between atoms: C_1  and  C_2
REMARK    2  A    between atoms: C_2  and  C_3
REMARK    3  A    between atoms: C_3  and  C_4
REMARK    4  A    between atoms: C_3  and  C_5
REMARK    5  A    between atoms: C_3  and  N_6
REMARK    6  A    between atoms: C_7  and  C_9
REMARK    7  A    between atoms: C_9  and  C_11
REMARK    8  A    between atoms: C_9  and  N_18
REMARK    9  A    between atoms: C_14  and  O_17
REMARK   10  A    between atoms: N_18  and  C_19
REMARK   11  A    between atoms: C_26  and  C_28
REMARK   12  A    between atoms: C_29  and  N_36
REMARK   13  A    between atoms: C_30  and  C_33
REMARK                            x       y       z     vdW  Elec       q    Type
REMARK                         _______ _______ _______ _____ _____    ______ ____
ROOT
ATOM      1  N   UNL     1      -1.347   3.429   0.924  0.00  0.00    -0.251 N 
ATOM      2  C   UNL     1      -2.552   3.685   1.470  0.00  0.00    +0.262 C 
ATOM      3  O   UNL     1      -3.543   3.114   1.054  0.00  0.00    -0.269 OA
ENDROOT
BRANCH   1   4
ATOM      4  C   UNL     1      -0.194   3.999   1.475  0.00  0.00    +0.038 A 
ATOM      5  C   UNL     1       0.646   3.235   2.275  0.00  0.00    +0.026 A 
ATOM      6  C   UNL     1       1.786   3.799   2.813  0.00  0.00    +0.040 A 
ATOM      7  C   UNL     1       2.087   5.127   2.564  0.00  0.00    +0.124 A 
ATOM      8  C   UNL     1       1.248   5.892   1.771  0.00  0.00    +0.040 A 
ATOM      9  C   UNL     1       0.110   5.331   1.226  0.00  0.00    +0.026 A 
ATOM     10  F   UNL     1       3.201   5.678   3.095  0.00  0.00    -0.205 F 
ENDBRANCH   1   4
BRANCH   2  11
ATOM     11  C   UNL     1      -2.670   4.650   2.565  0.00  0.00    +0.116 A 
ATOM     12  C   UNL     1      -3.816   5.151   3.184  0.00  0.00    +0.076 A 
ATOM     13  C   UNL     1      -3.521   6.059   4.200  0.00  0.00    +0.155 A 
ATOM     14  N   UNL     1      -2.265   6.351   4.458  0.00  0.00    -0.203 NA
ATOM     15  S   UNL     1      -1.388   5.506   3.457  0.00  0.00    +0.019 S 
BRANCH  13  16
ATOM     16  C   UNL     1      -4.606   6.691   4.973  0.00  0.00    +0.262 C 
ATOM     17  O   UNL     1      -5.765   6.418   4.729  0.00  0.00    -0.269 OA
ATOM     18  N   UNL     1      -4.313   7.572   5.950  0.00  0.00    -0.324 N 
ATOM     19  H   UNL     1      -3.388   7.790   6.145  0.00  0.00    +0.145 HD
ATOM     20  H   UNL     1      -5.027   7.988   6.459  0.00  0.00    +0.145 HD
ENDBRANCH  13  16
BRANCH  12  21
ATOM     21  N   UNL     1      -5.107   4.783   2.829  0.00  0.00    -0.355 N 
ATOM     22  H   UNL     1      -5.250   4.143   2.114  0.00  0.00    +0.142 HD
ATOM     23  H   UNL     1      -5.866   5.165   3.297  0.00  0.00    +0.142 HD
ENDBRANCH  12  21
ENDBRANCH   2  11
BRANCH   1  24
ATOM     24  C   UNL     1      -1.244   2.553  -0.246  0.00  0.00    +0.197 C 
BRANCH  24  25
ATOM     25  C   UNL     1       0.208   2.296  -0.554  0.00  0.00    -0.018 A 
ATOM     26  C   UNL     1       1.055   3.355  -0.825  0.00  0.00    +0.009 A 
ATOM     27  C   UNL     1       2.385   3.122  -1.114  0.00  0.00    +0.046 A 
ATOM     28  C   UNL     1       2.872   1.823  -1.133  0.00  0.00    +0.117 A 
ATOM     29  C   UNL     1       2.021   0.761  -0.862  0.00  0.00    +0.046 A 
ATOM     30  C   UNL     1       0.691   1.000  -0.573  0.00  0.00    +0.009 A 
BRANCH  28  31
ATOM     31  O   UNL     1       4.180   1.590  -1.418  0.00  0.00    -0.507 OA
ATOM     32  H   UNL     1       4.361   1.462  -2.360  0.00  0.00    +0.292 HD
ENDBRANCH  28  31
ENDBRANCH  24  25
BRANCH  24  34
ATOM     33  N   UNL     1      -1.926   2.592  -2.623  0.00  0.00    -0.308 N 
ATOM     34  C   UNL     1      -1.899   3.217  -1.429  0.00  0.00    +0.239 C 
ATOM     35  O   UNL     1      -2.403   4.313  -1.308  0.00  0.00    -0.273 OA
ATOM     36  H   UNL     1      -1.524   1.715  -2.720  0.00  0.00    +0.149 HD
BRANCH  33  37
ATOM     37  C   UNL     1      -2.563   3.237  -3.774  0.00  0.00    +0.029 C 
ATOM     38  C   UNL     1      -4.038   3.498  -3.460  0.00  0.00    +0.031 C 
ATOM     39  C   UNL     1      -1.861   4.565  -4.067  0.00  0.00    +0.031 C 
BRANCH  37  41
ATOM     40  C   UNL     1      -3.121   2.997  -6.197  0.00  0.00    +0.006 C 
ATOM     41  C   UNL     1      -2.456   2.322  -4.995  0.00  0.00    +0.022 C 
ENDBRANCH  37  41
ENDBRANCH  33  37
ENDBRANCH  24  34
ENDBRANCH   1  24
TORSDOF 10
