REMARK  Name = ZINC11854949
REMARK  8 active torsions:
REMARK  status: ('A' for Active; 'I' for Inactive)
REMARK    1  A    between atoms: C_1  and  C_2
REMARK    2  A    between atoms: C_3  and  C_33
REMARK    3  A    between atoms: C_11  and  N_20
REMARK    4  A    between atoms: C_13  and  C_15
REMARK    5  A    between atoms: C_21  and  C_23
REMARK    6  A    between atoms: C_23  and  C_25
REMARK    7  A    between atoms: C_23  and  O_26
REMARK    8  A    between atoms: O_26  and  C_27
REMARK                            x       y       z     vdW  Elec       q    Type
REMARK                         _______ _______ _______ _____ _____    ______ ____
ROOT
ATOM      1  C   UNL     1       2.380   1.183   0.034  0.00  0.00    +0.051 C 
ATOM      2  C   UNL     1       1.076   1.920  -0.125  0.00  0.00    +0.035 A 
ATOM      3  C   UNL     1       1.032   3.281  -0.035  0.00  0.00    +0.050 A 
ATOM      4  N   UNL     1      -0.127   3.922  -0.178  0.00  0.00    -0.217 NA
ATOM      5  C   UNL     1      -1.247   3.272  -0.406  0.00  0.00    +0.234 A 
ATOM      6  N   UNL     1      -1.265   1.916  -0.511  0.00  0.00    -0.291 N 
ATOM      7  H   UNL     1      -2.100   1.453  -0.683  0.00  0.00    +0.172 HD
ATOM      8  C   UNL     1      -0.119   1.217  -0.369  0.00  0.00    +0.256 A 
ATOM      9  O   UNL     1      -0.118   0.000  -0.456  0.00  0.00    -0.267 OA
ATOM     10  N   UNL     1      -2.425   3.979  -0.548  0.00  0.00    -0.185 N 
ATOM     11  C   UNL     1      -2.561   5.336  -0.474  0.00  0.00    +0.132 A 
ATOM     12  C   UNL     1      -3.871   5.630  -0.667  0.00  0.00    +0.074 A 
ATOM     13  C   UNL     1      -4.561   4.416  -0.866  0.00  0.00    +0.102 A 
ATOM     14  N   UNL     1      -3.689   3.431  -0.798  0.00  0.00    -0.162 NA
ATOM     15  C   UNL     1       2.296   4.059   0.226  0.00  0.00    +0.066 C 
ENDROOT
BRANCH  13  16
ATOM     16  C   UNL     1      -6.012   4.274  -1.113  0.00  0.00    +0.039 A 
ATOM     17  C   UNL     1      -6.746   3.135  -1.313  0.00  0.00    +0.018 A 
ATOM     18  C   UNL     1      -8.102   3.250  -1.526  0.00  0.00    +0.008 A 
ATOM     19  C   UNL     1      -8.669   4.484  -1.530  0.00  0.00    +0.046 A 
ATOM     20  S   UNL     1      -7.264   5.542  -1.219  0.00  0.00    -0.095 S 
ENDBRANCH  13  16
BRANCH  11  21
ATOM     21  N   UNL     1      -1.538   6.253  -0.242  0.00  0.00    -0.267 N 
ATOM     22  C   UNL     1      -1.813   7.572  -0.193  0.00  0.00    +0.259 C 
ATOM     23  O   UNL     1      -2.951   7.960  -0.351  0.00  0.00    -0.271 OA
ATOM     24  H   UNL     1      -0.627   5.943  -0.116  0.00  0.00    +0.156 HD
BRANCH  22  25
ATOM     25  C   UNL     1      -0.707   8.564   0.057  0.00  0.00    +0.256 C 
ATOM     26  C   UNL     1       0.280   8.534  -1.112  0.00  0.00    +0.062 C 
BRANCH  25  27
ATOM     27  O   UNL     1      -1.261   9.875   0.179  0.00  0.00    -0.480 OA
BRANCH  27  28
ATOM     28  C   UNL     1      -0.545  10.784   0.891  0.00  0.00    +0.122 A 
ATOM     29  C   UNL     1       0.715  10.455   1.371  0.00  0.00    +0.045 A 
ATOM     30  C   UNL     1       1.443  11.383   2.089  0.00  0.00    +0.004 A 
ATOM     31  C   UNL     1       0.914  12.635   2.340  0.00  0.00    +0.000 A 
ATOM     32  C   UNL     1      -0.343  12.964   1.868  0.00  0.00    +0.004 A 
ATOM     33  C   UNL     1      -1.073  12.042   1.144  0.00  0.00    +0.045 A 
ENDBRANCH  27  28
ENDBRANCH  25  27
ENDBRANCH  22  25
ENDBRANCH  11  21
TORSDOF 5
