REMARK  Name = ZINC04213426
REMARK  5 active torsions:
REMARK  status: ('A' for Active; 'I' for Inactive)
REMARK    1  A    between atoms: C_5  and  N_7
REMARK    2  A    between atoms: N_10  and  C_11
REMARK    3  A    between atoms: N_10  and  C_35
REMARK    4  A    between atoms: C_11  and  C_12
REMARK    5  A    between atoms: C_26  and  C_28
REMARK                            x       y       z     vdW  Elec       q    Type
REMARK                         _______ _______ _______ _____ _____    ______ ____
ROOT
ATOM      1  C   UNL     1      -1.770   1.317   2.681  0.00  0.00    +0.238 C 
ATOM      2  O   UNL     1      -2.290   1.325   1.585  0.00  0.00    -0.273 OA
ATOM      3  N   UNL     1      -2.425   0.789   3.733  0.00  0.00    -0.255 N 
ATOM      4  C   UNL     1      -3.674   0.180   3.547  0.00  0.00    +0.061 A 
ATOM      5  C   UNL     1      -3.989  -0.426   2.341  0.00  0.00    +0.025 A 
ATOM      6  C   UNL     1      -5.227  -1.015   2.167  0.00  0.00    +0.002 A 
ATOM      7  C   UNL     1      -6.158  -1.002   3.190  0.00  0.00    +0.002 A 
ATOM      8  C   UNL     1      -5.853  -0.404   4.400  0.00  0.00    +0.028 A 
ATOM      9  C   UNL     1      -4.615   0.182   4.582  0.00  0.00    +0.068 A 
ATOM     10  N   UNL     1      -4.251   0.780   5.796  0.00  0.00    -0.316 N 
ATOM     11  C   UNL     1      -5.012   1.127   6.862  0.00  0.00    +0.092 A 
ATOM     12  C   UNL     1      -4.204   1.681   7.794  0.00  0.00    +0.020 A 
ATOM     13  C   UNL     1      -2.889   1.670   7.279  0.00  0.00    +0.025 A 
ATOM     14  C   UNL     1      -2.941   1.115   6.063  0.00  0.00    +0.049 A 
ATOM     15  C   UNL     1      -1.825   0.847   5.077  0.00  0.00    +0.159 C 
ENDROOT
BRANCH  15  16
ATOM     16  C   UNL     1      -1.160  -0.468   5.396  0.00  0.00    -0.021 A 
ATOM     17  C   UNL     1      -1.768  -1.655   5.033  0.00  0.00    +0.007 A 
ATOM     18  C   UNL     1      -1.156  -2.861   5.321  0.00  0.00    +0.020 A 
ATOM     19  C   UNL     1       0.059  -2.879   5.982  0.00  0.00    +0.041 A 
ATOM     20  C   UNL     1       0.664  -1.690   6.351  0.00  0.00    +0.020 A 
ATOM     21  C   UNL     1       0.054  -0.485   6.057  0.00  0.00    +0.007 A 
ATOM     22 CL   UNL     1       0.825  -4.393   6.351  0.00  0.00    -0.084 Cl
ENDBRANCH  15  16
BRANCH   1  23
ATOM     23  C   UNL     1      -0.392   1.899   2.865  0.00  0.00    +0.205 C 
BRANCH  23  27
ATOM     24  N   UNL     1       1.249   2.296  -0.400  0.00  0.00    -0.267 N 
ATOM     25  C   UNL     1       0.745   1.733   0.716  0.00  0.00    +0.307 C 
ATOM     26  O   UNL     1       0.905   0.546   0.923  0.00  0.00    -0.252 OA
ATOM     27  N   UNL     1       0.063   2.486   1.602  0.00  0.00    -0.274 N 
ATOM     28  H   UNL     1       1.161   3.252  -0.542  0.00  0.00    +0.156 HD
BRANCH  24  33
ATOM     29  C   UNL     1       3.109  -0.488  -1.922  0.00  0.00    +0.002 A 
ATOM     30  C   UNL     1       3.182  -0.068  -3.237  0.00  0.00    +0.003 A 
ATOM     31  C   UNL     1       2.615   1.135  -3.615  0.00  0.00    +0.040 A 
ATOM     32  C   UNL     1       1.972   1.922  -2.676  0.00  0.00    +0.145 A 
ATOM     33  C   UNL     1       1.898   1.502  -1.353  0.00  0.00    +0.070 A 
ATOM     34  C   UNL     1       2.474   0.296  -0.978  0.00  0.00    +0.026 A 
ATOM     35  F   UNL     1       1.418   3.098  -3.045  0.00  0.00    -0.204 F 
ENDBRANCH  24  33
BRANCH  27  36
ATOM     36  C   UNL     1      -0.223   3.891   1.303  0.00  0.00    +0.078 C 
ATOM     37  C   UNL     1      -1.230   4.614   2.200  0.00  0.00    +0.024 C 
ATOM     38  C   UNL     1       0.262   4.940   2.306  0.00  0.00    +0.024 C 
ENDBRANCH  27  36
ENDBRANCH  23  27
ENDBRANCH   1  23
TORSDOF 5
