REMARK  Name = ZINC24631170
REMARK  9 active torsions:
REMARK  status: ('A' for Active; 'I' for Inactive)
REMARK    1  A    between atoms: C_1  and  C_2
REMARK    2  A    between atoms: C_5  and  C_8
REMARK    3  A    between atoms: N_15  and  C_18
REMARK    4  A    between atoms: C_18  and  C_19
REMARK    5  A    between atoms: C_19  and  C_20
REMARK    6  A    between atoms: N_22  and  C_23
REMARK    7  A    between atoms: C_23  and  C_24
REMARK    8  A    between atoms: C_24  and  C_26
REMARK    9  A    between atoms: C_24  and  N_31
REMARK                            x       y       z     vdW  Elec       q    Type
REMARK                         _______ _______ _______ _____ _____    ______ ____
ROOT
ATOM      1  C   UNL     1      -1.210  -0.746  -0.044  0.00  0.00    +0.135 C 
ENDROOT
BRANCH   1   9
ATOM      2  C   UNL     1       1.839   3.255  -0.281  0.00  0.00    +0.004 A 
ATOM      3  C   UNL     1       3.148   3.602  -0.285  0.00  0.00    +0.056 A 
ATOM      4  S   UNL     1       3.991   2.036  -0.160  0.00  0.00    -0.076 S 
ATOM      5  C   UNL     1       2.580   0.962  -0.106  0.00  0.00    +0.116 A 
ATOM      6  C   UNL     1       1.488   1.842  -0.186  0.00  0.00    +0.080 A 
ATOM      7  C   UNL     1       0.195   1.230  -0.162  0.00  0.00    +0.263 A 
ATOM      8  O   UNL     1      -0.814   1.910  -0.232  0.00  0.00    -0.267 OA
ATOM      9  N   UNL     1       0.110  -0.110  -0.068  0.00  0.00    -0.298 N 
ATOM     10  C   UNL     1       1.222  -0.885   0.005  0.00  0.00    +0.203 A 
ATOM     11  N   UNL     1       2.416  -0.355  -0.014  0.00  0.00    -0.230 NA
BRANCH   2  16
ATOM     12  C   UNL     1      -2.265   7.278  -0.634  0.00  0.00    +0.044 C 
ATOM     13  C   UNL     1      -1.191   6.225  -0.541  0.00  0.00    -0.050 A 
ATOM     14  C   UNL     1      -0.174   6.357   0.387  0.00  0.00    +0.004 A 
ATOM     15  C   UNL     1       0.812   5.397   0.476  0.00  0.00    +0.009 A 
ATOM     16  C   UNL     1       0.782   4.290  -0.372  0.00  0.00    -0.017 A 
ATOM     17  C   UNL     1      -0.242   4.165  -1.309  0.00  0.00    +0.009 A 
ATOM     18  C   UNL     1      -1.226   5.129  -1.385  0.00  0.00    +0.004 A 
ENDBRANCH   2  16
ENDBRANCH   1   9
BRANCH   1  19
ATOM     19  C   UNL     1      -1.647  -1.070  -1.474  0.00  0.00    +0.117 C 
BRANCH  19  20
ATOM     20  C   UNL     1      -3.004  -1.724  -1.449  0.00  0.00    +0.215 C 
ATOM     21  O   UNL     1      -3.567  -1.912  -0.391  0.00  0.00    -0.276 OA
ATOM     22  N   UNL     1      -3.592  -2.099  -2.602  0.00  0.00    -0.316 N 
ATOM     23  H   UNL     1      -3.082  -1.929  -3.561  0.00  0.00    +0.149 HD
BRANCH  22  24
ATOM     24  C   UNL     1      -4.912  -2.735  -2.578  0.00  0.00    +0.094 C 
BRANCH  24  25
ATOM     25  C   UNL     1      -5.401  -2.951  -4.011  0.00  0.00    -0.013 C 
BRANCH  25  26
ATOM     26  N   UNL     1      -6.774  -3.471  -3.987  0.00  0.00    +0.386 N 
ATOM     27  C   UNL     1      -7.689  -2.526  -3.296  0.00  0.00    -0.078 C 
ATOM     28  C   UNL     1      -9.088  -2.944  -3.815  0.00  0.00    -0.020 C 
ATOM     29  C   UNL     1      -8.815  -3.306  -5.293  0.00  0.00    -0.020 C 
ATOM     30  C   UNL     1      -7.309  -3.619  -5.359  0.00  0.00    -0.078 C 
ATOM     31  H   UNL     1      -6.719  -4.439  -3.469  0.00  0.00    -0.081 HD
ENDBRANCH  25  26
BRANCH  25  32
ATOM     32  C   UNL     1      -4.501  -3.941  -4.704  0.00  0.00    -0.022 A 
ATOM     33  C   UNL     1      -3.486  -3.710  -5.572  0.00  0.00    +0.009 A 
ATOM     34  C   UNL     1      -2.788  -4.786  -6.089  0.00  0.00    +0.008 A 
ATOM     35  C   UNL     1      -3.139  -6.040  -5.713  0.00  0.00    +0.045 A 
ATOM     36  S   UNL     1      -4.490  -5.723  -4.589  0.00  0.00    -0.103 S 
ENDBRANCH  25  32
ENDBRANCH  24  25
ENDBRANCH  22  24
ENDBRANCH  19  20
ENDBRANCH   1  19
TORSDOF 8
