REMARK  Name = ZINC19499539
REMARK  11 active torsions:
REMARK  status: ('A' for Active; 'I' for Inactive)
REMARK    1  A    between atoms: C_1  and  C_2
REMARK    2  A    between atoms: C_2  and  C_3
REMARK    3  A    between atoms: C_3  and  C_4
REMARK    4  A    between atoms: C_3  and  C_5
REMARK    5  A    between atoms: C_3  and  N_6
REMARK    6  A    between atoms: C_7  and  C_11
REMARK    7  A    between atoms: C_11  and  C_13
REMARK    8  A    between atoms: C_11  and  N_27
REMARK    9  A    between atoms: C_16  and  C_26
REMARK   10  A    between atoms: C_19  and  C_25
REMARK   11  A    between atoms: N_30  and  C_33
REMARK                            x       y       z     vdW  Elec       q    Type
REMARK                         _______ _______ _______ _____ _____    ______ ____
ROOT
ATOM      1  C   UNL     1       3.630   0.566  -0.195  0.00  0.00    +0.162 C 
ENDROOT
BRANCH   1   2
ATOM      2  C   UNL     1       4.085   0.130  -1.565  0.00  0.00    +0.042 A 
ATOM      3  C   UNL     1       3.179  -0.009  -2.565  0.00  0.00    +0.021 A 
ATOM      4  C   UNL     1       3.654  -0.429  -3.884  0.00  0.00    +0.002 A 
ATOM      5  C   UNL     1       2.769  -0.586  -4.956  0.00  0.00    -0.041 A 
ATOM      6  C   UNL     1       3.243  -0.984  -6.173  0.00  0.00    +0.004 A 
ATOM      7  C   UNL     1       4.596  -1.235  -6.357  0.00  0.00    +0.005 A 
ATOM      8  C   UNL     1       5.486  -1.089  -5.315  0.00  0.00    -0.026 A 
ATOM      9  C   UNL     1       5.027  -0.684  -4.066  0.00  0.00    +0.052 A 
ATOM     10  N   UNL     1       5.895  -0.529  -3.007  0.00  0.00    -0.322 N 
ATOM     11  H   UNL     1       6.969  -0.725  -3.142  0.00  0.00    +0.169 HD
ATOM     12  C   UNL     1       5.450  -0.138  -1.800  0.00  0.00    +0.254 A 
ATOM     13  O   UNL     1       6.247  -0.011  -0.886  0.00  0.00    -0.268 OA
ATOM     14  C   UNL     1       6.952  -1.366  -5.529  0.00  0.00    +0.046 C 
ATOM     15  C   UNL     1       1.298  -0.317  -4.768  0.00  0.00    +0.044 C 
ENDBRANCH   1   2
BRANCH   1  16
ATOM     16  N   UNL     1       4.005  -0.454   0.793  0.00  0.00    -0.292 NA
ATOM     17  C   UNL     1       3.464  -1.770   0.423  0.00  0.00    +0.067 C 
ATOM     18  C   UNL     1       3.942  -2.817   1.432  0.00  0.00    -0.063 C 
ATOM     19  N   UNL     1       3.504  -2.430   2.780  0.00  0.00    +0.383 N 
ATOM     20  C   UNL     1       4.045  -1.115   3.150  0.00  0.00    -0.063 C 
ATOM     21  C   UNL     1       3.567  -0.068   2.141  0.00  0.00    +0.067 C 
ATOM     22  H   UNL     1       2.407  -2.356   2.773  0.00  0.00    -0.081 HD
BRANCH  19  23
ATOM     23  C   UNL     1       3.880  -3.450   3.769  0.00  0.00    -0.068 C 
ATOM     24  C   UNL     1       5.404  -3.551   3.844  0.00  0.00    -0.015 C 
ATOM     25  C   UNL     1       5.795  -4.613   4.873  0.00  0.00    -0.002 C 
ATOM     26  C   UNL     1       5.215  -5.966   4.455  0.00  0.00    -0.000 C 
ATOM     27  C   UNL     1       3.691  -5.865   4.380  0.00  0.00    -0.002 C 
ATOM     28  C   UNL     1       3.300  -4.803   3.351  0.00  0.00    -0.015 C 
ENDBRANCH  19  23
ENDBRANCH   1  16
BRANCH   1  30
ATOM     29  N   UNL     1       1.458   1.903  -0.157  0.00  0.00    -0.222 N 
ATOM     30  C   UNL     1       2.133   0.739  -0.195  0.00  0.00    +0.174 A 
ATOM     31  N   UNL     1       1.235  -0.215  -0.232  0.00  0.00    -0.111 NA
ATOM     32  N   UNL     1       0.070   0.335  -0.217  0.00  0.00    -0.023 NA
ATOM     33  N   UNL     1       0.201   1.614  -0.172  0.00  0.00    -0.043 NA
BRANCH  29  34
ATOM     34  C   UNL     1       2.042   3.246  -0.107  0.00  0.00    +0.062 C 
ATOM     35  C   UNL     1       2.818   3.417   1.200  0.00  0.00    +0.036 C 
ATOM     36  C   UNL     1       2.993   3.432  -1.292  0.00  0.00    +0.036 C 
BRANCH  34  38
ATOM     37  C   UNL     1       1.537   5.692  -0.128  0.00  0.00    +0.006 C 
ATOM     38  C   UNL     1       0.927   4.290  -0.179  0.00  0.00    +0.026 C 
ENDBRANCH  34  38
ENDBRANCH  29  34
ENDBRANCH   1  30
TORSDOF 6
