REMARK  Name = ZINC09874658
REMARK  7 active torsions:
REMARK  status: ('A' for Active; 'I' for Inactive)
REMARK    1  A    between atoms: C_4  and  N_7
REMARK    2  A    between atoms: C_8  and  C_27
REMARK    3  A    between atoms: C_11  and  S_12
REMARK    4  A    between atoms: S_12  and  C_13
REMARK    5  A    between atoms: C_13  and  C_14
REMARK    6  A    between atoms: N_16  and  C_17
REMARK    7  A    between atoms: C_27  and  N_65
REMARK                            x       y       z     vdW  Elec       q    Type
REMARK                         _______ _______ _______ _____ _____    ______ ____
ROOT
ATOM      1  N   UNL     1      -0.017   1.398   0.010  0.00  0.00    -0.276 N 
ATOM      2  C   UNL     1      -1.119   2.211   0.019  0.00  0.00    +0.122 A 
ATOM      3  N   UNL     1      -0.693   3.442   0.027  0.00  0.00    -0.135 NA
ATOM      4  N   UNL     1       0.592   3.466   0.015  0.00  0.00    -0.122 NA
ATOM      5  C   UNL     1       1.062   2.240   0.004  0.00  0.00    +0.197 A 
ENDROOT
BRANCH   1   9
ATOM      6  C   UNL     1       0.040  -2.771  -0.013  0.00  0.00    +0.000 A 
ATOM      7  C   UNL     1       0.546  -2.079   1.072  0.00  0.00    +0.002 A 
ATOM      8  C   UNL     1       0.529  -0.698   1.082  0.00  0.00    +0.026 A 
ATOM      9  C   UNL     1       0.002  -0.004   0.002  0.00  0.00    +0.050 A 
ATOM     10  C   UNL     1      -0.511  -0.701  -1.083  0.00  0.00    +0.026 A 
ATOM     11  C   UNL     1      -0.485  -2.082  -1.091  0.00  0.00    +0.002 A 
ENDBRANCH   1   9
BRANCH   5  12
ATOM     12  S   UNL     1       2.759   1.768  -0.015  0.00  0.00    -0.076 S 
BRANCH  12  13
ATOM     13  C   UNL     1       3.539   3.401  -0.013  0.00  0.00    +0.173 C 
BRANCH  13  14
ATOM     14  C   UNL     1       5.038   3.241  -0.029  0.00  0.00    +0.224 C 
ATOM     15  O   UNL     1       5.530   2.133  -0.039  0.00  0.00    -0.275 OA
ATOM     16  N   UNL     1       5.832   4.331  -0.030  0.00  0.00    -0.309 N 
ATOM     17  H   UNL     1       5.438   5.217  -0.022  0.00  0.00    +0.149 HD
BRANCH  16  18
ATOM     18  C   UNL     1       7.288   4.176  -0.045  0.00  0.00    +0.035 C 
ATOM     19  C   UNL     1       7.731   3.398   1.196  0.00  0.00    +0.029 C 
ATOM     20  C   UNL     1       9.252   3.236   1.180  0.00  0.00    -0.008 C 
ATOM     21  C   UNL     1       9.912   4.617   1.181  0.00  0.00    +0.007 C 
ATOM     22  C   UNL     1       9.469   5.395  -0.059  0.00  0.00    -0.008 C 
ATOM     23  C   UNL     1       7.948   5.556  -0.044  0.00  0.00    +0.029 C 
ATOM     24  C   UNL     1       9.888   4.630  -1.317  0.00  0.00    +0.007 C 
ATOM     25  C   UNL     1       9.229   3.250  -1.318  0.00  0.00    -0.008 C 
ATOM     26  C   UNL     1       9.671   2.472  -0.077  0.00  0.00    +0.007 C 
ATOM     27  C   UNL     1       7.707   3.412  -1.303  0.00  0.00    +0.029 C 
ENDBRANCH  16  18
ENDBRANCH  13  14
ENDBRANCH  12  13
ENDBRANCH   5  12
BRANCH   2  28
ATOM     28  C   UNL     1      -2.559   1.764   0.021  0.00  0.00    -0.001 C 
BRANCH  28  33
ATOM     29  C   UNL     1      -2.756   2.842   2.196  0.00  0.00    -0.078 C 
ATOM     30  C   UNL     1      -3.735   2.715   3.390  0.00  0.00    -0.020 C 
ATOM     31  C   UNL     1      -4.992   2.091   2.742  0.00  0.00    -0.020 C 
ATOM     32  C   UNL     1      -4.485   1.407   1.458  0.00  0.00    -0.078 C 
ATOM     33  N   UNL     1      -3.037   1.618   1.429  0.00  0.00    +0.384 N 
ATOM     34  H   UNL     1      -2.562   0.819   1.865  0.00  0.00    -0.081 HD
ENDBRANCH  28  33
ENDBRANCH   2  28
TORSDOF 7
