REMARK  Name = ZINC36861418
REMARK  5 active torsions:
REMARK  status: ('A' for Active; 'I' for Inactive)
REMARK    1  A    between atoms: C_1  and  C_2
REMARK    2  A    between atoms: C_5  and  C_19
REMARK    3  A    between atoms: C_10  and  C_12
REMARK    4  A    between atoms: C_14  and  N_18
REMARK    5  A    between atoms: N_16  and  C_17
REMARK                            x       y       z     vdW  Elec       q    Type
REMARK                         _______ _______ _______ _____ _____    ______ ____
ROOT
ATOM      1  C   UNL     1       0.873   0.655  -2.353  0.00  0.00    +0.009 C 
ATOM      2  C   UNL     1       0.742  -0.763  -1.792  0.00  0.00    +0.004 C 
ATOM      3  C   UNL     1      -0.693  -1.258  -1.986  0.00  0.00    +0.009 C 
ATOM      4  C   UNL     1      -0.817  -2.688  -1.455  0.00  0.00    +0.004 C 
ATOM      5  C   UNL     1      -0.498  -2.702   0.044  0.00  0.00    +0.111 C 
ATOM      6  N   UNL     1       0.823  -2.093   0.252  0.00  0.00    -0.296 N 
ATOM      7  C   UNL     1       1.079  -0.755  -0.298  0.00  0.00    +0.111 C 
ATOM      8  C   UNL     1       1.782  -2.749   0.934  0.00  0.00    +0.263 C 
ATOM      9  O   UNL     1       1.564  -3.865   1.370  0.00  0.00    -0.268 OA
ATOM     10  C   UNL     1       0.169  -3.595  -2.195  0.00  0.00    +0.009 C 
ENDROOT
BRANCH   8  11
ATOM     11  C   UNL     1       3.088  -2.120   1.152  0.00  0.00    +0.106 A 
ATOM     12  C   UNL     1       3.343  -0.765   1.188  0.00  0.00    +0.055 A 
ATOM     13  C   UNL     1       4.717  -0.609   1.420  0.00  0.00    +0.043 A 
ATOM     14  C   UNL     1       5.264  -1.849   1.520  0.00  0.00    +0.108 A 
ATOM     15  N   UNL     1       4.280  -2.775   1.363  0.00  0.00    -0.344 N 
ATOM     16  C   UNL     1       4.460  -4.228   1.409  0.00  0.00    +0.149 C 
BRANCH  13  17
ATOM     17  N   UNL     1       5.406   0.613   1.531  0.00  0.00    -0.357 N 
ATOM     18  H   UNL     1       4.925   1.451   1.444  0.00  0.00    +0.142 HD
ATOM     19  H   UNL     1       6.362   0.618   1.693  0.00  0.00    +0.142 HD
ENDBRANCH  13  17
ENDBRANCH   8  11
TORSDOF 2
