REMARK  Name = ZINC08441982
REMARK  8 active torsions:
REMARK  status: ('A' for Active; 'I' for Inactive)
REMARK    1  A    between atoms: C_4  and  C_7
REMARK    2  A    between atoms: C_7  and  O_8
REMARK    3  A    between atoms: O_8  and  C_9
REMARK    4  A    between atoms: C_18  and  C_30
REMARK    5  A    between atoms: C_20  and  C_26
REMARK    6  A    between atoms: C_20  and  C_28
REMARK    7  A    between atoms: C_21  and  N_25
REMARK    8  A    between atoms: C_22  and  C_23
REMARK                            x       y       z     vdW  Elec       q    Type
REMARK                         _______ _______ _______ _____ _____    ______ ____
ROOT
ATOM      1  C   UNL     1       1.976   5.428  -3.855  0.00  0.00    +0.403 C 
ATOM      2  O   UNL     1       0.799   5.255  -3.605  0.00  0.00    -0.226 OA
ATOM      3  N   UNL     1       2.903   4.595  -3.342  0.00  0.00    -0.263 N 
ATOM      4  C   UNL     1       4.339   4.775  -3.626  0.00  0.00    +0.138 C 
ATOM      5  C   UNL     1       5.040   4.895  -2.296  0.00  0.00    -0.003 C 
ATOM      6  C   UNL     1       4.552   4.322  -1.213  0.00  0.00    -0.026 C 
ATOM      7  C   UNL     1       3.307   3.488  -1.188  0.00  0.00    +0.048 C 
ATOM      8  C   UNL     1       2.527   3.470  -2.479  0.00  0.00    +0.120 C 
ATOM      9  C   UNL     1       2.452   3.936  -0.001  0.00  0.00    +0.069 C 
ATOM     10  C   UNL     1       3.219   3.662   1.294  0.00  0.00    +0.188 C 
ATOM     11  C   UNL     1       4.613   4.209   1.238  0.00  0.00    +0.054 C 
ATOM     12  C   UNL     1       5.257   4.511   0.083  0.00  0.00    +0.074 C 
ENDROOT
BRANCH   9  13
ATOM     13  C   UNL     1       1.157   3.165   0.008  0.00  0.00    -0.022 A 
ATOM     14  C   UNL     1       1.173   1.785  -0.064  0.00  0.00    +0.007 A 
ATOM     15  C   UNL     1      -0.014   1.078  -0.057  0.00  0.00    +0.020 A 
ATOM     16  C   UNL     1      -1.220   1.752   0.017  0.00  0.00    +0.042 A 
ATOM     17  C   UNL     1      -1.237   3.132   0.095  0.00  0.00    +0.040 A 
ATOM     18  C   UNL     1      -0.048   3.840   0.087  0.00  0.00    +0.046 A 
ATOM     19 CL   UNL     1      -0.069   5.573   0.177  0.00  0.00    -0.083 Cl
ATOM     20 CL   UNL     1      -2.712   0.864   0.019  0.00  0.00    -0.083 Cl
ENDBRANCH   9  13
BRANCH  11  21
ATOM     21  N   UNL     1       5.273   4.414   2.417  0.00  0.00    -0.358 N 
ATOM     22  H   UNL     1       6.298   4.814   2.412  0.00  0.00    +0.142 HD
ATOM     23  H   UNL     1       4.780   4.178   3.372  0.00  0.00    +0.142 HD
ENDBRANCH  11  21
BRANCH  12  24
ATOM     24  C   UNL     1       6.600   5.008   0.112  0.00  0.00    +0.101 C 
ATOM     25  N   UNL     1       7.666   5.402   0.134  0.00  0.00    -0.191 NA
ENDBRANCH  12  24
BRANCH  10  26
ATOM     26  C   UNL     1       2.503   4.288   2.417  0.00  0.00    +0.091 C 
ATOM     27  N   UNL     1       1.950   4.771   3.284  0.00  0.00    -0.194 NA
ENDBRANCH  10  26
BRANCH  10  28
ATOM     28  C   UNL     1       3.283   2.209   1.516  0.00  0.00    +0.091 C 
ATOM     29  N   UNL     1       3.333   1.087   1.688  0.00  0.00    -0.194 NA
ENDBRANCH  10  28
BRANCH   1  30
ATOM     30  O   UNL     1       2.353   6.451  -4.644  0.00  0.00    -0.445 OA
BRANCH  30  31
ATOM     31  C   UNL     1       1.301   7.308  -5.161  0.00  0.00    +0.269 C 
BRANCH  31  35
ATOM     32  C   UNL     1       3.023  10.373  -7.587  0.00  0.00    +0.000 A 
ATOM     33  C   UNL     1       2.643   9.172  -8.157  0.00  0.00    +0.000 A 
ATOM     34  C   UNL     1       2.086   8.181  -7.372  0.00  0.00    +0.007 A 
ATOM     35  C   UNL     1       1.909   8.389  -6.017  0.00  0.00    -0.010 A 
ATOM     36  C   UNL     1       2.283   9.592  -5.448  0.00  0.00    +0.007 A 
ATOM     37  C   UNL     1       2.844  10.583  -6.232  0.00  0.00    +0.000 A 
ENDBRANCH  31  35
ENDBRANCH  30  31
ENDBRANCH   1  30
TORSDOF 8
