REMARK  Name = ZINC36370340
REMARK  10 active torsions:
REMARK  status: ('A' for Active; 'I' for Inactive)
REMARK    1  A    between atoms: C_1  and  C_2
REMARK    2  A    between atoms: C_7  and  C_9
REMARK    3  A    between atoms: C_7  and  C_10
REMARK    4  A    between atoms: N_11  and  S_13
REMARK    5  A    between atoms: S_13  and  C_16
REMARK    6  A    between atoms: C_19  and  C_22
REMARK    7  A    between atoms: N_24  and  C_25
REMARK    8  A    between atoms: C_33  and  C_34
REMARK    9  A    between atoms: C_34  and  O_36
REMARK   10  A    between atoms: O_36  and  C_37
REMARK                            x       y       z     vdW  Elec       q    Type
REMARK                         _______ _______ _______ _____ _____    ______ ____
ROOT
ATOM      1  C   UNL     1      -3.044  -4.125   0.245  0.00  0.00    +0.106 A 
ATOM      2  C   UNL     1      -2.737  -5.452   0.001  0.00  0.00    +0.029 A 
ATOM      3  C   UNL     1      -2.710  -6.360   1.040  0.00  0.00    +0.015 A 
ATOM      4  C   UNL     1      -2.994  -5.937   2.340  0.00  0.00    +0.037 A 
ATOM      5  C   UNL     1      -3.302  -4.596   2.579  0.00  0.00    +0.015 A 
ATOM      6  C   UNL     1      -3.321  -3.698   1.532  0.00  0.00    +0.029 A 
ENDROOT
BRANCH   4   7
ATOM      7  C   UNL     1      -2.967  -6.904   3.457  0.00  0.00    +0.248 C 
ATOM      8  O   UNL     1      -2.699  -8.070   3.246  0.00  0.00    -0.270 OA
ATOM      9  N   UNL     1      -3.241  -6.492   4.711  0.00  0.00    -0.280 N 
ATOM     10  H   UNL     1      -3.377  -5.549   4.893  0.00  0.00    +0.155 HD
BRANCH   9  11
ATOM     11  C   UNL     1      -3.330  -7.419   5.743  0.00  0.00    +0.063 A 
ATOM     12  C   UNL     1      -2.312  -8.446   5.912  0.00  0.00    +0.011 A 
ATOM     13  C   UNL     1      -1.153  -8.673   5.130  0.00  0.00    +0.011 A 
ATOM     14  C   UNL     1      -0.301  -9.688   5.430  0.00  0.00    +0.001 A 
ATOM     15  C   UNL     1      -0.531 -10.536   6.505  0.00  0.00    +0.001 A 
ATOM     16  C   UNL     1      -1.649 -10.349   7.292  0.00  0.00    +0.016 A 
ATOM     17  C   UNL     1      -2.524  -9.321   6.999  0.00  0.00    +0.022 A 
ATOM     18  S   UNL     1      -4.035  -8.747   7.730  0.00  0.00    -0.080 S 
ATOM     19  C   UNL     1      -4.380  -7.384   6.635  0.00  0.00    +0.118 A 
BRANCH  19  20
ATOM     20  C   UNL     1      -5.472  -6.481   6.672  0.00  0.00    +0.347 C 
ATOM     21  O   UNL     1      -5.613  -5.660   5.785  0.00  0.00    -0.244 OA
BRANCH  20  22
ATOM     22  O   UNL     1      -6.356  -6.533   7.690  0.00  0.00    -0.464 OA
ATOM     23  C   UNL     1      -7.433  -5.593   7.663  0.00  0.00    +0.280 C 
ENDBRANCH  20  22
ENDBRANCH  19  20
ENDBRANCH   9  11
ENDBRANCH   4   7
BRANCH   1  24
ATOM     24  S   UNL     1      -3.077  -2.973  -1.087  0.00  0.00    +0.061 S 
ATOM     25  O   UNL     1      -3.918  -1.904  -0.679  0.00  0.00    -0.153 OA
ATOM     26  O   UNL     1      -3.319  -3.725  -2.268  0.00  0.00    -0.153 OA
BRANCH  24  36
ATOM     27  C   UNL     1       0.951   0.411  -0.924  0.00  0.00    +0.012 C 
ATOM     28  C   UNL     1       0.455  -1.042  -0.903  0.00  0.00    -0.016 C 
ATOM     29  C   UNL     1       0.498  -1.702  -2.309  0.00  0.00    +0.028 C 
ATOM     30  C   UNL     1      -0.464  -2.892  -2.067  0.00  0.00    +0.081 C 
ATOM     31  C   UNL     1       0.308  -3.931  -1.255  0.00  0.00    +0.027 C 
ATOM     32  C   UNL     1       0.853  -3.389   0.055  0.00  0.00    -0.033 C 
ATOM     33  C   UNL     1       1.263  -1.928   0.043  0.00  0.00    +0.014 C 
ATOM     34  C   UNL     1       2.116  -4.217   0.401  0.00  0.00    +0.011 C 
ATOM     35  C   UNL     1      -0.157  -3.645   1.183  0.00  0.00    +0.011 C 
ATOM     36  N   UNL     1      -1.550  -2.346  -1.229  0.00  0.00    -0.173 NA
ATOM     37  C   UNL     1      -1.045  -1.146  -0.544  0.00  0.00    +0.116 C 
ENDBRANCH  24  36
ENDBRANCH   1  24
TORSDOF 6
