REMARK  Name = ZINC16267921
REMARK  7 active torsions:
REMARK  status: ('A' for Active; 'I' for Inactive)
REMARK    1  A    between atoms: C_1  and  C_2
REMARK    2  A    between atoms: C_4  and  N_10
REMARK    3  A    between atoms: C_7  and  C_8
REMARK    4  A    between atoms: C_14  and  N_15
REMARK    5  A    between atoms: N_15  and  C_16
REMARK    6  A    between atoms: C_19  and  C_23
REMARK    7  A    between atoms: C_20  and  O_22
REMARK                            x       y       z     vdW  Elec       q    Type
REMARK                         _______ _______ _______ _____ _____    ______ ____
ROOT
ATOM      1  N   UNL     1       0.031  -2.752  -2.439  0.00  0.00    -0.189 N 
ATOM      2  C   UNL     1      -1.145  -3.088  -3.006  0.00  0.00    +0.265 C 
ATOM      3  O   UNL     1      -2.201  -2.795  -2.476  0.00  0.00    -0.269 OA
ATOM      4  C   UNL     1      -1.118  -3.819  -4.286  0.00  0.00    +0.113 C 
ATOM      5  C   UNL     1      -2.284  -4.196  -4.926  0.00  0.00    +0.090 C 
ATOM      6  C   UNL     1       0.206  -4.130  -4.853  0.00  0.00    +0.258 C 
ATOM      7  O   UNL     1       0.310  -4.730  -5.907  0.00  0.00    -0.270 OA
ATOM      8  N   UNL     1       1.301  -3.731  -4.173  0.00  0.00    -0.235 N 
ATOM      9  C   UNL     1       1.201  -3.063  -3.015  0.00  0.00    +0.320 C 
ATOM     10  O   UNL     1       2.226  -2.728  -2.454  0.00  0.00    -0.251 OA
ATOM     11  H   UNL     1       2.180  -3.927  -4.533  0.00  0.00    +0.159 HD
ENDROOT
BRANCH   1  15
ATOM     12  C   UNL     1      -0.003   1.520  -0.004  0.00  0.00    +0.044 C 
ATOM     13  C   UNL     1       0.014   0.014  -0.013  0.00  0.00    -0.046 A 
ATOM     14  C   UNL     1       0.015  -0.669  -1.214  0.00  0.00    +0.028 A 
ATOM     15  C   UNL     1       0.031  -2.057  -1.222  0.00  0.00    +0.060 A 
ATOM     16  C   UNL     1       0.046  -2.756  -0.021  0.00  0.00    +0.040 A 
ATOM     17  C   UNL     1       0.045  -2.067   1.177  0.00  0.00    +0.020 A 
ATOM     18  C   UNL     1       0.035  -0.684   1.181  0.00  0.00    -0.046 A 
ATOM     19  C   UNL     1       0.039   0.064   2.489  0.00  0.00    +0.044 C 
ATOM     20 BR   UNL     1       0.068  -4.646  -0.026  0.00  0.00    -0.048 Br
ENDBRANCH   1  15
BRANCH   5  21
ATOM     21  N   UNL     1      -3.477  -4.013  -4.320  0.00  0.00    -0.320 N 
ATOM     22  H   UNL     1      -3.522  -3.551  -3.469  0.00  0.00    +0.152 HD
BRANCH  21  23
ATOM     23  C   UNL     1      -4.641  -4.489  -4.917  0.00  0.00    +0.034 A 
ATOM     24  C   UNL     1      -4.561  -5.273  -6.067  0.00  0.00    +0.024 A 
ATOM     25  C   UNL     1      -5.695  -5.745  -6.661  0.00  0.00    +0.020 A 
ATOM     26  C   UNL     1      -6.950  -5.443  -6.117  0.00  0.00    +0.105 A 
ATOM     27  C   UNL     1      -7.035  -4.653  -4.958  0.00  0.00    +0.133 A 
ATOM     28  C   UNL     1      -5.877  -4.184  -4.362  0.00  0.00    +0.069 A 
BRANCH  26  29
ATOM     29  C   UNL     1      -8.172  -5.950  -6.755  0.00  0.00    +0.390 C 
ATOM     30  O   UNL     1      -8.095  -6.637  -7.765  0.00  0.00    -0.240 OA
ATOM     31  O   UNL     1      -9.267  -5.684  -6.278  0.00  0.00    -0.240 OA
ENDBRANCH  26  29
BRANCH  27  32
ATOM     32  O   UNL     1      -8.246  -4.355  -4.423  0.00  0.00    -0.506 OA
ATOM     33  H   UNL     1      -8.555  -4.996  -3.769  0.00  0.00    +0.292 HD
ENDBRANCH  27  32
ENDBRANCH  21  23
ENDBRANCH   5  21
TORSDOF 5
