REMARK  Name = ZINC09535466
REMARK  9 active torsions:
REMARK  status: ('A' for Active; 'I' for Inactive)
REMARK    1  A    between atoms: C_1  and  C_2
REMARK    2  A    between atoms: C_2  and  C_4
REMARK    3  A    between atoms: C_2  and  S_16
REMARK    4  A    between atoms: N_6  and  C_7
REMARK    5  A    between atoms: C_10  and  N_13
REMARK    6  A    between atoms: S_16  and  C_17
REMARK    7  A    between atoms: C_20  and  C_29
REMARK    8  A    between atoms: N_21  and  C_22
REMARK    9  A    between atoms: C_22  and  C_23
REMARK                            x       y       z     vdW  Elec       q    Type
REMARK                         _______ _______ _______ _____ _____    ______ ____
ROOT
ATOM      1  C   UNL     1       5.082   3.804  -0.323  0.00  0.00    +0.193 A 
ATOM      2  N   UNL     1       5.731   2.781   0.186  0.00  0.00    -0.122 NA
ATOM      3  N   UNL     1       4.927   1.796   0.370  0.00  0.00    -0.128 NA
ATOM      4  C   UNL     1       3.718   2.125  -0.019  0.00  0.00    +0.165 A 
ATOM      5  N   UNL     1       3.779   3.423  -0.471  0.00  0.00    -0.300 N 
ENDROOT
BRANCH   4   6
ATOM      6  C   UNL     1       2.515   1.266   0.026  0.00  0.00    +0.019 A 
ATOM      7  C   UNL     1       2.649  -0.121   0.106  0.00  0.00    +0.014 A 
ATOM      8  C   UNL     1       1.524  -0.918   0.147  0.00  0.00    +0.039 A 
ATOM      9  C   UNL     1       0.263  -0.344   0.110  0.00  0.00    +0.123 A 
ATOM     10  C   UNL     1       0.125   1.033   0.031  0.00  0.00    +0.039 A 
ATOM     11  C   UNL     1       1.243   1.839  -0.011  0.00  0.00    +0.014 A 
ATOM     12  F   UNL     1      -0.836  -1.129   0.149  0.00  0.00    -0.205 F 
ENDBRANCH   4   6
BRANCH   1  13
ATOM     13  S   UNL     1       5.765   5.375  -0.736  0.00  0.00    -0.074 S 
BRANCH  13  15
ATOM     14  C   UNL     1       8.102   4.026  -1.159  0.00  0.00    +0.029 C 
ATOM     15  C   UNL     1       7.490   5.102  -0.261  0.00  0.00    +0.137 C 
BRANCH  15  16
ATOM     16  C   UNL     1       8.263   6.386  -0.418  0.00  0.00    +0.230 C 
ATOM     17  O   UNL     1       7.835   7.269  -1.131  0.00  0.00    -0.274 OA
ATOM     18  N   UNL     1       9.431   6.554   0.234  0.00  0.00    -0.285 N 
ATOM     19  H   UNL     1       9.816   5.818   0.736  0.00  0.00    +0.155 HD
BRANCH  18  20
ATOM     20  C   UNL     1      10.088   7.788   0.188  0.00  0.00    +0.034 A 
ATOM     21  C   UNL     1      11.463   7.852   0.364  0.00  0.00    +0.025 A 
ATOM     22  C   UNL     1      12.109   9.072   0.313  0.00  0.00    +0.034 A 
ATOM     23  C   UNL     1      11.386  10.230   0.096  0.00  0.00    +0.126 A 
ATOM     24  C   UNL     1      10.015  10.171  -0.075  0.00  0.00    +0.034 A 
ATOM     25  C   UNL     1       9.364   8.954  -0.030  0.00  0.00    +0.025 A 
BRANCH  23  26
ATOM     26  N   UNL     1      12.081  11.536   0.046  0.00  0.00    +0.056 N 
ATOM     27  O   UNL     1      11.445  12.557  -0.145  0.00  0.00    -0.126 OA
ATOM     28  O   UNL     1      13.288  11.590   0.196  0.00  0.00    -0.126 OA
ENDBRANCH  23  26
ENDBRANCH  18  20
ENDBRANCH  15  16
ENDBRANCH  13  15
ENDBRANCH   1  13
BRANCH   5  29
ATOM     29  C   UNL     1       2.675   4.229  -1.001  0.00  0.00    +0.157 C 
BRANCH  29  30
ATOM     30  C   UNL     1       2.075   5.074   0.124  0.00  0.00    +0.138 C 
ATOM     31  C   UNL     1       0.840   5.839  -0.398  0.00  0.00    +0.035 C 
ATOM     32  C   UNL     1       0.985   7.217   0.303  0.00  0.00    +0.031 C 
ATOM     33  C   UNL     1       2.527   7.370   0.334  0.00  0.00    +0.160 C 
ATOM     34  O   UNL     1       3.030   6.045   0.566  0.00  0.00    -0.375 OA
ENDBRANCH  29  30
ENDBRANCH   5  29
TORSDOF 8
