REMARK  Name = ZINC15859242
REMARK  11 active torsions:
REMARK  status: ('A' for Active; 'I' for Inactive)
REMARK    1  A    between atoms: C_1  and  C_2
REMARK    2  A    between atoms: C_9  and  C_33
REMARK    3  A    between atoms: C_10  and  C_13
REMARK    4  A    between atoms: C_13  and  C_14
REMARK    5  A    between atoms: C_17  and  S_20
REMARK    6  A    between atoms: N_18  and  C_19
REMARK    7  A    between atoms: S_20  and  C_21
REMARK    8  A    between atoms: C_21  and  C_22
REMARK    9  A    between atoms: N_24  and  C_25
REMARK   10  A    between atoms: C_30  and  O_31
REMARK   11  A    between atoms: O_31  and  C_32
REMARK                            x       y       z     vdW  Elec       q    Type
REMARK                         _______ _______ _______ _____ _____    ______ ____
ROOT
ATOM      1  C   UNL     1       4.961   4.462   1.394  0.00  0.00    +0.138 A 
ATOM      2  N   UNL     1       4.739   5.487   2.167  0.00  0.00    -0.133 NA
ATOM      3  N   UNL     1       5.415   5.375   3.254  0.00  0.00    -0.122 NA
ATOM      4  C   UNL     1       6.120   4.268   3.229  0.00  0.00    +0.192 A 
ATOM      5  N   UNL     1       5.852   3.650   2.041  0.00  0.00    -0.309 N 
ATOM      6  C   UNL     1       6.404   2.382   1.558  0.00  0.00    +0.152 C 
ENDROOT
BRANCH   1   7
ATOM      7  C   UNL     1       4.355   4.219   0.036  0.00  0.00    +0.118 C 
BRANCH   7  17
ATOM      8  C   UNL     1      -1.998   2.941   0.558  0.00  0.00    +0.047 C 
ATOM      9  C   UNL     1      -0.793   2.039   0.637  0.00  0.00    -0.008 A 
ATOM     10  C   UNL     1      -0.948   0.702   0.847  0.00  0.00    +0.008 A 
ATOM     11  C   UNL     1       0.183  -0.124   0.911  0.00  0.00    +0.019 A 
ATOM     12  C   UNL     1       1.419   0.404   0.766  0.00  0.00    +0.096 A 
ATOM     13  N   UNL     1       1.585   1.739   0.556  0.00  0.00    -0.268 N 
ATOM     14  C   UNL     1       0.501   2.570   0.488  0.00  0.00    +0.143 A 
ATOM     15  N   UNL     1       0.655   3.877   0.283  0.00  0.00    -0.234 NA
ATOM     16  C   UNL     1       1.856   4.415   0.139  0.00  0.00    +0.049 A 
ATOM     17  C   UNL     1       2.982   3.618   0.199  0.00  0.00    +0.046 A 
ATOM     18  C   UNL     1       2.829   2.244   0.414  0.00  0.00    +0.262 A 
ATOM     19  O   UNL     1       3.805   1.512   0.472  0.00  0.00    -0.267 OA
ATOM     20  C   UNL     1       1.994   5.898  -0.092  0.00  0.00    +0.066 C 
ENDBRANCH   7  17
ENDBRANCH   1   7
BRANCH   4  21
ATOM     21  S   UNL     1       7.205   3.687   4.489  0.00  0.00    -0.077 S 
BRANCH  21  22
ATOM     22  C   UNL     1       7.021   5.020   5.700  0.00  0.00    +0.173 C 
BRANCH  22  23
ATOM     23  C   UNL     1       7.885   4.730   6.901  0.00  0.00    +0.228 C 
ATOM     24  O   UNL     1       8.558   3.722   6.935  0.00  0.00    -0.275 OA
ATOM     25  N   UNL     1       7.909   5.592   7.937  0.00  0.00    -0.282 N 
ATOM     26  H   UNL     1       7.432   6.435   7.879  0.00  0.00    +0.155 HD
BRANCH  25  27
ATOM     27  C   UNL     1       8.622   5.270   9.100  0.00  0.00    +0.076 A 
ATOM     28  C   UNL     1       8.961   3.951   9.365  0.00  0.00    +0.027 A 
ATOM     29  C   UNL     1       9.669   3.637  10.509  0.00  0.00    +0.002 A 
ATOM     30  C   UNL     1      10.033   4.633  11.397  0.00  0.00    +0.004 A 
ATOM     31  C   UNL     1       9.694   5.949  11.142  0.00  0.00    +0.047 A 
ATOM     32  C   UNL     1       8.989   6.273   9.994  0.00  0.00    +0.141 A 
BRANCH  32  33
ATOM     33  O   UNL     1       8.654   7.567   9.742  0.00  0.00    -0.493 OA
ATOM     34  C   UNL     1       9.063   8.542  10.704  0.00  0.00    +0.277 C 
ENDBRANCH  32  33
ENDBRANCH  25  27
ENDBRANCH  22  23
ENDBRANCH  21  22
ENDBRANCH   4  21
TORSDOF 7
