REMARK  Name = ZINC45873726
REMARK  7 active torsions:
REMARK  status: ('A' for Active; 'I' for Inactive)
REMARK    1  A    between atoms: C_4  and  C_7
REMARK    2  A    between atoms: C_7  and  N_8
REMARK    3  A    between atoms: N_11  and  C_12
REMARK    4  A    between atoms: C_12  and  C_17
REMARK    5  A    between atoms: N_19  and  C_20
REMARK    6  A    between atoms: C_20  and  C_21
REMARK    7  A    between atoms: C_21  and  C_22
REMARK                            x       y       z     vdW  Elec       q    Type
REMARK                         _______ _______ _______ _____ _____    ______ ____
ROOT
ATOM      1  C   UNL     1       6.918  -2.624   3.086  0.00  0.00    +0.112 C 
ATOM      2  C   UNL     1       8.246  -1.934   2.715  0.00  0.00    +0.035 C 
ATOM      3  C   UNL     1       8.692  -1.238   4.025  0.00  0.00    +0.003 C 
ATOM      4  C   UNL     1       8.286  -2.264   5.112  0.00  0.00    +0.003 C 
ATOM      5  C   UNL     1       6.943  -2.834   4.610  0.00  0.00    +0.035 C 
ENDROOT
BRANCH   1   9
ATOM      6  N   UNL     1       4.433  -0.816   1.071  0.00  0.00    -0.295 N 
ATOM      7  C   UNL     1       5.530  -1.517   1.417  0.00  0.00    +0.301 C 
ATOM      8  O   UNL     1       6.289  -1.923   0.557  0.00  0.00    -0.253 OA
ATOM      9  N   UNL     1       5.787  -1.770   2.716  0.00  0.00    -0.285 N 
ATOM     10  H   UNL     1       3.828  -0.493   1.757  0.00  0.00    +0.151 HD
ATOM     11  H   UNL     1       5.224  -1.385   3.405  0.00  0.00    +0.151 HD
BRANCH   6  12
ATOM     12  C   UNL     1       4.154  -0.542  -0.341  0.00  0.00    +0.141 C 
BRANCH  12  16
ATOM     13  C   UNL     1       0.538   1.709  -0.669  0.00  0.00    +0.000 A 
ATOM     14  C   UNL     1       1.750   2.362  -0.541  0.00  0.00    +0.000 A 
ATOM     15  C   UNL     1       2.920   1.634  -0.435  0.00  0.00    +0.005 A 
ATOM     16  C   UNL     1       2.878   0.252  -0.456  0.00  0.00    -0.030 A 
ATOM     17  C   UNL     1       1.666  -0.401  -0.582  0.00  0.00    +0.005 A 
ATOM     18  C   UNL     1       0.496   0.328  -0.690  0.00  0.00    +0.000 A 
ENDBRANCH  12  16
ENDBRANCH   6  12
ENDBRANCH   1   9
BRANCH   1  19
ATOM     19  C   UNL     1       6.811  -3.954   2.384  0.00  0.00    +0.237 C 
ATOM     20  O   UNL     1       7.814  -4.517   1.997  0.00  0.00    -0.273 OA
ATOM     21  N   UNL     1       5.603  -4.516   2.185  0.00  0.00    -0.313 N 
ATOM     22  H   UNL     1       4.809  -4.103   2.558  0.00  0.00    +0.149 HD
BRANCH  21  23
ATOM     23  C   UNL     1       5.489  -5.752   1.407  0.00  0.00    +0.110 C 
BRANCH  23  24
ATOM     24  C   UNL     1       4.021  -6.175   1.333  0.00  0.00    +0.073 C 
BRANCH  24  25
ATOM     25  C   UNL     1       3.904  -7.446   0.532  0.00  0.00    +0.036 A 
ATOM     26  C   UNL     1       3.820  -7.524  -0.814  0.00  0.00    +0.113 A 
ATOM     27  N   UNL     1       3.729  -8.851  -1.136  0.00  0.00    -0.308 N 
ATOM     28  C   UNL     1       3.623  -9.506  -2.329  0.00  0.00    +0.092 A 
ATOM     29  C   UNL     1       3.548 -10.853  -2.369  0.00  0.00    +0.018 A 
ATOM     30  C   UNL     1       3.577 -11.600  -1.180  0.00  0.00    +0.005 A 
ATOM     31  C   UNL     1       3.682 -10.960   0.016  0.00  0.00    +0.045 A 
ATOM     32  C   UNL     1       3.760  -9.553   0.041  0.00  0.00    +0.115 A 
ATOM     33  N   UNL     1       3.871  -8.682   1.034  0.00  0.00    -0.343 N 
ATOM     34  H   UNL     1       3.918  -8.908   1.977  0.00  0.00    +0.167 HD
ENDBRANCH  24  25
ENDBRANCH  23  24
ENDBRANCH  21  23
ENDBRANCH   1  19
TORSDOF 7
