REMARK  Name = ZINC14470780
REMARK  7 active torsions:
REMARK  status: ('A' for Active; 'I' for Inactive)
REMARK    1  A    between atoms: C_1  and  C_2
REMARK    2  A    between atoms: C_5  and  N_9
REMARK    3  A    between atoms: C_6  and  C_8
REMARK    4  A    between atoms: N_9  and  S_10
REMARK    5  A    between atoms: S_10  and  C_13
REMARK    6  A    between atoms: C_26  and  C_29
REMARK    7  A    between atoms: C_33  and  N_35
REMARK                            x       y       z     vdW  Elec       q    Type
REMARK                         _______ _______ _______ _____ _____    ______ ____
ROOT
ATOM      1  C   UNL     1      -1.347   2.634  -3.189  0.00  0.00    +0.109 A 
ATOM      2  C   UNL     1      -2.721   2.796  -3.205  0.00  0.00    +0.030 A 
ATOM      3  C   UNL     1      -3.452   2.470  -2.111  0.00  0.00    +0.025 A 
ATOM      4  C   UNL     1      -2.835   2.046  -0.941  0.00  0.00    +0.031 A 
ATOM      5  C   UNL     1      -1.452   1.905  -0.910  0.00  0.00    -0.018 A 
ATOM      6  C   UNL     1      -0.718   2.189  -2.041  0.00  0.00    +0.034 A 
ATOM      7  C   UNL     1      -0.831   1.410   0.337  0.00  0.00    +0.049 C 
ATOM      8  C   UNL     1       0.575   1.729   0.696  0.00  0.00    -0.023 C 
ATOM      9  C   UNL     1       0.668   1.801   2.019  0.00  0.00    -0.030 C 
ATOM     10  C   UNL     1      -0.704   1.565   2.653  0.00  0.00    +0.033 C 
ATOM     11  C   UNL     1      -1.647   2.002   1.524  0.00  0.00    +0.029 C 
ATOM     12  C   UNL     1      -3.006   1.328   1.457  0.00  0.00    +0.105 C 
ATOM     13  N   UNL     1      -3.617   1.791   0.192  0.00  0.00    -0.336 N 
ATOM     14  H   UNL     1      -4.578   1.919   0.147  0.00  0.00    +0.147 HD
ENDROOT
BRANCH  12  15
ATOM     15  C   UNL     1      -2.843  -0.170   1.440  0.00  0.00    -0.025 A 
ATOM     16  C   UNL     1      -2.798  -0.874   2.629  0.00  0.00    +0.007 A 
ATOM     17  C   UNL     1      -2.649  -2.247   2.614  0.00  0.00    +0.022 A 
ATOM     18  C   UNL     1      -2.545  -2.919   1.409  0.00  0.00    +0.071 A 
ATOM     19  C   UNL     1      -2.591  -2.214   0.219  0.00  0.00    +0.145 A 
ATOM     20  C   UNL     1      -2.746  -0.840   0.235  0.00  0.00    +0.039 A 
ATOM     21 CL   UNL     1      -2.359  -4.644   1.389  0.00  0.00    -0.081 Cl
BRANCH  19  22
ATOM     22  N   UNL     1      -2.481  -2.931  -1.071  0.00  0.00    +0.058 N 
ATOM     23  O   UNL     1      -2.521  -2.311  -2.118  0.00  0.00    -0.126 OA
ATOM     24  O   UNL     1      -2.350  -4.142  -1.085  0.00  0.00    -0.126 OA
ENDBRANCH  19  22
ENDBRANCH  12  15
BRANCH   1  25
ATOM     25  S   UNL     1      -0.400   2.995  -4.630  0.00  0.00    +0.072 S 
ATOM     26  O   UNL     1      -1.164   3.914  -5.398  0.00  0.00    -0.150 OA
ATOM     27  O   UNL     1       0.919   3.283  -4.188  0.00  0.00    -0.150 OA
BRANCH  25  28
ATOM     28  N   UNL     1      -0.308   1.599  -5.517  0.00  0.00    -0.216 N 
ATOM     29  H   UNL     1       0.556   1.200  -5.704  0.00  0.00    +0.174 HD
BRANCH  28  34
ATOM     30  C   UNL     1      -5.042  -0.843  -7.463  0.00  0.00    +0.044 C 
ATOM     31  C   UNL     1      -3.784  -0.194  -6.945  0.00  0.00    -0.050 A 
ATOM     32  C   UNL     1      -3.694   1.185  -6.883  0.00  0.00    +0.005 A 
ATOM     33  C   UNL     1      -2.543   1.783  -6.410  0.00  0.00    +0.025 A 
ATOM     34  C   UNL     1      -1.474   0.998  -5.996  0.00  0.00    +0.051 A 
ATOM     35  C   UNL     1      -1.566  -0.387  -6.064  0.00  0.00    -0.028 A 
ATOM     36  C   UNL     1      -2.722  -0.978  -6.533  0.00  0.00    +0.008 A 
ATOM     37  C   UNL     1      -0.407  -1.242  -5.621  0.00  0.00    +0.046 C 
ENDBRANCH  28  34
ENDBRANCH  25  28
ENDBRANCH   1  25
TORSDOF 5
