REMARK  Name = ZINC35675925
REMARK  14 active torsions:
REMARK  status: ('A' for Active; 'I' for Inactive)
REMARK    1  A    between atoms: C_1  and  C_2
REMARK    2  A    between atoms: C_2  and  C_3
REMARK    3  A    between atoms: C_2  and  C_4
REMARK    4  A    between atoms: C_6  and  N_25
REMARK    5  A    between atoms: C_8  and  S_10
REMARK    6  A    between atoms: S_10  and  C_11
REMARK    7  A    between atoms: C_11  and  C_12
REMARK    8  A    between atoms: C_15  and  C_17
REMARK    9  A    between atoms: N_19  and  C_20
REMARK   10  A    between atoms: C_20  and  C_21
REMARK   11  A    between atoms: C_21  and  N_22
REMARK   12  A    between atoms: N_22  and  C_23
REMARK   13  A    between atoms: N_22  and  C_24
REMARK   14  A    between atoms: N_28  and  C_31
REMARK                            x       y       z     vdW  Elec       q    Type
REMARK                         _______ _______ _______ _____ _____    ______ ____
ROOT
ATOM      1  C   UNL     1      -1.499  -0.337  -0.015  0.00  0.00    +0.050 A 
ATOM      2  C   UNL     1      -2.184  -0.474   1.177  0.00  0.00    +0.067 A 
ATOM      3  C   UNL     1      -3.402  -1.158   1.171  0.00  0.00    +0.126 A 
ATOM      4  N   UNL     1      -3.858  -1.651   0.024  0.00  0.00    -0.207 NA
ATOM      5  C   UNL     1      -3.171  -1.498  -1.098  0.00  0.00    +0.191 A 
ATOM      6  N   UNL     1      -2.015  -0.849  -1.122  0.00  0.00    -0.226 NA
ENDROOT
BRANCH   3   7
ATOM      7  N   UNL     1      -4.123  -1.320   2.342  0.00  0.00    -0.312 N 
ATOM      8  C   UNL     1      -5.498  -1.838   2.309  0.00  0.00    +0.125 C 
ATOM      9  C   UNL     1      -5.582  -3.065   3.225  0.00  0.00    +0.124 C 
ATOM     10  N   UNL     1      -4.985  -2.722   4.524  0.00  0.00    -0.325 N 
ATOM     11  C   UNL     1      -3.610  -2.204   4.558  0.00  0.00    +0.124 C 
ATOM     12  C   UNL     1      -3.524  -0.983   3.642  0.00  0.00    +0.125 C 
BRANCH  10  13
ATOM     13  C   UNL     1      -5.713  -2.886   5.707  0.00  0.00    +0.065 A 
ATOM     14  C   UNL     1      -5.651  -4.087   6.401  0.00  0.00    +0.026 A 
ATOM     15  C   UNL     1      -6.371  -4.245   7.570  0.00  0.00    +0.002 A 
ATOM     16  C   UNL     1      -7.153  -3.211   8.049  0.00  0.00    +0.003 A 
ATOM     17  C   UNL     1      -7.219  -2.013   7.360  0.00  0.00    +0.040 A 
ATOM     18  C   UNL     1      -6.496  -1.845   6.194  0.00  0.00    +0.144 A 
ATOM     19  F   UNL     1      -6.555  -0.673   5.524  0.00  0.00    -0.204 F 
ENDBRANCH  10  13
ENDBRANCH   3   7
BRANCH   1  21
ATOM     20  C   UNL     1      -0.434   1.896  -0.194  0.00  0.00    +0.014 C 
ATOM     21  C   UNL     1      -0.181   0.393  -0.056  0.00  0.00    +0.032 C 
ATOM     22  C   UNL     1       0.592   0.124   1.237  0.00  0.00    +0.014 C 
ENDBRANCH   1  21
BRANCH   5  23
ATOM     23  S   UNL     1      -3.811  -2.167  -2.597  0.00  0.00    -0.078 S 
BRANCH  23  24
ATOM     24  C   UNL     1      -5.375  -2.940  -2.099  0.00  0.00    +0.151 C 
BRANCH  24  25
ATOM     25  C   UNL     1      -6.035  -3.559  -3.304  0.00  0.00    +0.116 A 
ATOM     26  C   UNL     1      -5.856  -4.827  -3.735  0.00  0.00    +0.046 A 
ATOM     27  C   UNL     1      -6.652  -4.992  -4.879  0.00  0.00    +0.055 A 
ATOM     28  C   UNL     1      -7.285  -3.801  -5.091  0.00  0.00    +0.189 A 
ATOM     29  O   UNL     1      -6.901  -2.945  -4.121  0.00  0.00    -0.454 OA
BRANCH  28  30
ATOM     30  C   UNL     1      -8.222  -3.504  -6.180  0.00  0.00    +0.279 C 
ATOM     31  O   UNL     1      -8.495  -4.363  -6.997  0.00  0.00    -0.267 OA
ATOM     32  N   UNL     1      -8.780  -2.281  -6.274  0.00  0.00    -0.311 N 
ATOM     33  H   UNL     1      -8.562  -1.597  -5.623  0.00  0.00    +0.149 HD
BRANCH  32  34
ATOM     34  C   UNL     1      -9.715  -1.985  -7.362  0.00  0.00    +0.086 C 
BRANCH  34  35
ATOM     35  C   UNL     1     -10.199  -0.539  -7.240  0.00  0.00    -0.061 C 
BRANCH  35  36
ATOM     36  N   UNL     1     -11.137  -0.242  -8.330  0.00  0.00    +0.377 N 
ATOM     37  C   UNL     1     -11.692   1.105  -8.145  0.00  0.00    -0.097 C 
ATOM     38  C   UNL     1     -10.430  -0.308  -9.616  0.00  0.00    -0.097 C 
ATOM     39  H   UNL     1     -11.886  -0.918  -8.323  0.00  0.00    -0.083 HD
ENDBRANCH  35  36
ENDBRANCH  34  35
ENDBRANCH  32  34
ENDBRANCH  28  30
ENDBRANCH  24  25
ENDBRANCH  23  24
ENDBRANCH   5  23
TORSDOF 10
