REMARK  Name = ZINC35264273
REMARK  15 active torsions:
REMARK  status: ('A' for Active; 'I' for Inactive)
REMARK    1  A    between atoms: C_1  and  C_2
REMARK    2  A    between atoms: C_2  and  O_3
REMARK    3  A    between atoms: O_3  and  C_4
REMARK    4  A    between atoms: C_7  and  C_10
REMARK    5  A    between atoms: C_12  and  C_32
REMARK    6  A    between atoms: C_13  and  C_31
REMARK    7  A    between atoms: C_20  and  C_21
REMARK    8  A    between atoms: C_24  and  O_29
REMARK    9  A    between atoms: C_25  and  O_27
REMARK   10  A    between atoms: O_27  and  C_28
REMARK   11  A    between atoms: C_32  and  O_34
REMARK   12  A    between atoms: O_34  and  C_35
REMARK   13  A    between atoms: C_35  and  C_36
REMARK   14  A    between atoms: C_36  and  O_37
REMARK   15  A    between atoms: O_37  and  C_38
REMARK                            x       y       z     vdW  Elec       q    Type
REMARK                         _______ _______ _______ _____ _____    ______ ____
ROOT
ATOM      1  C   UNL     1      -1.865  -6.868   0.291  0.00  0.00    +0.162 C 
ATOM      2  C   UNL     1      -2.074  -7.435  -1.094  0.00  0.00    +0.085 C 
ATOM      3  C   UNL     1      -3.315  -7.913  -1.413  0.00  0.00    +0.053 C 
ATOM      4  N   UNL     1      -4.301  -7.875  -0.525  0.00  0.00    -0.228 NA
ATOM      5  C   UNL     1      -4.194  -7.400   0.690  0.00  0.00    +0.178 A 
ATOM      6  N   UNL     1      -3.036  -6.872   1.212  0.00  0.00    -0.275 N 
ATOM      7  C   UNL     1      -3.049  -6.415   2.470  0.00  0.00    +0.268 A 
ATOM      8  O   UNL     1      -2.049  -5.939   2.975  0.00  0.00    -0.266 OA
ATOM      9  C   UNL     1      -4.308  -6.505   3.224  0.00  0.00    +0.081 A 
ATOM     10  C   UNL     1      -4.581  -6.118   4.497  0.00  0.00    +0.028 C 
ATOM     11  S   UNL     1      -5.379  -7.261   2.014  0.00  0.00    -0.046 S 
ATOM     12  C   UNL     1      -3.565  -8.486  -2.784  0.00  0.00    +0.066 C 
ENDROOT
BRANCH   1  16
ATOM     13  C   UNL     1      -0.539  -2.828  -0.130  0.00  0.00    +0.121 A 
ATOM     14  C   UNL     1       0.385  -3.847   0.050  0.00  0.00    +0.046 A 
ATOM     15  C   UNL     1      -0.046  -5.152   0.187  0.00  0.00    +0.009 A 
ATOM     16  C   UNL     1      -1.397  -5.443   0.143  0.00  0.00    -0.020 A 
ATOM     17  C   UNL     1      -2.320  -4.429  -0.037  0.00  0.00    +0.009 A 
ATOM     18  C   UNL     1      -1.894  -3.122  -0.168  0.00  0.00    +0.046 A 
BRANCH  13  19
ATOM     19  O   UNL     1      -0.117  -1.542  -0.264  0.00  0.00    -0.492 OA
BRANCH  19  21
ATOM     20  C   UNL     1       1.573   0.181  -0.382  0.00  0.00    +0.048 C 
ATOM     21  C   UNL     1       1.293  -1.314  -0.215  0.00  0.00    +0.225 C 
ENDBRANCH  19  21
ENDBRANCH  13  19
ENDBRANCH   1  16
BRANCH  10  22
ATOM     22  C   UNL     1      -5.872  -6.460   5.107  0.00  0.00    -0.020 A 
ATOM     23  C   UNL     1      -6.672  -7.462   4.543  0.00  0.00    +0.012 A 
ATOM     24  C   UNL     1      -7.882  -7.781   5.118  0.00  0.00    +0.050 A 
ATOM     25  C   UNL     1      -8.312  -7.112   6.256  0.00  0.00    +0.158 A 
ATOM     26  C   UNL     1      -7.521  -6.114   6.824  0.00  0.00    +0.162 A 
ATOM     27  C   UNL     1      -6.304  -5.790   6.258  0.00  0.00    +0.057 A 
BRANCH  26  28
ATOM     28  O   UNL     1      -7.947  -5.461   7.939  0.00  0.00    -0.491 OA
ATOM     29  C   UNL     1      -7.087  -4.450   8.467  0.00  0.00    +0.277 C 
ENDBRANCH  26  28
BRANCH  25  30
ATOM     30  O   UNL     1      -9.507  -7.431   6.818  0.00  0.00    -0.503 OA
ATOM     31  H   UNL     1      -9.454  -8.128   7.487  0.00  0.00    +0.292 HD
ENDBRANCH  25  30
ENDBRANCH  10  22
BRANCH   2  32
ATOM     32  C   UNL     1      -1.025  -7.471  -2.027  0.00  0.00    +0.339 C 
ATOM     33  O   UNL     1      -1.172  -8.052  -3.087  0.00  0.00    -0.245 OA
BRANCH  32  34
ATOM     34  O   UNL     1       0.148  -6.861  -1.748  0.00  0.00    -0.459 OA
BRANCH  34  35
ATOM     35  C   UNL     1       1.171  -6.937  -2.742  0.00  0.00    +0.260 C 
BRANCH  35  36
ATOM     36  C   UNL     1       2.415  -6.194  -2.251  0.00  0.00    +0.200 C 
BRANCH  36  37
ATOM     37  O   UNL     1       2.949  -6.862  -1.107  0.00  0.00    -0.380 OA
ATOM     38  C   UNL     1       4.120  -6.246  -0.567  0.00  0.00    +0.194 C 
ENDBRANCH  36  37
ENDBRANCH  35  36
ENDBRANCH  34  35
ENDBRANCH  32  34
ENDBRANCH   2  32
TORSDOF 11
