REMARK  Name = ZINC02889168
REMARK  7 active torsions:
REMARK  status: ('A' for Active; 'I' for Inactive)
REMARK    1  A    between atoms: C_1  and  C_2
REMARK    2  A    between atoms: N_13  and  C_32
REMARK    3  A    between atoms: C_14  and  S_16
REMARK    4  A    between atoms: S_16  and  C_17
REMARK    5  A    between atoms: C_17  and  C_18
REMARK    6  A    between atoms: C_23  and  C_26
REMARK    7  A    between atoms: C_32  and  C_33
REMARK                            x       y       z     vdW  Elec       q    Type
REMARK                         _______ _______ _______ _____ _____    ______ ____
ROOT
ATOM      1  C   UNL     1      -3.665  -1.546  -8.858  0.00  0.00    +0.008 C 
ATOM      2  C   UNL     1      -2.928  -1.553  -7.518  0.00  0.00    -0.009 C 
ATOM      3  C   UNL     1      -3.776  -0.842  -6.460  0.00  0.00    +0.008 C 
ATOM      4  C   UNL     1      -2.952  -0.627  -5.191  0.00  0.00    +0.037 C 
ATOM      5  C   UNL     1      -2.349  -1.962  -4.763  0.00  0.00    -0.023 A 
ATOM      6  C   UNL     1      -2.256  -2.987  -5.634  0.00  0.00    -0.004 A 
ATOM      7  S   UNL     1      -1.509  -4.306  -4.716  0.00  0.00    -0.073 S 
ATOM      8  C   UNL     1      -1.320  -3.474  -3.159  0.00  0.00    +0.117 A 
ATOM      9  C   UNL     1      -1.848  -2.195  -3.407  0.00  0.00    +0.076 A 
ATOM     10  C   UNL     1      -1.832  -1.289  -2.300  0.00  0.00    +0.263 A 
ATOM     11  O   UNL     1      -2.274  -0.159  -2.419  0.00  0.00    -0.267 OA
ATOM     12  N   UNL     1      -1.318  -1.700  -1.126  0.00  0.00    -0.283 N 
ATOM     13  C   UNL     1      -0.824  -2.963  -0.972  0.00  0.00    +0.173 A 
ATOM     14  N   UNL     1      -0.832  -3.819  -1.974  0.00  0.00    -0.216 NA
ATOM     15  C   UNL     1      -2.693  -3.002  -7.067  0.00  0.00    +0.046 C 
ENDROOT
BRANCH  13  16
ATOM     16  S   UNL     1      -0.167  -3.455   0.587  0.00  0.00    -0.078 S 
BRANCH  16  17
ATOM     17  C   UNL     1       0.315  -5.157   0.201  0.00  0.00    +0.173 C 
BRANCH  17  18
ATOM     18  C   UNL     1       0.920  -5.797   1.424  0.00  0.00    +0.229 C 
ATOM     19  O   UNL     1       1.016  -5.165   2.455  0.00  0.00    -0.275 OA
ATOM     20  N   UNL     1       1.354  -7.072   1.373  0.00  0.00    -0.263 N 
ATOM     21  C   UNL     1       1.911  -7.662   2.498  0.00  0.00    +0.185 A 
ATOM     22  N   UNL     1       2.385  -8.887   2.652  0.00  0.00    -0.204 NA
ATOM     23  C   UNL     1       2.877  -9.234   3.826  0.00  0.00    +0.170 A 
ATOM     24  N   UNL     1       2.873  -8.359   4.813  0.00  0.00    -0.187 NA
ATOM     25  S   UNL     1       2.161  -6.987   4.077  0.00  0.00    +0.050 S 
ATOM     26  H   UNL     1       1.277  -7.578   0.548  0.00  0.00    +0.157 HD
BRANCH  23  27
ATOM     27  C   UNL     1       3.423 -10.597   4.036  0.00  0.00    +0.020 A 
ATOM     28  C   UNL     1       3.419 -11.520   2.992  0.00  0.00    +0.011 A 
ATOM     29  C   UNL     1       3.935 -12.785   3.191  0.00  0.00    +0.001 A 
ATOM     30  C   UNL     1       4.443 -13.141   4.427  0.00  0.00    +0.000 A 
ATOM     31  C   UNL     1       4.444 -12.230   5.468  0.00  0.00    +0.001 A 
ATOM     32  C   UNL     1       3.937 -10.961   5.279  0.00  0.00    +0.011 A 
ENDBRANCH  23  27
ENDBRANCH  17  18
ENDBRANCH  16  17
ENDBRANCH  13  16
BRANCH  12  33
ATOM     33  C   UNL     1      -1.293  -0.775   0.010  0.00  0.00    +0.154 C 
BRANCH  33  34
ATOM     34  C   UNL     1       0.002  -0.004   0.002  0.00  0.00    -0.013 C 
ATOM     35  C   UNL     1      -0.016   1.306   0.009  0.00  0.00    +0.005 C 
ENDBRANCH  33  34
ENDBRANCH  12  33
TORSDOF 6
