REMARK  Name = ZINC07533060
REMARK  8 active torsions:
REMARK  status: ('A' for Active; 'I' for Inactive)
REMARK    1  A    between atoms: C_1  and  C_2
REMARK    2  A    between atoms: C_5  and  N_9
REMARK    3  A    between atoms: C_7  and  C_8
REMARK    4  A    between atoms: C_12  and  C_15
REMARK    5  A    between atoms: C_15  and  O_16
REMARK    6  A    between atoms: O_16  and  C_17
REMARK    7  A    between atoms: C_17  and  C_19
REMARK    8  A    between atoms: C_24  and  C_26
REMARK                            x       y       z     vdW  Elec       q    Type
REMARK                         _______ _______ _______ _____ _____    ______ ____
ROOT
ATOM      1  N   UNL     1       2.356   3.889   0.001  0.00  0.00    -0.219 N 
ATOM      2  C   UNL     1       3.571   3.216   0.090  0.00  0.00    +0.172 A 
ATOM      3  N   UNL     1       4.788   3.713   0.187  0.00  0.00    -0.226 NA
ATOM      4  C   UNL     1       5.844   2.926   0.264  0.00  0.00    +0.088 A 
ATOM      5  C   UNL     1       5.652   1.585   0.242  0.00  0.00    +0.075 A 
ATOM      6  S   UNL     1       3.872   1.506   0.111  0.00  0.00    -0.060 S 
ATOM      7  C   UNL     1       2.336   5.233  -0.096  0.00  0.00    +0.223 C 
ATOM      8  O   UNL     1       3.376   5.850  -0.196  0.00  0.00    -0.275 OA
ATOM      9  C   UNL     1       1.022   5.970  -0.079  0.00  0.00    +0.110 C 
ENDROOT
BRANCH   1  14
ATOM     10  C   UNL     1      -2.506   0.964   0.049  0.00  0.00    +0.044 C 
ATOM     11  C   UNL     1      -1.216   1.743   0.035  0.00  0.00    -0.047 A 
ATOM     12  C   UNL     1      -0.878   2.538   1.115  0.00  0.00    +0.005 A 
ATOM     13  C   UNL     1       0.306   3.249   1.108  0.00  0.00    +0.024 A 
ATOM     14  C   UNL     1       1.155   3.170   0.011  0.00  0.00    +0.043 A 
ATOM     15  C   UNL     1       0.810   2.376  -1.074  0.00  0.00    +0.027 A 
ATOM     16  C   UNL     1      -0.376   1.667  -1.061  0.00  0.00    -0.046 A 
ATOM     17  C   UNL     1      -0.751   0.806  -2.239  0.00  0.00    +0.044 C 
ENDBRANCH   1  14
BRANCH   4  18
ATOM     18  C   UNL     1       7.231   3.506   0.375  0.00  0.00    +0.288 C 
BRANCH  18  19
ATOM     19  O   UNL     1       8.201   2.428   0.444  0.00  0.00    -0.454 OA
BRANCH  19  20
ATOM     20  C   UNL     1       9.499   2.778   0.547  0.00  0.00    +0.346 C 
ATOM     21  O   UNL     1       9.812   3.953   0.578  0.00  0.00    -0.244 OA
BRANCH  20  22
ATOM     22  C   UNL     1      10.533   1.744   0.621  0.00  0.00    +0.096 A 
ATOM     23  C   UNL     1      11.909   1.889   0.723  0.00  0.00    +0.022 A 
ATOM     24  C   UNL     1      12.655   0.739   0.779  0.00  0.00    +0.008 A 
ATOM     25  C   UNL     1      12.026  -0.464   0.723  0.00  0.00    +0.046 A 
ATOM     26  S   UNL     1      10.352  -0.030   0.596  0.00  0.00    -0.090 S 
ENDBRANCH  20  22
ENDBRANCH  19  20
ENDBRANCH  18  19
ENDBRANCH   4  18
TORSDOF 5
