REMARK  Name = ZINC08846188
REMARK  7 active torsions:
REMARK  status: ('A' for Active; 'I' for Inactive)
REMARK    1  A    between atoms: C_2  and  C_3
REMARK    2  A    between atoms: C_3  and  O_4
REMARK    3  A    between atoms: O_4  and  C_5
REMARK    4  A    between atoms: C_10  and  C_11
REMARK    5  A    between atoms: C_16  and  N_25
REMARK    6  A    between atoms: C_20  and  N_24
REMARK    7  A    between atoms: C_21  and  C_22
REMARK                            x       y       z     vdW  Elec       q    Type
REMARK                         _______ _______ _______ _____ _____    ______ ____
ROOT
ATOM      1  C   UNL     1       2.466   3.918  -0.002  0.00  0.00    +0.101 C 
ATOM      2  C   UNL     1       1.161   3.167   0.007  0.00  0.00    +0.008 A 
ATOM      3  C   UNL     1       1.173   1.783   0.000  0.00  0.00    +0.010 A 
ATOM      4  C   UNL     1      -0.013   1.076   0.008  0.00  0.00    +0.023 A 
ATOM      5  C   UNL     1      -1.225   1.755   0.017  0.00  0.00    +0.028 A 
ATOM      6  C   UNL     1      -1.240   3.142   0.030  0.00  0.00    +0.069 A 
ATOM      7  C   UNL     1      -0.045   3.849   0.022  0.00  0.00    +0.136 A 
ATOM      8  O   UNL     1      -0.077   5.205   0.027  0.00  0.00    -0.441 OA
ATOM      9  C   UNL     1       1.002   5.902  -0.365  0.00  0.00    +0.199 C 
ATOM     10  C   UNL     1       2.238   5.349  -0.401  0.00  0.00    +0.098 C 
ENDROOT
BRANCH   1  16
ATOM     11  C   UNL     1       4.321   3.301   1.568  0.00  0.00    +0.125 A 
ATOM     12  C   UNL     1       4.880   3.270   2.837  0.00  0.00    +0.046 A 
ATOM     13  C   UNL     1       4.191   3.804   3.908  0.00  0.00    +0.004 A 
ATOM     14  C   UNL     1       2.945   4.373   3.716  0.00  0.00    +0.001 A 
ATOM     15  C   UNL     1       2.388   4.410   2.451  0.00  0.00    +0.008 A 
ATOM     16  C   UNL     1       3.074   3.878   1.376  0.00  0.00    +0.007 A 
BRANCH  11  17
ATOM     17  O   UNL     1       4.996   2.772   0.513  0.00  0.00    -0.488 OA
BRANCH  17  18
ATOM     18  C   UNL     1       6.275   2.196   0.785  0.00  0.00    +0.256 C 
BRANCH  18  20
ATOM     19  C   UNL     1       8.124   1.900  -0.781  0.00  0.00    +0.007 C 
ATOM     20  C   UNL     1       6.868   1.664  -0.495  0.00  0.00    +0.006 C 
ENDBRANCH  18  20
ENDBRANCH  17  18
ENDBRANCH  11  17
ENDBRANCH   1  16
BRANCH   9  21
ATOM     21  N   UNL     1       0.849   7.214  -0.739  0.00  0.00    -0.328 N 
ATOM     22  H   UNL     1       1.619   7.730  -1.023  0.00  0.00    +0.145 HD
ATOM     23  H   UNL     1      -0.030   7.624  -0.718  0.00  0.00    +0.145 HD
ENDBRANCH   9  21
BRANCH   5  24
ATOM     24  N   UNL     1      -2.426   1.042   0.019  0.00  0.00    -0.358 N 
ATOM     25  H   UNL     1      -2.415   0.072   0.014  0.00  0.00    +0.142 HD
ATOM     26  H   UNL     1      -3.272   1.517   0.026  0.00  0.00    +0.142 HD
ENDBRANCH   5  24
BRANCH  10  27
ATOM     27  C   UNL     1       3.350   6.144  -0.827  0.00  0.00    +0.101 C 
ATOM     28  N   UNL     1       4.232   6.774  -1.166  0.00  0.00    -0.191 NA
ENDBRANCH  10  27
TORSDOF 7
