REMARK  Name = ZINC11979698
REMARK  9 active torsions:
REMARK  status: ('A' for Active; 'I' for Inactive)
REMARK    1  A    between atoms: C_1  and  C_2
REMARK    2  A    between atoms: C_2  and  C_3
REMARK    3  A    between atoms: C_2  and  C_4
REMARK    4  A    between atoms: N_6  and  C_7
REMARK    5  A    between atoms: C_11  and  C_20
REMARK    6  A    between atoms: C_15  and  C_16
REMARK    7  A    between atoms: C_16  and  O_18
REMARK    8  A    between atoms: O_18  and  C_19
REMARK    9  A    between atoms: C_20  and  N_63
REMARK                            x       y       z     vdW  Elec       q    Type
REMARK                         _______ _______ _______ _____ _____    ______ ____
ROOT
ATOM      1  C   UNL     1       1.151  -2.806  -2.143  0.00  0.00    +0.064 A 
ATOM      2  C   UNL     1       1.983  -3.671  -1.322  0.00  0.00    +0.030 A 
ATOM      3  C   UNL     1       3.334  -4.052  -1.525  0.00  0.00    +0.014 A 
ATOM      4  C   UNL     1       3.934  -4.888  -0.614  0.00  0.00    +0.022 A 
ATOM      5  C   UNL     1       3.227  -5.351   0.487  0.00  0.00    +0.026 A 
ATOM      6  N   UNL     1       1.971  -4.995   0.672  0.00  0.00    -0.246 NA
ATOM      7  C   UNL     1       1.353  -4.196  -0.171  0.00  0.00    +0.111 A 
ATOM      8  S   UNL     1      -0.287  -3.518  -0.236  0.00  0.00    -0.060 S 
ATOM      9  C   UNL     1      -0.147  -2.577  -1.743  0.00  0.00    +0.120 A 
ENDROOT
BRANCH   1  12
ATOM     10  C   UNL     1       1.741  -2.951  -4.436  0.00  0.00    +0.220 C 
ATOM     11  O   UNL     1       1.288  -4.076  -4.472  0.00  0.00    -0.275 OA
ATOM     12  N   UNL     1       1.653  -2.226  -3.303  0.00  0.00    -0.284 N 
ATOM     13  H   UNL     1       1.939  -1.299  -3.297  0.00  0.00    +0.155 HD
BRANCH  10  15
ATOM     14  C   UNL     1       3.855  -2.012  -5.329  0.00  0.00    +0.017 C 
ATOM     15  C   UNL     1       2.402  -2.365  -5.656  0.00  0.00    +0.069 C 
ATOM     16  C   UNL     1       2.370  -3.387  -6.794  0.00  0.00    +0.017 C 
ENDBRANCH  10  15
ENDBRANCH   1  12
BRANCH   9  17
ATOM     17  C   UNL     1      -1.133  -1.778  -2.375  0.00  0.00    +0.348 C 
ATOM     18  O   UNL     1      -0.882  -1.222  -3.428  0.00  0.00    -0.244 OA
BRANCH  17  19
ATOM     19  O   UNL     1      -2.350  -1.635  -1.810  0.00  0.00    -0.464 OA
ATOM     20  C   UNL     1      -3.295  -0.817  -2.501  0.00  0.00    +0.280 C 
ENDBRANCH  17  19
ENDBRANCH   9  17
BRANCH   5  21
ATOM     21  C   UNL     1       3.899  -6.267   1.477  0.00  0.00    -0.022 C 
BRANCH  21  35
ATOM     22  C   UNL     1       5.514  -4.589   2.138  0.00  0.00    -0.077 C 
ATOM     23  C   UNL     1       5.939  -3.672   3.288  0.00  0.00    -0.003 C 
ATOM     24  C   UNL     1       6.401  -4.523   4.470  0.00  0.00    +0.011 C 
ATOM     25  C   UNL     1       5.289  -5.485   4.888  0.00  0.00    -0.003 C 
ATOM     26  C   UNL     1       4.884  -6.344   3.687  0.00  0.00    -0.077 C 
ATOM     27  C   UNL     1       7.645  -5.292   4.103  0.00  0.00    -0.015 C 
ATOM     28  C   UNL     1       8.616  -4.917   4.918  0.00  0.00    +0.005 C 
ATOM     29  C   UNL     1       8.141  -3.901   5.875  0.00  0.00    -0.021 A 
ATOM     30  C   UNL     1       6.791  -3.641   5.627  0.00  0.00    -0.030 A 
ATOM     31  C   UNL     1       6.106  -2.724   6.389  0.00  0.00    +0.005 A 
ATOM     32  C   UNL     1       6.755  -2.051   7.411  0.00  0.00    +0.000 A 
ATOM     33  C   UNL     1       8.091  -2.298   7.666  0.00  0.00    +0.001 A 
ATOM     34  C   UNL     1       8.788  -3.216   6.907  0.00  0.00    +0.008 A 
ATOM     35  N   UNL     1       4.411  -5.458   2.602  0.00  0.00    +0.383 N 
ATOM     36  H   UNL     1       3.651  -4.868   2.962  0.00  0.00    -0.081 HD
ENDBRANCH  21  35
ENDBRANCH   5  21
TORSDOF 6
