REMARK  Name = ZINC39468565
REMARK  10 active torsions:
REMARK  status: ('A' for Active; 'I' for Inactive)
REMARK    1  A    between atoms: C_1  and  C_2
REMARK    2  A    between atoms: C_4  and  C_9
REMARK    3  A    between atoms: C_5  and  C_8
REMARK    4  A    between atoms: C_9  and  C_10
REMARK    5  A    between atoms: C_10  and  N_11
REMARK    6  A    between atoms: N_11  and  C_12
REMARK    7  A    between atoms: C_13  and  C_15
REMARK    8  A    between atoms: C_15  and  C_16
REMARK    9  A    between atoms: N_23  and  C_24
REMARK   10  A    between atoms: C_24  and  C_25
REMARK                            x       y       z     vdW  Elec       q    Type
REMARK                         _______ _______ _______ _____ _____    ______ ____
ROOT
ATOM      1  C   UNL     1      -4.773   2.834  -4.849  0.00  0.00    +0.152 C 
ATOM      2  C   UNL     1      -4.129   4.075  -4.298  0.00  0.00    +0.231 C 
ATOM      3  O   UNL     1      -4.651   4.632  -3.356  0.00  0.00    -0.274 OA
ATOM      4  N   UNL     1      -3.004   4.591  -4.804  0.00  0.00    -0.313 N 
ATOM      5  C   UNL     1      -2.278   3.978  -5.913  0.00  0.00    +0.119 C 
ATOM      6  C   UNL     1      -3.188   3.000  -6.658  0.00  0.00    +0.104 C 
ATOM      7  N   UNL     1      -3.810   2.096  -5.678  0.00  0.00    -0.285 NA
ATOM      8  H   UNL     1      -2.655   5.409  -4.417  0.00  0.00    +0.149 HD
ENDROOT
BRANCH   1   9
ATOM      9  C   UNL     1      -5.233   1.945  -3.692  0.00  0.00    +0.124 C 
BRANCH   9  12
ATOM     10  N   UNL     1      -4.209   0.812  -1.745  0.00  0.00    -0.304 N 
ATOM     11  C   UNL     1      -5.560   0.472  -1.292  0.00  0.00    +0.132 C 
ATOM     12  C   UNL     1      -4.036   1.512  -2.884  0.00  0.00    +0.217 C 
ATOM     13  O   UNL     1      -2.918   1.794  -3.259  0.00  0.00    -0.276 OA
BRANCH  10  14
ATOM     14  C   UNL     1      -3.045   0.392  -0.960  0.00  0.00    +0.112 C 
BRANCH  14  15
ATOM     15  C   UNL     1      -2.581  -0.986  -1.435  0.00  0.00    +0.053 C 
BRANCH  15  18
ATOM     16  C   UNL     1       0.305   0.428  -0.775  0.00  0.00    +0.039 C 
ATOM     17  C   UNL     1       0.077  -1.082  -0.867  0.00  0.00    +0.153 C 
ATOM     18  C   UNL     1      -1.385  -1.419  -0.628  0.00  0.00    -0.020 C 
ATOM     19  C   UNL     1      -1.363  -2.187   0.464  0.00  0.00    +0.061 C 
ATOM     20  N   UNL     1      -0.097  -2.355   0.908  0.00  0.00    -0.159 NA
ATOM     21  N   UNL     1       0.766  -1.780   0.232  0.00  0.00    -0.180 NA
ATOM     22  C   UNL     1      -2.584  -2.786   1.113  0.00  0.00    +0.067 C 
ENDBRANCH  15  18
ENDBRANCH  14  15
ENDBRANCH  10  14
ENDBRANCH   9  12
ENDBRANCH   1   9
BRANCH   7  23
ATOM     23  C   UNL     1      -4.455   0.959  -6.348  0.00  0.00    +0.120 C 
BRANCH  23  24
ATOM     24  C   UNL     1      -3.400   0.014  -6.860  0.00  0.00    -0.030 A 
ATOM     25  C   UNL     1      -2.882   0.179  -8.131  0.00  0.00    +0.008 A 
ATOM     26  C   UNL     1      -1.914  -0.687  -8.603  0.00  0.00    +0.041 A 
ATOM     27  C   UNL     1      -1.461  -1.721  -7.803  0.00  0.00    +0.158 A 
ATOM     28  C   UNL     1      -1.980  -1.887  -6.527  0.00  0.00    +0.159 A 
ATOM     29  C   UNL     1      -2.946  -1.015  -6.056  0.00  0.00    +0.046 A 
ATOM     30  F   UNL     1      -1.539  -2.896  -5.744  0.00  0.00    -0.202 F 
ATOM     31  F   UNL     1      -0.515  -2.568  -8.263  0.00  0.00    -0.202 F 
ENDBRANCH  23  24
ENDBRANCH   7  23
TORSDOF 7
