REMARK  Name = ZINC44785451
REMARK  5 active torsions:
REMARK  status: ('A' for Active; 'I' for Inactive)
REMARK    1  A    between atoms: C_1  and  C_2
REMARK    2  A    between atoms: C_2  and  C_3
REMARK    3  A    between atoms: C_2  and  C_4
REMARK    4  A    between atoms: C_2  and  C_8
REMARK    5  A    between atoms: N_5  and  O_6
REMARK                            x       y       z     vdW  Elec       q    Type
REMARK                         _______ _______ _______ _____ _____    ______ ____
ROOT
ATOM      1  C   UNL     1       0.781  -0.389  -1.231  0.00  0.00    +0.229 C 
ATOM      2  O   UNL     1       0.243  -1.019  -2.116  0.00  0.00    -0.275 OA
ATOM      3  N   UNL     1       2.075  -0.029  -1.349  0.00  0.00    -0.297 N 
ATOM      4  C   UNL     1       2.714   0.824  -0.338  0.00  0.00    +0.108 C 
ATOM      5  C   UNL     1       3.343   2.034  -1.034  0.00  0.00    +0.019 C 
ATOM      6  C   UNL     1       4.285   1.552  -2.141  0.00  0.00    +0.007 C 
ATOM      7  C   UNL     1       3.490   0.748  -3.170  0.00  0.00    +0.010 C 
ATOM      8  C   UNL     1       2.882  -0.487  -2.491  0.00  0.00    +0.079 C 
ATOM      9  C   UNL     1       4.002  -1.390  -1.967  0.00  0.00    +0.023 C 
ATOM     10  C   UNL     1       4.898  -1.827  -3.128  0.00  0.00    +0.002 C 
ATOM     11  C   UNL     1       5.518  -0.591  -3.783  0.00  0.00    +0.000 C 
ATOM     12  C   UNL     1       4.404   0.305  -4.310  0.00  0.00    +0.005 C 
ENDROOT
BRANCH   1  14
ATOM     13  C   UNL     1       0.705  -0.566   1.242  0.00  0.00    +0.028 C 
ATOM     14  C   UNL     1       0.003  -0.007   0.002  0.00  0.00    +0.100 C 
ATOM     15  C   UNL     1      -1.410  -0.586  -0.087  0.00  0.00    +0.028 C 
BRANCH  14  16
ATOM     16  C   UNL     1      -0.074   1.495   0.103  0.00  0.00    +0.146 C 
ATOM     17  N   UNL     1       0.417   2.099   1.133  0.00  0.00    -0.076 NA
ATOM     18  N   UNL     1      -0.668   2.222  -0.904  0.00  0.00    -0.343 N 
ATOM     19  H   UNL     1      -1.037   1.768  -1.678  0.00  0.00    +0.144 HD
ATOM     20  H   UNL     1      -0.718   3.189  -0.840  0.00  0.00    +0.144 HD
BRANCH  17  21
ATOM     21  O   UNL     1       0.344   3.510   1.227  0.00  0.00    -0.408 OA
ATOM     22  H   UNL     1       0.738   3.871   2.033  0.00  0.00    +0.328 HD
ENDBRANCH  17  21
ENDBRANCH  14  16
ENDBRANCH   1  14
TORSDOF 3
