REMARK  Name = ZINC19864208
REMARK  7 active torsions:
REMARK  status: ('A' for Active; 'I' for Inactive)
REMARK    1  A    between atoms: C_1  and  C_2
REMARK    2  A    between atoms: C_9  and  C_13
REMARK    3  A    between atoms: N_14  and  N_15
REMARK    4  A    between atoms: C_16  and  C_18
REMARK    5  A    between atoms: C_18  and  O_19
REMARK    6  A    between atoms: O_19  and  C_20
REMARK    7  A    between atoms: C_25  and  C_26
REMARK                            x       y       z     vdW  Elec       q    Type
REMARK                         _______ _______ _______ _____ _____    ______ ____
ROOT
ATOM      1  N   UNL     1      -0.288   1.272  -2.443  0.00  0.00    -0.204 N 
ATOM      2  C   UNL     1      -0.742   1.585  -1.213  0.00  0.00    +0.270 C 
ATOM      3  O   UNL     1      -1.736   2.268  -1.088  0.00  0.00    -0.270 OA
ATOM      4  H   UNL     1       0.614   0.653  -2.556  0.00  0.00    +0.177 HD
ENDROOT
BRANCH   1   6
ATOM      5  C   UNL     1      -0.530   1.435  -4.763  0.00  0.00    +0.141 C 
ATOM      6  N   UNL     1      -0.966   1.736  -3.578  0.00  0.00    -0.188 NA
BRANCH   5  15
ATOM      7  C   UNL     1      -1.372   2.002 -12.105  0.00  0.00    +0.044 C 
ATOM      8  C   UNL     1      -1.809   2.305 -10.695  0.00  0.00    -0.050 A 
ATOM      9  C   UNL     1      -2.944   3.084 -10.479  0.00  0.00    +0.005 A 
ATOM     10  C   UNL     1      -3.366   3.376  -9.219  0.00  0.00    +0.028 A 
ATOM     11  C   UNL     1      -2.652   2.888  -8.111  0.00  0.00    +0.073 A 
ATOM     12  C   UNL     1      -1.497   2.095  -8.333  0.00  0.00    +0.001 A 
ATOM     13  C   UNL     1      -1.090   1.813  -9.649  0.00  0.00    +0.013 A 
ATOM     14  C   UNL     1      -0.780   1.605  -7.229  0.00  0.00    +0.022 A 
ATOM     15  C   UNL     1      -1.243   1.923  -5.957  0.00  0.00    +0.032 A 
ATOM     16  C   UNL     1      -2.401   2.712  -5.819  0.00  0.00    +0.139 A 
ATOM     17  N   UNL     1      -3.050   3.163  -6.864  0.00  0.00    -0.235 NA
ATOM     18 CL   UNL     1      -2.979   3.102  -4.229  0.00  0.00    -0.061 Cl
ENDBRANCH   5  15
ENDBRANCH   1   6
BRANCH   2  19
ATOM     19  C   UNL     1      -0.013   1.086   0.008  0.00  0.00    +0.326 C 
BRANCH  19  20
ATOM     20  O   UNL     1      -0.682   1.547   1.184  0.00  0.00    -0.482 OA
BRANCH  20  21
ATOM     21  C   UNL     1      -0.149   1.182   2.379  0.00  0.00    +0.132 A 
ATOM     22  C   UNL     1       0.989   0.394   2.421  0.00  0.00    +0.047 A 
ATOM     23  C   UNL     1       1.534   0.028   3.638  0.00  0.00    +0.019 A 
ATOM     24  C   UNL     1       0.941   0.437   4.821  0.00  0.00    +0.019 A 
ATOM     25  C   UNL     1      -0.196   1.218   4.795  0.00  0.00    +0.030 A 
ATOM     26  C   UNL     1      -0.752   1.598   3.573  0.00  0.00    +0.063 A 
ATOM     27 BR   UNL     1       1.693  -0.078   6.478  0.00  0.00    -0.050 Br
BRANCH  26  28
ATOM     28  C   UNL     1      -1.969   2.433   3.538  0.00  0.00    +0.171 A 
ATOM     29  C   UNL     1      -3.137   2.215   4.219  0.00  0.00    +0.072 A 
ATOM     30  C   UNL     1      -3.958   3.295   3.838  0.00  0.00    +0.157 A 
ATOM     31  N   UNL     1      -3.261   4.018   3.007  0.00  0.00    -0.086 NA
ATOM     32  O   UNL     1      -2.157   3.560   2.827  0.00  0.00    -0.355 OA
ENDBRANCH  26  28
ENDBRANCH  20  21
ENDBRANCH  19  20
ENDBRANCH   2  19
TORSDOF 6
