REMARK  Name = ZINC64439176
REMARK  8 active torsions:
REMARK  status: ('A' for Active; 'I' for Inactive)
REMARK    1  A    between atoms: C_1  and  C_2
REMARK    2  A    between atoms: C_7  and  C_8
REMARK    3  A    between atoms: C_10  and  C_13
REMARK    4  A    between atoms: C_14  and  C_34
REMARK    5  A    between atoms: N_20  and  C_23
REMARK    6  A    between atoms: C_23  and  C_24
REMARK    7  A    between atoms: N_26  and  C_27
REMARK    8  A    between atoms: C_32  and  C_33
REMARK                            x       y       z     vdW  Elec       q    Type
REMARK                         _______ _______ _______ _____ _____    ______ ____
ROOT
ATOM      1  C   UNL     1       0.202  -0.848   6.361  0.00  0.00    +0.082 A 
ATOM      2  C   UNL     1       0.064   0.108   7.322  0.00  0.00    -0.017 A 
ATOM      3  C   UNL     1       0.114  -0.251   8.674  0.00  0.00    +0.076 A 
ATOM      4  C   UNL     1       0.310  -1.625   8.938  0.00  0.00    +0.116 A 
ATOM      5  S   UNL     1       0.406  -2.342   7.317  0.00  0.00    -0.063 S 
ATOM      6  N   UNL     1       0.376  -2.098  10.176  0.00  0.00    -0.230 NA
ATOM      7  C   UNL     1       0.262  -1.315  11.214  0.00  0.00    +0.203 A 
ATOM      8  N   UNL     1       0.071   0.022  11.086  0.00  0.00    -0.290 N 
ATOM      9  C   UNL     1      -0.010   0.605   9.874  0.00  0.00    +0.263 A 
ATOM     10  O   UNL     1      -0.181   1.807   9.770  0.00  0.00    -0.267 OA
ATOM     11  C   UNL     1      -0.140   1.549   6.931  0.00  0.00    +0.046 C 
ENDROOT
BRANCH   1  14
ATOM     12  C   UNL     1       0.245  -1.153   2.777  0.00  0.00    +0.203 A 
ATOM     13  N   UNL     1       0.314  -1.657   4.018  0.00  0.00    -0.187 NA
ATOM     14  C   UNL     1       0.181  -0.690   4.902  0.00  0.00    +0.266 A 
ATOM     15  O   UNL     1       0.021   0.469   4.235  0.00  0.00    -0.332 OA
ATOM     16  N   UNL     1       0.072   0.145   2.854  0.00  0.00    -0.056 NA
BRANCH  12  23
ATOM     17  C   UNL     1       2.362  -3.102   2.480  0.00  0.00    +0.044 C 
ATOM     18  C   UNL     1       1.369  -2.877   1.368  0.00  0.00    -0.040 A 
ATOM     19  C   UNL     1       1.462  -3.606   0.200  0.00  0.00    +0.004 A 
ATOM     20  C   UNL     1       0.551  -3.401  -0.821  0.00  0.00    +0.000 A 
ATOM     21  C   UNL     1      -0.456  -2.464  -0.677  0.00  0.00    +0.001 A 
ATOM     22  C   UNL     1      -0.558  -1.729   0.487  0.00  0.00    +0.012 A 
ATOM     23  C   UNL     1       0.353  -1.936   1.520  0.00  0.00    +0.025 A 
ENDBRANCH  12  23
ENDBRANCH   1  14
BRANCH   8  24
ATOM     24  C   UNL     1      -0.048   0.848  12.290  0.00  0.00    +0.222 C 
BRANCH  24  25
ATOM     25  C   UNL     1       1.317   1.332  12.705  0.00  0.00    +0.237 C 
ATOM     26  O   UNL     1       2.294   1.018  12.058  0.00  0.00    -0.274 OA
ATOM     27  N   UNL     1       1.453   2.114  13.794  0.00  0.00    -0.284 N 
ATOM     28  H   UNL     1       0.682   2.309  14.350  0.00  0.00    +0.155 HD
BRANCH  27  29
ATOM     29  C   UNL     1       2.705   2.646  14.122  0.00  0.00    +0.036 A 
ATOM     30  C   UNL     1       3.864   1.966  13.768  0.00  0.00    +0.023 A 
ATOM     31  C   UNL     1       5.098   2.493  14.094  0.00  0.00    +0.002 A 
ATOM     32  C   UNL     1       5.181   3.695  14.773  0.00  0.00    +0.000 A 
ATOM     33  C   UNL     1       4.029   4.374  15.127  0.00  0.00    +0.005 A 
ATOM     34  C   UNL     1       2.792   3.856  14.798  0.00  0.00    -0.029 A 
ATOM     35  C   UNL     1       1.537   4.599  15.178  0.00  0.00    +0.045 C 
ENDBRANCH  27  29
ENDBRANCH  24  25
ENDBRANCH   8  24
TORSDOF 5
