REMARK  Name = ZINC20661203
REMARK  9 active torsions:
REMARK  status: ('A' for Active; 'I' for Inactive)
REMARK    1  A    between atoms: C_1  and  C_2
REMARK    2  A    between atoms: C_7  and  C_9
REMARK    3  A    between atoms: C_7  and  C_10
REMARK    4  A    between atoms: N_11  and  C_13
REMARK    5  A    between atoms: C_13  and  C_14
REMARK    6  A    between atoms: C_18  and  C_20
REMARK    7  A    between atoms: C_26  and  C_28
REMARK    8  A    between atoms: C_28  and  O_29
REMARK    9  A    between atoms: O_29  and  C_30
REMARK                            x       y       z     vdW  Elec       q    Type
REMARK                         _______ _______ _______ _____ _____    ______ ____
ROOT
ATOM      1  C   UNL     1      -3.573  -2.518  -0.495  0.00  0.00    -0.063 A 
ATOM      2  C   UNL     1      -4.084  -2.008   0.686  0.00  0.00    +0.002 A 
ATOM      3  C   UNL     1      -5.424  -1.678   0.781  0.00  0.00    +0.001 A 
ATOM      4  C   UNL     1      -6.260  -1.854  -0.302  0.00  0.00    +0.011 A 
ATOM      5  C   UNL     1      -5.751  -2.367  -1.496  0.00  0.00    +0.018 A 
ATOM      6  C   UNL     1      -4.396  -2.694  -1.587  0.00  0.00    +0.013 A 
ENDROOT
BRANCH   5   7
ATOM      7  C   UNL     1      -6.640  -2.559  -2.661  0.00  0.00    +0.141 A 
ATOM      8  N   UNL     1      -7.957  -2.226  -2.559  0.00  0.00    -0.307 N 
ATOM      9  H   UNL     1      -8.306  -1.867  -1.728  0.00  0.00    +0.170 HD
ATOM     10  C   UNL     1      -8.776  -2.399  -3.619  0.00  0.00    +0.252 A 
ATOM     11  O   UNL     1      -9.958  -2.106  -3.547  0.00  0.00    -0.268 OA
ATOM     12  C   UNL     1      -8.237  -2.923  -4.811  0.00  0.00    +0.095 A 
ATOM     13  C   UNL     1      -6.910  -3.238  -4.852  0.00  0.00    +0.074 A 
ATOM     14  N   UNL     1      -6.144  -3.044  -3.780  0.00  0.00    -0.232 NA
BRANCH  13  15
ATOM     15  C   UNL     1      -6.310  -3.801  -6.114  0.00  0.00    +0.214 C 
BRANCH  15  16
ATOM     16  O   UNL     1      -5.355  -2.877  -6.640  0.00  0.00    -0.377 OA
ATOM     17  C   UNL     1      -4.723  -3.317  -7.844  0.00  0.00    +0.194 C 
ENDBRANCH  15  16
ENDBRANCH  13  15
ENDBRANCH   5   7
BRANCH   1  18
ATOM     18  C   UNL     1      -2.112  -2.876  -0.589  0.00  0.00    -0.043 C 
BRANCH  18  28
ATOM     19  C   UNL     1      -0.019   1.532   0.011  0.00  0.00    +0.009 C 
ATOM     20  C   UNL     1       0.002  -0.004   0.002  0.00  0.00    -0.048 C 
ATOM     21  C   UNL     1       0.709  -0.579  -1.256  0.00  0.00    -0.011 C 
ATOM     22  C   UNL     1       0.075  -1.998  -1.275  0.00  0.00    -0.067 C 
ATOM     23  C   UNL     1       0.699  -2.799  -0.149  0.00  0.00    -0.009 C 
ATOM     24  C   UNL     1       0.880  -2.099   1.179  0.00  0.00    -0.036 C 
ATOM     25  C   UNL     1       0.727  -0.591   1.213  0.00  0.00    +0.011 C 
ATOM     26  C   UNL     1       2.317  -2.418   1.669  0.00  0.00    +0.011 C 
ATOM     27  C   UNL     1      -0.069  -2.724   2.219  0.00  0.00    +0.011 C 
ATOM     28  N   UNL     1      -1.355  -1.714  -1.040  0.00  0.00    +0.385 N 
ATOM     29  C   UNL     1      -1.418  -0.611  -0.062  0.00  0.00    -0.071 C 
ATOM     30  H   UNL     1      -1.763  -1.380  -1.915  0.00  0.00    -0.081 HD
ENDBRANCH  18  28
ENDBRANCH   1  18
TORSDOF 5
