REMARK  Name = ZINC38614986
REMARK  14 active torsions:
REMARK  status: ('A' for Active; 'I' for Inactive)
REMARK    1  A    between atoms: C_1  and  C_2
REMARK    2  A    between atoms: C_2  and  C_4
REMARK    3  A    between atoms: C_2  and  O_24
REMARK    4  A    between atoms: N_6  and  C_7
REMARK    5  A    between atoms: C_7  and  C_8
REMARK    6  A    between atoms: C_8  and  C_10
REMARK    7  A    between atoms: C_8  and  N_18
REMARK    8  A    between atoms: C_13  and  O_16
REMARK    9  A    between atoms: O_16  and  C_17
REMARK   10  A    between atoms: O_24  and  C_25
REMARK   11  A    between atoms: C_28  and  C_31
REMARK   12  A    between atoms: C_31  and  C_32
REMARK   13  A    between atoms: C_31  and  C_33
REMARK   14  A    between atoms: C_31  and  C_34
REMARK                            x       y       z     vdW  Elec       q    Type
REMARK                         _______ _______ _______ _____ _____    ______ ____
ROOT
ATOM      1  C   UNL     1      -1.428  -0.538  -0.471  0.00  0.00    +0.253 C 
ATOM      2  O   UNL     1      -2.004  -1.089  -1.385  0.00  0.00    -0.272 OA
ATOM      3  N   UNL     1      -2.043  -0.383   0.718  0.00  0.00    -0.314 N 
ATOM      4  H   UNL     1      -1.582   0.057   1.449  0.00  0.00    +0.149 HD
ENDROOT
BRANCH   1   6
ATOM      5  C   UNL     1      -0.016   1.499  -0.550  0.00  0.00    +0.062 C 
ATOM      6  C   UNL     1      -0.023  -0.027  -0.664  0.00  0.00    +0.255 C 
BRANCH   6   7
ATOM      7  O   UNL     1       0.449  -0.410  -1.958  0.00  0.00    -0.480 OA
BRANCH   7   8
ATOM      8  C   UNL     1       1.795  -0.504  -2.120  0.00  0.00    +0.122 A 
ATOM      9  C   UNL     1       2.642  -0.273  -1.046  0.00  0.00    +0.046 A 
ATOM     10  C   UNL     1       4.010  -0.370  -1.213  0.00  0.00    +0.008 A 
ATOM     11  C   UNL     1       4.535  -0.696  -2.450  0.00  0.00    -0.042 A 
ATOM     12  C   UNL     1       3.692  -0.926  -3.522  0.00  0.00    +0.008 A 
ATOM     13  C   UNL     1       2.324  -0.837  -3.359  0.00  0.00    +0.046 A 
BRANCH  11  14
ATOM     14  C   UNL     1       6.027  -0.801  -2.630  0.00  0.00    -0.013 C 
ATOM     15  C   UNL     1       6.579  -1.881  -1.698  0.00  0.00    +0.015 C 
ATOM     16  C   UNL     1       6.341  -1.171  -4.081  0.00  0.00    +0.015 C 
ATOM     17  C   UNL     1       6.677   0.543  -2.295  0.00  0.00    +0.015 C 
ENDBRANCH  11  14
ENDBRANCH   7   8
ENDBRANCH   6   7
ENDBRANCH   1   6
BRANCH   3  18
ATOM     18  C   UNL     1      -3.408  -0.880   0.907  0.00  0.00    +0.093 C 
BRANCH  18  19
ATOM     19  C   UNL     1      -3.909  -0.481   2.296  0.00  0.00    -0.020 C 
BRANCH  19  20
ATOM     20  N   UNL     1      -5.315  -0.881   2.443  0.00  0.00    +0.385 N 
ATOM     21  C   UNL     1      -6.131  -0.170   1.452  0.00  0.00    -0.078 C 
ATOM     22  C   UNL     1      -7.583  -0.643   1.547  0.00  0.00    -0.019 C 
ATOM     23  C   UNL     1      -8.118  -0.353   2.952  0.00  0.00    -0.004 C 
ATOM     24  C   UNL     1      -7.215  -1.039   3.982  0.00  0.00    -0.019 C 
ATOM     25  C   UNL     1      -5.777  -0.551   3.797  0.00  0.00    -0.078 C 
ATOM     26  H   UNL     1      -5.398  -1.875   2.294  0.00  0.00    -0.081 HD
ENDBRANCH  19  20
BRANCH  19  27
ATOM     27  C   UNL     1      -3.078  -1.171   3.347  0.00  0.00    -0.059 A 
ATOM     28  C   UNL     1      -3.329  -2.492   3.668  0.00  0.00    +0.005 A 
ATOM     29  C   UNL     1      -2.569  -3.126   4.631  0.00  0.00    +0.046 A 
ATOM     30  C   UNL     1      -1.553  -2.437   5.277  0.00  0.00    +0.120 A 
ATOM     31  C   UNL     1      -1.303  -1.111   4.953  0.00  0.00    +0.046 A 
ATOM     32  C   UNL     1      -2.062  -0.483   3.985  0.00  0.00    +0.005 A 
BRANCH  30  33
ATOM     33  O   UNL     1      -0.804  -3.058   6.225  0.00  0.00    -0.495 OA
ATOM     34  C   UNL     1       0.225  -2.286   6.848  0.00  0.00    +0.277 C 
ENDBRANCH  30  33
ENDBRANCH  19  27
ENDBRANCH  18  19
ENDBRANCH   3  18
TORSDOF 9
