REMARK  Name = ZINC24982058
REMARK  8 active torsions:
REMARK  status: ('A' for Active; 'I' for Inactive)
REMARK    1  A    between atoms: C_1  and  C_2
REMARK    2  A    between atoms: C_2  and  C_3
REMARK    3  A    between atoms: C_2  and  C_4
REMARK    4  A    between atoms: C_4  and  C_6
REMARK    5  A    between atoms: C_4  and  N_13
REMARK    6  A    between atoms: N_13  and  C_14
REMARK    7  A    between atoms: C_14  and  C_15
REMARK    8  A    between atoms: C_17  and  C_20
REMARK                            x       y       z     vdW  Elec       q    Type
REMARK                         _______ _______ _______ _____ _____    ______ ____
ROOT
ATOM      1  N   UNL     1       4.732   7.315   1.346  0.00  0.00    +0.390 N 
ATOM      2  H   UNL     1       5.211   6.610   0.650  0.00  0.00    -0.084 HD
ATOM      3  H   UNL     1       4.779   6.910   2.368  0.00  0.00    -0.084 HD
ENDROOT
BRANCH   1   4
ATOM      4  C   UNL     1       5.436   8.604   1.297  0.00  0.00    -0.038 C 
BRANCH   4   5
ATOM      5  C   UNL     1       5.249   9.327   2.606  0.00  0.00    -0.061 A 
ATOM      6  C   UNL     1       5.287   8.624   3.796  0.00  0.00    +0.003 A 
ATOM      7  C   UNL     1       5.121   9.289   4.997  0.00  0.00    +0.020 A 
ATOM      8  C   UNL     1       4.906  10.655   5.007  0.00  0.00    +0.041 A 
ATOM      9  C   UNL     1       4.863  11.357   3.816  0.00  0.00    +0.020 A 
ATOM     10  C   UNL     1       5.034  10.693   2.616  0.00  0.00    +0.003 A 
ATOM     11 CL   UNL     1       4.690  11.489   6.514  0.00  0.00    -0.084 Cl
ENDBRANCH   4   5
BRANCH   4  13
ATOM     12  C   UNL     1       7.124   7.721  -0.319  0.00  0.00    +0.006 C 
ATOM     13  C   UNL     1       6.927   8.363   1.056  0.00  0.00    -0.027 C 
ATOM     14  C   UNL     1       7.674   9.697   1.108  0.00  0.00    +0.006 C 
ENDBRANCH   4  13
ENDBRANCH   1   4
BRANCH   1  15
ATOM     15  C   UNL     1       3.323   7.469   0.963  0.00  0.00    +0.019 C 
BRANCH  15  16
ATOM     16  C   UNL     1       2.652   6.120   0.961  0.00  0.00    +0.211 A 
ATOM     17  N   UNL     1       2.040   5.553   1.971  0.00  0.00    -0.193 NA
ATOM     18  C   UNL     1       1.601   4.361   1.507  0.00  0.00    +0.202 A 
ATOM     19  N   UNL     1       1.961   4.279   0.253  0.00  0.00    -0.056 NA
ATOM     20  O   UNL     1       2.564   5.279  -0.074  0.00  0.00    -0.340 OA
BRANCH  18  21
ATOM     21  C   UNL     1       0.846   3.341   2.276  0.00  0.00    +0.023 A 
ATOM     22  C   UNL     1       0.451   2.154   1.663  0.00  0.00    +0.012 A 
ATOM     23  C   UNL     1      -0.251   1.208   2.382  0.00  0.00    +0.002 A 
ATOM     24  C   UNL     1      -0.568   1.439   3.708  0.00  0.00    +0.015 A 
ATOM     25  C   UNL     1      -0.174   2.614   4.325  0.00  0.00    +0.019 A 
ATOM     26  C   UNL     1       0.529   3.567   3.614  0.00  0.00    +0.027 A 
ATOM     27 BR   UNL     1      -0.606   2.918   6.141  0.00  0.00    -0.050 Br
ENDBRANCH  18  21
ENDBRANCH  15  16
ENDBRANCH   1  15
TORSDOF 6
