REMARK  Name = ZINC19984800
REMARK  6 active torsions:
REMARK  status: ('A' for Active; 'I' for Inactive)
REMARK    1  A    between atoms: C_1  and  C_2
REMARK    2  A    between atoms: C_5  and  C_25
REMARK    3  A    between atoms: C_6  and  N_8
REMARK    4  A    between atoms: C_9  and  C_11
REMARK    5  A    between atoms: C_11  and  C_13
REMARK    6  A    between atoms: C_11  and  N_14
REMARK                            x       y       z     vdW  Elec       q    Type
REMARK                         _______ _______ _______ _____ _____    ______ ____
ROOT
ATOM      1  C   UNL     1       0.146   0.110  -4.878  0.00  0.00    +0.164 C 
ATOM      2  C   UNL     1       1.386   1.007  -4.862  0.00  0.00    +0.038 C 
ENDROOT
BRANCH   1   3
ATOM      3  N   UNL     1       0.240  -0.833  -5.995  0.00  0.00    -0.254 N 
ATOM      4  C   UNL     1      -0.738  -0.846  -6.999  0.00  0.00    +0.079 A 
ATOM      5  C   UNL     1      -1.616   0.217  -7.146  0.00  0.00    +0.027 A 
ATOM      6  C   UNL     1      -2.571   0.188  -8.146  0.00  0.00    +0.002 A 
ATOM      7  C   UNL     1      -2.648  -0.896  -9.001  0.00  0.00    +0.004 A 
ATOM      8  C   UNL     1      -1.771  -1.957  -8.864  0.00  0.00    +0.047 A 
ATOM      9  C   UNL     1      -0.813  -1.934  -7.865  0.00  0.00    +0.143 A 
ATOM     10  O   UNL     1       0.057  -2.969  -7.716  0.00  0.00    -0.481 OA
ATOM     11  C   UNL     1       1.368  -2.643  -7.247  0.00  0.00    +0.325 C 
ATOM     12  C   UNL     1       1.268  -1.706  -6.071  0.00  0.00    +0.258 C 
ATOM     13  O   UNL     1       2.107  -1.736  -5.195  0.00  0.00    -0.271 OA
ENDBRANCH   1   3
BRANCH   1  15
ATOM     14  N   UNL     1      -0.033   0.011  -2.413  0.00  0.00    -0.284 N 
ATOM     15  C   UNL     1       0.061  -0.653  -3.582  0.00  0.00    +0.238 C 
ATOM     16  O   UNL     1       0.078  -1.866  -3.590  0.00  0.00    -0.273 OA
ATOM     17  H   UNL     1      -0.139   1.106  -2.410  0.00  0.00    +0.155 HD
BRANCH  14  23
ATOM     18  C   UNL     1       1.335  -3.970   0.128  0.00  0.00    +0.044 C 
ATOM     19  C   UNL     1       0.661  -2.623   0.056  0.00  0.00    -0.049 A 
ATOM     20  C   UNL     1       0.074  -2.084   1.187  0.00  0.00    +0.004 A 
ATOM     21  C   UNL     1      -0.545  -0.850   1.125  0.00  0.00    +0.005 A 
ATOM     22  C   UNL     1      -0.579  -0.151  -0.066  0.00  0.00    -0.029 A 
ATOM     23  C   UNL     1       0.005  -0.692  -1.203  0.00  0.00    +0.037 A 
ATOM     24  C   UNL     1       0.631  -1.930  -1.137  0.00  0.00    +0.027 A 
ATOM     25  C   UNL     1      -1.255   1.195  -0.132  0.00  0.00    +0.045 C 
ENDBRANCH  14  23
ENDBRANCH   1  15
TORSDOF 3
