REMARK  Name = ZINC15068092
REMARK  7 active torsions:
REMARK  status: ('A' for Active; 'I' for Inactive)
REMARK    1  A    between atoms: C_6  and  C_7
REMARK    2  A    between atoms: C_7  and  O_32
REMARK    3  A    between atoms: C_12  and  C_13
REMARK    4  A    between atoms: C_12  and  N_60
REMARK    5  A    between atoms: C_16  and  C_21
REMARK    6  A    between atoms: N_23  and  C_24
REMARK    7  A    between atoms: C_24  and  C_25
REMARK                            x       y       z     vdW  Elec       q    Type
REMARK                         _______ _______ _______ _____ _____    ______ ____
ROOT
ATOM      1  C   UNL     1      -2.502   2.403  -5.804  0.00  0.00    +0.003 A 
ATOM      2  C   UNL     1      -1.393   1.638  -5.974  0.00  0.00    +0.020 A 
ATOM      3  C   UNL     1      -0.637   1.246  -4.870  0.00  0.00    +0.020 A 
ATOM      4  C   UNL     1      -1.039   1.652  -3.599  0.00  0.00    +0.101 A 
ATOM      5  C   UNL     1      -2.208   2.446  -3.471  0.00  0.00    +0.261 A 
ATOM      6  O   UNL     1      -2.583   2.809  -2.370  0.00  0.00    -0.267 OA
ATOM      7  N   UNL     1      -2.898   2.801  -4.572  0.00  0.00    -0.327 N 
ATOM      8  H   UNL     1      -3.694   3.347  -4.480  0.00  0.00    +0.169 HD
ENDROOT
BRANCH   4   9
ATOM      9  C   UNL     1      -0.268   1.258  -2.409  0.00  0.00    +0.249 C 
ATOM     10  O   UNL     1       0.785   0.664  -2.536  0.00  0.00    -0.270 OA
ATOM     11  N   UNL     1      -0.729   1.557  -1.178  0.00  0.00    -0.309 N 
ATOM     12  H   UNL     1      -1.530   2.095  -1.078  0.00  0.00    +0.149 HD
BRANCH  11  13
ATOM     13  C   UNL     1      -0.021   1.069   0.008  0.00  0.00    +0.138 C 
BRANCH  13  14
ATOM     14  C   UNL     1      -0.747   1.545   1.267  0.00  0.00    +0.161 C 
ATOM     15  C   UNL     1       0.058   1.142   2.506  0.00  0.00    +0.193 C 
ATOM     16  O   UNL     1      -0.680   1.492   3.680  0.00  0.00    -0.375 OA
ATOM     17  C   UNL     1      -1.974   0.885   3.744  0.00  0.00    +0.188 C 
ATOM     18  C   UNL     1      -2.780   1.288   2.506  0.00  0.00    +0.188 C 
ATOM     19  O   UNL     1      -2.042   0.939   1.331  0.00  0.00    -0.370 OA
ENDBRANCH  13  14
ENDBRANCH  11  13
ENDBRANCH   4   9
BRANCH   1  20
ATOM     20  C   UNL     1      -3.306   2.817  -7.009  0.00  0.00    -0.025 C 
BRANCH  20  26
ATOM     21  C   UNL     1      -6.907   0.684  -7.886  0.00  0.00    +0.088 C 
ATOM     22  C   UNL     1      -6.943   2.211  -7.775  0.00  0.00    +0.021 C 
ATOM     23  C   UNL     1      -5.529   2.765  -7.966  0.00  0.00    -0.075 C 
ATOM     24  C   UNL     1      -4.551   0.742  -7.059  0.00  0.00    -0.075 C 
ATOM     25  C   UNL     1      -5.936   0.127  -6.841  0.00  0.00    +0.021 C 
ATOM     26  N   UNL     1      -4.650   2.210  -6.915  0.00  0.00    +0.383 N 
ATOM     27  H   UNL     1      -5.051   2.428  -5.996  0.00  0.00    -0.081 HD
BRANCH  21  33
ATOM     28  C   UNL     1      -9.159   0.792  -6.798  0.00  0.00    +0.008 A 
ATOM     29  C   UNL     1     -10.425   0.286  -6.577  0.00  0.00    +0.020 A 
ATOM     30  C   UNL     1     -10.816  -0.891  -7.189  0.00  0.00    +0.041 A 
ATOM     31  C   UNL     1      -9.941  -1.558  -8.027  0.00  0.00    +0.020 A 
ATOM     32  C   UNL     1      -8.676  -1.048  -8.252  0.00  0.00    +0.008 A 
ATOM     33  C   UNL     1      -8.286   0.128  -7.640  0.00  0.00    -0.016 A 
ATOM     34 CL   UNL     1     -12.405  -1.531  -6.907  0.00  0.00    -0.084 Cl
ENDBRANCH  21  33
BRANCH  21  35
ATOM     35  O   UNL     1      -6.467   0.310  -9.193  0.00  0.00    -0.384 OA
ATOM     36  H   UNL     1      -6.421  -0.645  -9.334  0.00  0.00    +0.211 HD
ENDBRANCH  21  35
ENDBRANCH  20  26
ENDBRANCH   1  20
TORSDOF 7
