REMARK  Name = ZINC28907083
REMARK  5 active torsions:
REMARK  status: ('A' for Active; 'I' for Inactive)
REMARK    1  A    between atoms: C_1  and  C_2
REMARK    2  A    between atoms: C_2  and  C_4
REMARK    3  A    between atoms: C_2  and  N_20
REMARK    4  A    between atoms: N_9  and  C_10
REMARK    5  A    between atoms: N_20  and  C_21
REMARK                            x       y       z     vdW  Elec       q    Type
REMARK                         _______ _______ _______ _____ _____    ______ ____
ROOT
ATOM      1  C   UNL     1       0.000   1.080   2.488  0.00  0.00    +0.240 C 
ATOM      2  O   UNL     1      -0.572   0.371   3.287  0.00  0.00    -0.273 OA
ATOM      3  N   UNL     1       1.288   1.422   2.691  0.00  0.00    -0.239 N 
ATOM      4  C   UNL     1       1.940   0.976   3.782  0.00  0.00    +0.306 C 
ATOM      5  O   UNL     1       1.366   0.265   4.584  0.00  0.00    -0.252 OA
ATOM      6  N   UNL     1       3.227   1.317   3.985  0.00  0.00    -0.294 N 
ATOM      7  H   UNL     1       1.807   2.066   1.965  0.00  0.00    +0.159 HD
ATOM      8  H   UNL     1       3.746   1.961   3.260  0.00  0.00    +0.151 HD
ENDROOT
BRANCH   6   9
ATOM      9  C   UNL     1       3.936   0.832   5.172  0.00  0.00    +0.037 C 
ATOM     10  C   UNL     1       3.220   1.326   6.431  0.00  0.00    +0.029 C 
ATOM     11  C   UNL     1       3.960   0.819   7.670  0.00  0.00    -0.008 C 
ATOM     12  C   UNL     1       5.395   1.348   7.660  0.00  0.00    +0.007 C 
ATOM     13  C   UNL     1       6.111   0.855   6.401  0.00  0.00    -0.008 C 
ATOM     14  C   UNL     1       5.371   1.362   5.161  0.00  0.00    +0.029 C 
ATOM     15  C   UNL     1       6.132  -0.675   6.392  0.00  0.00    +0.007 C 
ATOM     16  C   UNL     1       4.697  -1.204   6.403  0.00  0.00    -0.008 C 
ATOM     17  C   UNL     1       3.981  -0.711   7.662  0.00  0.00    +0.007 C 
ATOM     18  C   UNL     1       3.957  -0.698   5.164  0.00  0.00    +0.029 C 
ENDBRANCH   6   9
BRANCH   1  20
ATOM     19  C   UNL     1      -0.013   1.086   0.008  0.00  0.00    +0.038 C 
ATOM     20  C   UNL     1      -0.729   1.579   1.267  0.00  0.00    +0.154 C 
BRANCH  20  21
ATOM     21  N   UNL     1      -2.103   1.072   1.277  0.00  0.00    -0.333 N 
ATOM     22  H   UNL     1      -2.344   0.147   1.821  0.00  0.00    +0.147 HD
BRANCH  21  23
ATOM     23  C   UNL     1      -3.109   1.764   0.596  0.00  0.00    +0.028 A 
ATOM     24  C   UNL     1      -2.807   2.936  -0.086  0.00  0.00    +0.026 A 
ATOM     25  C   UNL     1      -3.802   3.616  -0.762  0.00  0.00    +0.040 A 
ATOM     26  C   UNL     1      -5.100   3.135  -0.752  0.00  0.00    +0.124 A 
ATOM     27  C   UNL     1      -5.404   1.970  -0.068  0.00  0.00    +0.040 A 
ATOM     28  C   UNL     1      -4.412   1.285   0.605  0.00  0.00    +0.026 A 
ATOM     29  F   UNL     1      -6.072   3.804  -1.410  0.00  0.00    -0.205 F 
ENDBRANCH  21  23
ENDBRANCH  20  21
ENDBRANCH   1  20
TORSDOF 4
