REMARK  Name = ZINC63514589
REMARK  12 active torsions:
REMARK  status: ('A' for Active; 'I' for Inactive)
REMARK    1  A    between atoms: C_1  and  C_2
REMARK    2  A    between atoms: C_4  and  C_20
REMARK    3  A    between atoms: C_7  and  O_12
REMARK    4  A    between atoms: O_12  and  C_13
REMARK    5  A    between atoms: C_13  and  C_14
REMARK    6  A    between atoms: C_20  and  C_21
REMARK    7  A    between atoms: C_21  and  N_22
REMARK    8  A    between atoms: C_23  and  C_25
REMARK    9  A    between atoms: C_31  and  C_33
REMARK   10  A    between atoms: C_33  and  O_35
REMARK   11  A    between atoms: O_35  and  C_36
REMARK   12  A    between atoms: C_36  and  C_37
REMARK                            x       y       z     vdW  Elec       q    Type
REMARK                         _______ _______ _______ _____ _____    ______ ____
ROOT
ATOM      1  C   UNL     1      -2.494  -0.315  -0.984  0.00  0.00    +0.052 C 
ENDROOT
BRANCH   1   4
ATOM      2  C   UNL     1      -0.019   1.526   0.010  0.00  0.00    +0.035 C 
ATOM      3  C   UNL     1       0.002  -0.004   0.002  0.00  0.00    +0.103 C 
ATOM      4  C   UNL     1      -1.410  -0.545   0.038  0.00  0.00    -0.037 C 
ATOM      5  C   UNL     1      -1.503  -1.275   1.172  0.00  0.00    +0.003 A 
ATOM      6  C   UNL     1      -2.598  -2.045   1.773  0.00  0.00    +0.055 A 
ATOM      7  C   UNL     1      -2.393  -2.691   2.946  0.00  0.00    +0.122 A 
ATOM      8  C   UNL     1      -1.160  -2.651   3.620  0.00  0.00    +0.048 A 
ATOM      9  C   UNL     1      -0.095  -1.970   3.147  0.00  0.00    +0.029 A 
ATOM     10  C   UNL     1      -0.204  -1.234   1.883  0.00  0.00    +0.043 A 
ATOM     11  N   UNL     1       0.658  -0.508   1.214  0.00  0.00    -0.378 N 
ATOM     12  H   UNL     1       1.576  -0.332   1.476  0.00  0.00    +0.160 HD
BRANCH   7  13
ATOM     13  O   UNL     1      -3.416  -3.401   3.491  0.00  0.00    -0.487 OA
BRANCH  13  14
ATOM     14  C   UNL     1      -3.157  -4.065   4.729  0.00  0.00    +0.264 C 
BRANCH  14  15
ATOM     15  C   UNL     1      -4.398  -4.795   5.177  0.00  0.00    -0.010 A 
ATOM     16  C   UNL     1      -5.327  -4.154   5.975  0.00  0.00    +0.007 A 
ATOM     17  C   UNL     1      -6.465  -4.824   6.385  0.00  0.00    +0.000 A 
ATOM     18  C   UNL     1      -6.673  -6.134   5.997  0.00  0.00    +0.000 A 
ATOM     19  C   UNL     1      -5.744  -6.775   5.198  0.00  0.00    +0.000 A 
ATOM     20  C   UNL     1      -4.609  -6.104   4.785  0.00  0.00    +0.007 A 
ENDBRANCH  14  15
ENDBRANCH  13  14
ENDBRANCH   7  13
ENDBRANCH   1   4
BRANCH   1  21
ATOM     21  C   UNL     1      -3.765  -1.048  -0.551  0.00  0.00    +0.108 C 
BRANCH  21  22
ATOM     22  N   UNL     1      -4.819  -0.825  -1.544  0.00  0.00    -0.315 N 
ATOM     23  C   UNL     1      -6.036  -1.378  -1.371  0.00  0.00    +0.217 C 
ATOM     24  O   UNL     1      -6.259  -2.061  -0.394  0.00  0.00    -0.275 OA
ATOM     25  H   UNL     1      -4.641  -0.279  -2.326  0.00  0.00    +0.149 HD
BRANCH  23  26
ATOM     26  C   UNL     1      -7.120  -1.149  -2.393  0.00  0.00    +0.089 C 
ATOM     27  C   UNL     1      -6.661  -1.682  -3.752  0.00  0.00    +0.013 C 
ATOM     28  C   UNL     1      -7.762  -1.449  -4.789  0.00  0.00    +0.001 C 
ATOM     29  C   UNL     1      -9.033  -2.182  -4.356  0.00  0.00    +0.001 C 
ATOM     30  C   UNL     1      -9.492  -1.649  -2.998  0.00  0.00    +0.015 C 
ATOM     31  C   UNL     1      -8.392  -1.882  -1.961  0.00  0.00    +0.110 C 
BRANCH  31  32
ATOM     32  C   UNL     1      -8.843  -1.357  -0.622  0.00  0.00    +0.311 C 
ATOM     33  O   UNL     1      -8.213  -0.486  -0.071  0.00  0.00    -0.251 OA
BRANCH  32  34
ATOM     34  O   UNL     1      -9.946  -1.857  -0.043  0.00  0.00    -0.455 OA
BRANCH  34  35
ATOM     35  C   UNL     1     -10.316  -1.312   1.226  0.00  0.00    +0.345 C 
BRANCH  35  36
ATOM     36  C   UNL     1     -11.588  -2.001   1.725  0.00  0.00    +0.424 C 
ATOM     37  F   UNL     1     -11.354  -3.374   1.857  0.00  0.00    -0.167 F 
ATOM     38  F   UNL     1     -11.950  -1.468   2.967  0.00  0.00    -0.167 F 
ATOM     39  F   UNL     1     -12.623  -1.791   0.808  0.00  0.00    -0.167 F 
ENDBRANCH  35  36
ENDBRANCH  34  35
ENDBRANCH  32  34
ENDBRANCH  31  32
ENDBRANCH  23  26
ENDBRANCH  21  22
ENDBRANCH   1  21
TORSDOF 11
