REMARK  Name = ZINC63491766
REMARK  11 active torsions:
REMARK  status: ('A' for Active; 'I' for Inactive)
REMARK    1  A    between atoms: C_1  and  C_2
REMARK    2  A    between atoms: C_2  and  O_3
REMARK    3  A    between atoms: O_3  and  C_4
REMARK    4  A    between atoms: C_8  and  C_13
REMARK    5  A    between atoms: C_9  and  O_10
REMARK    6  A    between atoms: O_10  and  C_11
REMARK    7  A    between atoms: C_11  and  C_12
REMARK    8  A    between atoms: C_13  and  C_14
REMARK    9  A    between atoms: C_29  and  C_31
REMARK   10  A    between atoms: C_34  and  S_37
REMARK   11  A    between atoms: S_37  and  C_38
REMARK                            x       y       z     vdW  Elec       q    Type
REMARK                         _______ _______ _______ _____ _____    ______ ____
ROOT
ATOM      1  C   UNL     1       3.337  -5.730  -3.349  0.00  0.00    +0.221 C 
ATOM      2  O   UNL     1       3.969  -5.106  -2.524  0.00  0.00    -0.275 OA
ATOM      3  N   UNL     1       3.688  -5.677  -4.649  0.00  0.00    -0.292 N 
ATOM      4  C   UNL     1       2.854  -6.343  -5.654  0.00  0.00    +0.113 C 
ATOM      5  C   UNL     1       2.391  -5.313  -6.700  0.00  0.00    +0.052 C 
ATOM      6  C   UNL     1       3.604  -4.494  -7.068  0.00  0.00    -0.035 C 
ATOM      7  C   UNL     1       4.138  -4.196  -8.246  0.00  0.00    -0.001 A 
ATOM      8  C   UNL     1       3.685  -4.459  -9.621  0.00  0.00    +0.010 A 
ATOM      9  C   UNL     1       4.503  -4.021 -10.615  0.00  0.00    +0.001 A 
ATOM     10  C   UNL     1       5.710  -3.357 -10.381  0.00  0.00    +0.002 A 
ATOM     11  C   UNL     1       6.200  -3.066  -9.150  0.00  0.00    +0.026 A 
ATOM     12  C   UNL     1       5.424  -3.468  -8.024  0.00  0.00    +0.043 A 
ATOM     13  N   UNL     1       5.638  -3.301  -6.752  0.00  0.00    -0.375 N 
ATOM     14  C   UNL     1       4.494  -3.841  -6.017  0.00  0.00    +0.131 C 
ATOM     15  C   UNL     1       4.903  -4.947  -5.045  0.00  0.00    +0.133 C 
ATOM     16  H   UNL     1       6.423  -2.889  -6.358  0.00  0.00    +0.160 HD
ENDROOT
BRANCH  15  17
ATOM     17  C   UNL     1       5.553  -4.340  -3.829  0.00  0.00    -0.025 A 
ATOM     18  C   UNL     1       5.003  -3.214  -3.242  0.00  0.00    +0.006 A 
ATOM     19  C   UNL     1       5.596  -2.655  -2.128  0.00  0.00    +0.015 A 
ATOM     20  C   UNL     1       6.747  -3.224  -1.596  0.00  0.00    +0.008 A 
ATOM     21  C   UNL     1       7.296  -4.355  -2.188  0.00  0.00    +0.015 A 
ATOM     22  C   UNL     1       6.695  -4.912  -3.299  0.00  0.00    +0.006 A 
BRANCH  20  23
ATOM     23  S   UNL     1       7.508  -2.514  -0.174  0.00  0.00    -0.129 S 
ATOM     24  C   UNL     1       8.941  -3.581   0.137  0.00  0.00    +0.090 C 
ENDBRANCH  20  23
ENDBRANCH  15  17
BRANCH   1  25
ATOM     25  C   UNL     1       2.158  -6.566  -2.921  0.00  0.00    +0.135 C 
BRANCH  25  30
ATOM     26  C   UNL     1       1.092  -5.308   0.486  0.00  0.00    +0.162 A 
ATOM     27  C   UNL     1       1.659  -6.261   1.317  0.00  0.00    +0.049 A 
ATOM     28  C   UNL     1       2.382  -7.307   0.775  0.00  0.00    +0.004 A 
ATOM     29  C   UNL     1       2.542  -7.405  -0.595  0.00  0.00    +0.008 A 
ATOM     30  C   UNL     1       1.980  -6.457  -1.429  0.00  0.00    +0.007 A 
ATOM     31  C   UNL     1       1.248  -5.409  -0.893  0.00  0.00    +0.165 A 
BRANCH  26  32
ATOM     32  O   UNL     1       0.379  -4.278   1.017  0.00  0.00    -0.489 OA
BRANCH  32  34
ATOM     33  C   UNL     1      -0.569  -3.019   2.849  0.00  0.00    +0.048 C 
ATOM     34  C   UNL     1       0.260  -4.238   2.441  0.00  0.00    +0.226 C 
ENDBRANCH  32  34
ENDBRANCH  26  32
BRANCH  31  35
ATOM     35  O   UNL     1       0.690  -4.479  -1.712  0.00  0.00    -0.488 OA
BRANCH  35  36
ATOM     36  C   UNL     1       1.426  -3.272  -1.921  0.00  0.00    +0.226 C 
ATOM     37  C   UNL     1       0.596  -2.308  -2.772  0.00  0.00    +0.048 C 
ENDBRANCH  35  36
ENDBRANCH  31  35
ENDBRANCH  25  30
ENDBRANCH   1  25
TORSDOF 8
