REMARK  Name = ZINC25606451
REMARK  9 active torsions:
REMARK  status: ('A' for Active; 'I' for Inactive)
REMARK    1  A    between atoms: C_1  and  C_2
REMARK    2  A    between atoms: C_4  and  C_14
REMARK    3  A    between atoms: C_5  and  C_13
REMARK    4  A    between atoms: C_9  and  C_12
REMARK    5  A    between atoms: C_15  and  C_16
REMARK    6  A    between atoms: C_16  and  O_18
REMARK    7  A    between atoms: O_18  and  C_19
REMARK    8  A    between atoms: C_19  and  C_20
REMARK    9  A    between atoms: C_22  and  C_25
REMARK                            x       y       z     vdW  Elec       q    Type
REMARK                         _______ _______ _______ _____ _____    ______ ____
ROOT
ATOM      1  C   UNL     1       1.915   3.122   0.336  0.00  0.00    +0.016 C 
ATOM      2  C   UNL     1       1.057   4.143   0.562  0.00  0.00    +0.092 C 
ENDROOT
BRANCH   1   6
ATOM      3  C   UNL     1      -1.235  -0.861  -0.118  0.00  0.00    +0.064 C 
ATOM      4  C   UNL     1      -0.007   0.010  -0.054  0.00  0.00    +0.023 A 
ATOM      5  C   UNL     1      -0.004   1.336   0.166  0.00  0.00    +0.031 A 
ATOM      6  C   UNL     1       1.402   1.761   0.144  0.00  0.00    -0.004 A 
ATOM      7  C   UNL     1       2.141   0.620  -0.094  0.00  0.00    +0.030 A 
ATOM      8  N   UNL     1       1.281  -0.422  -0.210  0.00  0.00    -0.299 N 
ATOM      9  C   UNL     1       1.656  -1.747  -0.455  0.00  0.00    +0.181 A 
ATOM     10  C   UNL     1       1.089  -2.631  -1.410  0.00  0.00    +0.094 A 
ATOM     11  C   UNL     1       1.793  -3.775  -1.254  0.00  0.00    +0.136 A 
ATOM     12  O   UNL     1       2.688  -3.545  -0.283  0.00  0.00    -0.358 OA
ATOM     13  N   UNL     1       2.604  -2.417   0.145  0.00  0.00    -0.060 NA
ATOM     14  C   UNL     1       1.608  -5.058  -2.022  0.00  0.00    +0.089 C 
ATOM     15  C   UNL     1       3.642   0.545  -0.205  0.00  0.00    +0.064 C 
ENDBRANCH   1   6
BRANCH   2  16
ATOM     16  C   UNL     1       1.552   5.455   0.747  0.00  0.00    +0.332 C 
ATOM     17  O   UNL     1       2.750   5.666   0.702  0.00  0.00    -0.246 OA
BRANCH  16  18
ATOM     18  O   UNL     1       0.696   6.474   0.972  0.00  0.00    -0.454 OA
BRANCH  18  19
ATOM     19  C   UNL     1       1.265   7.773   1.150  0.00  0.00    +0.312 C 
BRANCH  19  20
ATOM     20  C   UNL     1       0.165   8.775   1.389  0.00  0.00    +0.209 A 
ATOM     21  N   UNL     1      -0.342   9.125   2.581  0.00  0.00    -0.188 NA
ATOM     22  C   UNL     1      -1.276  10.025   2.318  0.00  0.00    +0.259 A 
ATOM     23  O   UNL     1      -1.294  10.180   0.984  0.00  0.00    -0.333 OA
ATOM     24  N   UNL     1      -0.459   9.461   0.478  0.00  0.00    -0.057 NA
BRANCH  22  25
ATOM     25  C   UNL     1      -2.130  10.721   3.298  0.00  0.00    +0.046 A 
ATOM     26  C   UNL     1      -3.112  11.689   2.881  0.00  0.00    +0.021 A 
ATOM     27  C   UNL     1      -3.848  12.269   3.851  0.00  0.00    +0.046 A 
ATOM     28  S   UNL     1      -3.210  11.520   5.336  0.00  0.00    -0.104 S 
ATOM     29  C   UNL     1      -2.017  10.477   4.639  0.00  0.00    +0.058 A 
ENDBRANCH  22  25
ENDBRANCH  19  20
ENDBRANCH  18  19
ENDBRANCH  16  18
ENDBRANCH   2  16
TORSDOF 6
