REMARK  Name = ZINC08767120
REMARK  12 active torsions:
REMARK  status: ('A' for Active; 'I' for Inactive)
REMARK    1  A    between atoms: C_1  and  C_2
REMARK    2  A    between atoms: C_2  and  O_3
REMARK    3  A    between atoms: O_3  and  C_4
REMARK    4  A    between atoms: C_4  and  C_6
REMARK    5  A    between atoms: C_7  and  C_38
REMARK    6  A    between atoms: C_14  and  C_15
REMARK    7  A    between atoms: C_18  and  N_20
REMARK    8  A    between atoms: C_25  and  N_79
REMARK    9  A    between atoms: C_27  and  C_29
REMARK   10  A    between atoms: C_32  and  C_35
REMARK   11  A    between atoms: C_35  and  C_36
REMARK   12  A    between atoms: C_35  and  C_37
REMARK                            x       y       z     vdW  Elec       q    Type
REMARK                         _______ _______ _______ _____ _____    ______ ____
ROOT
ATOM      1  C   UNL     1      -1.026  -0.678   1.466  0.00  0.00    +0.090 C 
ATOM      2  C   UNL     1      -0.979  -2.005   1.880  0.00  0.00    +0.086 C 
ATOM      3  N   UNL     1      -0.503  -2.946   1.060  0.00  0.00    -0.222 NA
ATOM      4  C   UNL     1      -0.058  -2.722  -0.147  0.00  0.00    +0.178 A 
ATOM      5  N   UNL     1      -0.018  -1.482  -0.747  0.00  0.00    -0.275 N 
ATOM      6  C   UNL     1       0.465  -1.400  -1.992  0.00  0.00    +0.268 A 
ATOM      7  O   UNL     1       0.519  -0.322  -2.560  0.00  0.00    -0.266 OA
ATOM      8  C   UNL     1       0.912  -2.573  -2.647  0.00  0.00    +0.084 A 
ATOM      9  C   UNL     1       1.440  -2.722  -3.912  0.00  0.00    +0.067 C 
ATOM     10  S   UNL     1       0.610  -3.808  -1.392  0.00  0.00    -0.046 S 
ATOM     11  C   UNL     1      -0.526  -0.352   0.078  0.00  0.00    +0.162 C 
ENDROOT
BRANCH  11  12
ATOM     12  C   UNL     1       0.584   0.660   0.211  0.00  0.00    -0.020 A 
ATOM     13  C   UNL     1       0.299   2.011   0.142  0.00  0.00    +0.006 A 
ATOM     14  C   UNL     1       1.317   2.938   0.265  0.00  0.00    +0.004 A 
ATOM     15  C   UNL     1       2.619   2.515   0.454  0.00  0.00    -0.045 A 
ATOM     16  C   UNL     1       2.903   1.164   0.524  0.00  0.00    +0.004 A 
ATOM     17  C   UNL     1       1.885   0.236   0.402  0.00  0.00    +0.006 A 
BRANCH  15  18
ATOM     18  C   UNL     1       3.728   3.526   0.587  0.00  0.00    +0.013 C 
ATOM     19  C   UNL     1       3.800   4.375  -0.683  0.00  0.00    +0.012 C 
ATOM     20  C   UNL     1       3.452   4.430   1.790  0.00  0.00    +0.012 C 
ENDBRANCH  15  18
ENDBRANCH  11  12
BRANCH   2  21
ATOM     21  C   UNL     1      -1.457  -2.375   3.232  0.00  0.00    +0.001 A 
ATOM     22  C   UNL     1      -0.756  -1.955   4.362  0.00  0.00    +0.010 A 
ATOM     23  C   UNL     1      -1.210  -2.299   5.619  0.00  0.00    +0.001 A 
ATOM     24  C   UNL     1      -2.351  -3.068   5.759  0.00  0.00    +0.000 A 
ATOM     25  C   UNL     1      -3.047  -3.493   4.642  0.00  0.00    +0.001 A 
ATOM     26  C   UNL     1      -2.607  -3.151   3.380  0.00  0.00    +0.010 A 
ENDBRANCH   2  21
BRANCH   9  27
ATOM     27  C   UNL     1       1.394  -1.653  -4.823  0.00  0.00    +0.131 A 
ATOM     28  C   UNL     1       1.998  -1.617  -6.070  0.00  0.00    +0.051 A 
ATOM     29  C   UNL     1       1.694  -0.373  -6.627  0.00  0.00    +0.066 A 
ATOM     30  C   UNL     1       0.928   0.300  -5.719  0.00  0.00    +0.189 A 
ATOM     31  O   UNL     1       0.748  -0.478  -4.641  0.00  0.00    -0.442 OA
BRANCH  30  32
ATOM     32  N   UNL     1       0.416   1.571  -5.886  0.00  0.00    -0.305 N 
ATOM     33  C   UNL     1       1.487   2.537  -6.170  0.00  0.00    +0.089 C 
ATOM     34  C   UNL     1       0.873   3.915  -6.426  0.00  0.00    -0.060 C 
ATOM     35  C   UNL     1      -0.976   3.362  -4.966  0.00  0.00    -0.060 C 
ATOM     36  C   UNL     1      -0.362   1.984  -4.710  0.00  0.00    +0.089 C 
ATOM     37  C   UNL     1      -0.449   5.681  -5.427  0.00  0.00    -0.096 C 
ATOM     38  N   UNL     1       0.112   4.328  -5.228  0.00  0.00    +0.380 N 
ATOM     39  H   UNL     1       0.745   4.345  -4.420  0.00  0.00    -0.082 HD
ENDBRANCH  30  32
ENDBRANCH   9  27
BRANCH   1  40
ATOM     40  C   UNL     1      -1.522   0.324   2.309  0.00  0.00    +0.340 C 
ATOM     41  O   UNL     1      -1.786   0.067   3.470  0.00  0.00    -0.245 OA
BRANCH  40  42
ATOM     42  O   UNL     1      -1.707   1.575   1.834  0.00  0.00    -0.462 OA
BRANCH  42  44
ATOM     43  C   UNL     1      -2.358   3.894   2.036  0.00  0.00    +0.048 C 
ATOM     44  C   UNL     1      -2.216   2.548   2.749  0.00  0.00    +0.229 C 
ENDBRANCH  42  44
ENDBRANCH  40  42
ENDBRANCH   1  40
TORSDOF 8
