REMARK  Name = ZINC14150960
REMARK  11 active torsions:
REMARK  status: ('A' for Active; 'I' for Inactive)
REMARK    1  A    between atoms: C_1  and  C_2
REMARK    2  A    between atoms: C_2  and  O_3
REMARK    3  A    between atoms: O_3  and  C_4
REMARK    4  A    between atoms: C_4  and  C_6
REMARK    5  A    between atoms: C_10  and  N_11
REMARK    6  A    between atoms: C_12  and  C_14
REMARK    7  A    between atoms: C_14  and  C_26
REMARK    8  A    between atoms: C_15  and  C_16
REMARK    9  A    between atoms: C_18  and  O_24
REMARK   10  A    between atoms: C_19  and  O_23
REMARK   11  A    between atoms: O_24  and  C_25
REMARK                            x       y       z     vdW  Elec       q    Type
REMARK                         _______ _______ _______ _____ _____    ______ ____
ROOT
ATOM      1  N   UNL     1      -0.028   1.394   0.149  0.00  0.00    -0.275 N 
ATOM      2  C   UNL     1       1.129   2.077   0.053  0.00  0.00    +0.259 C 
ATOM      3  O   UNL     1       2.181   1.478  -0.073  0.00  0.00    -0.269 OA
ATOM      4  H   UNL     1      -0.867   1.871   0.246  0.00  0.00    +0.156 HD
ENDROOT
BRANCH   1   9
ATOM      5  C   UNL     1      -1.099  -0.863   0.192  0.00  0.00    +0.091 A 
ATOM      6  C   UNL     1      -0.818  -2.286   0.111  0.00  0.00    -0.021 A 
ATOM      7  C   UNL     1       0.486  -2.608  -0.032  0.00  0.00    -0.004 A 
ATOM      8  S   UNL     1       1.335  -1.055  -0.068  0.00  0.00    -0.077 S 
ATOM      9  C   UNL     1      -0.021   0.010   0.104  0.00  0.00    +0.087 A 
ATOM     10  C   UNL     1       1.071  -3.983  -0.134  0.00  0.00    +0.043 C 
ATOM     11  C   UNL     1       0.011  -4.995   0.322  0.00  0.00    +0.005 C 
ATOM     12  C   UNL     1      -1.314  -4.670  -0.375  0.00  0.00    +0.005 C 
ATOM     13  C   UNL     1      -1.889  -3.367   0.184  0.00  0.00    +0.037 C 
BRANCH   5  14
ATOM     14  C   UNL     1      -2.466  -0.366   0.355  0.00  0.00    +0.342 C 
ATOM     15  O   UNL     1      -3.147  -0.127  -0.624  0.00  0.00    -0.245 OA
BRANCH  14  16
ATOM     16  O   UNL     1      -2.971  -0.175   1.591  0.00  0.00    -0.461 OA
BRANCH  16  18
ATOM     17  C   UNL     1      -4.729   0.472   3.147  0.00  0.00    +0.048 C 
ATOM     18  C   UNL     1      -4.334   0.319   1.677  0.00  0.00    +0.229 C 
ENDBRANCH  16  18
ENDBRANCH  14  16
ENDBRANCH   5  14
ENDBRANCH   1   9
BRANCH   2  19
ATOM     19  C   UNL     1       1.121   3.547   0.101  0.00  0.00    +0.114 C 
ATOM     20  C   UNL     1       2.305   4.246   0.003  0.00  0.00    +0.032 C 
BRANCH  20  21
ATOM     21  C   UNL     1       2.287   5.707  -0.100  0.00  0.00    -0.019 A 
ATOM     22  C   UNL     1       3.359   6.461   0.400  0.00  0.00    +0.057 A 
ATOM     23  C   UNL     1       3.335   7.836   0.300  0.00  0.00    +0.163 A 
ATOM     24  C   UNL     1       2.248   8.475  -0.297  0.00  0.00    +0.173 A 
ATOM     25  C   UNL     1       1.184   7.730  -0.792  0.00  0.00    +0.063 A 
ATOM     26  C   UNL     1       1.200   6.356  -0.703  0.00  0.00    +0.027 A 
ATOM     27 BR   UNL     1      -0.286   8.605  -1.598  0.00  0.00    -0.046 Br
BRANCH  24  28
ATOM     28  O   UNL     1       2.228   9.829  -0.393  0.00  0.00    -0.503 OA
ATOM     29  H   UNL     1       2.624  10.171  -1.207  0.00  0.00    +0.292 HD
ENDBRANCH  24  28
BRANCH  23  30
ATOM     30  O   UNL     1       4.373   8.570   0.783  0.00  0.00    -0.491 OA
ATOM     31  C   UNL     1       5.454   7.851   1.381  0.00  0.00    +0.277 C 
ENDBRANCH  23  30
ENDBRANCH  20  21
BRANCH  19  32
ATOM     32  C   UNL     1      -0.116   4.252   0.250  0.00  0.00    +0.104 C 
ATOM     33  N   UNL     1      -1.098   4.811   0.368  0.00  0.00    -0.191 NA
ENDBRANCH  19  32
ENDBRANCH   2  19
TORSDOF 9
