REMARK  Name = ZINC09549788
REMARK  8 active torsions:
REMARK  status: ('A' for Active; 'I' for Inactive)
REMARK    1  A    between atoms: C_1  and  C_2
REMARK    2  A    between atoms: C_2  and  C_29
REMARK    3  A    between atoms: N_5  and  C_9
REMARK    4  A    between atoms: C_9  and  N_55
REMARK    5  A    between atoms: N_12  and  S_15
REMARK    6  A    between atoms: S_15  and  C_18
REMARK    7  A    between atoms: C_21  and  O_24
REMARK    8  A    between atoms: O_24  and  C_25
REMARK                            x       y       z     vdW  Elec       q    Type
REMARK                         _______ _______ _______ _____ _____    ______ ____
ROOT
ATOM      1  C   UNL     1      -2.375  -0.064   1.966  0.00  0.00    -0.059 C 
ATOM      2  C   UNL     1      -2.712  -0.142   3.459  0.00  0.00    +0.091 C 
ATOM      3  N   UNL     1      -4.166   0.013   3.618  0.00  0.00    -0.180 NA
ATOM      4  C   UNL     1      -4.820   1.158   2.966  0.00  0.00    +0.091 C 
ATOM      5  C   UNL     1      -4.399   1.185   1.493  0.00  0.00    -0.059 C 
ATOM      6  N   UNL     1      -2.922   1.197   1.421  0.00  0.00    +0.392 N 
ATOM      7  H   UNL     1      -2.568   1.983   1.980  0.00  0.00    -0.079 HD
ENDROOT
BRANCH   3   8
ATOM      8  S   UNL     1      -5.044  -1.074   4.507  0.00  0.00    +0.061 S 
ATOM      9  O   UNL     1      -4.138  -1.678   5.420  0.00  0.00    -0.153 OA
ATOM     10  O   UNL     1      -6.218  -0.396   4.934  0.00  0.00    -0.153 OA
BRANCH   8  11
ATOM     11  C   UNL     1      -5.570  -2.345   3.405  0.00  0.00    +0.106 A 
ATOM     12  C   UNL     1      -6.778  -2.228   2.743  0.00  0.00    +0.032 A 
ATOM     13  C   UNL     1      -7.190  -3.220   1.874  0.00  0.00    +0.048 A 
ATOM     14  C   UNL     1      -6.394  -4.339   1.674  0.00  0.00    +0.130 A 
ATOM     15  C   UNL     1      -5.185  -4.456   2.344  0.00  0.00    +0.048 A 
ATOM     16  C   UNL     1      -4.775  -3.459   3.207  0.00  0.00    +0.032 A 
BRANCH  14  17
ATOM     17  O   UNL     1      -6.800  -5.319   0.824  0.00  0.00    -0.406 OA
BRANCH  17  18
ATOM     18  C   UNL     1      -8.056  -5.131   0.169  0.00  0.00    +0.575 C 
ATOM     19  F   UNL     1      -8.012  -3.962  -0.598  0.00  0.00    -0.133 F 
ATOM     20  F   UNL     1      -8.316  -6.226  -0.663  0.00  0.00    -0.133 F 
ATOM     21  F   UNL     1      -9.069  -5.023   1.128  0.00  0.00    -0.133 F 
ENDBRANCH  17  18
ENDBRANCH  14  17
ENDBRANCH   8  11
ENDBRANCH   3   8
BRANCH   6  22
ATOM     22  C   UNL     1      -2.487   1.371   0.020  0.00  0.00    +0.043 C 
BRANCH  22  27
ATOM     23  C   UNL     1       1.140   4.093   1.270  0.00  0.00    +0.042 C 
ATOM     24  C   UNL     1       0.640   3.376   0.014  0.00  0.00    +0.112 C 
ATOM     25  C   UNL     1      -0.871   3.261   0.028  0.00  0.00    +0.245 C 
ATOM     26  O   UNL     1      -1.675   4.169   0.040  0.00  0.00    -0.273 OA
ATOM     27  N   UNL     1      -1.137   1.940   0.018  0.00  0.00    -0.241 N 
ATOM     28  C   UNL     1      -0.014   1.211   0.009  0.00  0.00    +0.308 C 
ATOM     29  O   UNL     1       0.002  -0.004   0.002  0.00  0.00    -0.252 OA
ATOM     30  N   UNL     1       1.094   1.974   0.002  0.00  0.00    -0.285 N 
ATOM     31  H   UNL     1       2.012   1.662  -0.009  0.00  0.00    +0.151 HD
BRANCH  24  32
ATOM     32  C   UNL     1       1.113   4.105  -1.245  0.00  0.00    +0.021 C 
ATOM     33  C   UNL     1       1.788   3.269  -2.334  0.00  0.00    +0.006 C 
ATOM     34  C   UNL     1       2.622   4.218  -1.471  0.00  0.00    +0.006 C 
ENDBRANCH  24  32
ENDBRANCH  22  27
ENDBRANCH   6  22
TORSDOF 7
