REMARK  Name = ZINC09835216
REMARK  12 active torsions:
REMARK  status: ('A' for Active; 'I' for Inactive)
REMARK    1  A    between atoms: C_1  and  C_2
REMARK    2  A    between atoms: C_3  and  S_28
REMARK    3  A    between atoms: N_9  and  C_12
REMARK    4  A    between atoms: C_12  and  C_13
REMARK    5  A    between atoms: N_15  and  C_16
REMARK    6  A    between atoms: C_16  and  C_17
REMARK    7  A    between atoms: C_17  and  C_18
REMARK    8  A    between atoms: C_18  and  N_75
REMARK    9  A    between atoms: C_20  and  C_27
REMARK   10  A    between atoms: C_23  and  C_26
REMARK   11  A    between atoms: S_28  and  N_31
REMARK   12  A    between atoms: C_34  and  C_37
REMARK                            x       y       z     vdW  Elec       q    Type
REMARK                         _______ _______ _______ _____ _____    ______ ____
ROOT
ATOM      1  C   UNL     1       6.214  -2.864   2.953  0.00  0.00    +0.053 C 
ATOM      2  C   UNL     1       5.568  -1.919   1.972  0.00  0.00    +0.016 A 
ATOM      3  C   UNL     1       4.593  -1.024   2.198  0.00  0.00    +0.130 A 
ATOM      4  C   UNL     1       4.114  -0.206   1.099  0.00  0.00    +0.099 A 
ATOM      5  C   UNL     1       4.743  -0.443  -0.137  0.00  0.00    +0.117 A 
ATOM      6  S   UNL     1       5.916  -1.722   0.235  0.00  0.00    -0.072 S 
ATOM      7  N   UNL     1       4.411   0.229  -1.235  0.00  0.00    -0.230 NA
ATOM      8  C   UNL     1       3.480   1.144  -1.208  0.00  0.00    +0.203 A 
ATOM      9  N   UNL     1       2.819   1.441  -0.059  0.00  0.00    -0.290 N 
ATOM     10  C   UNL     1       3.102   0.808   1.094  0.00  0.00    +0.264 A 
ATOM     11  O   UNL     1       2.503   1.090   2.118  0.00  0.00    -0.267 OA
ENDROOT
BRANCH   3  12
ATOM     12  S   UNL     1       3.903  -0.844   3.809  0.00  0.00    +0.062 S 
ATOM     13  O   UNL     1       2.543  -0.475   3.630  0.00  0.00    -0.153 OA
ATOM     14  O   UNL     1       4.290  -1.995   4.547  0.00  0.00    -0.153 OA
BRANCH  12  15
ATOM     15  N   UNL     1       4.654   0.449   4.522  0.00  0.00    -0.177 NA
ATOM     16  C   UNL     1       5.876   0.261   5.315  0.00  0.00    +0.110 C 
ATOM     17  C   UNL     1       5.676   0.887   6.694  0.00  0.00    +0.020 C 
ATOM     18  C   UNL     1       5.250   2.348   6.531  0.00  0.00    -0.012 C 
ATOM     19  C   UNL     1       3.923   2.413   5.772  0.00  0.00    +0.020 C 
ATOM     20  C   UNL     1       4.106   1.805   4.378  0.00  0.00    +0.110 C 
ATOM     21  C   UNL     1       5.079   2.986   7.911  0.00  0.00    +0.007 C 
ENDBRANCH  12  15
ENDBRANCH   3  12
BRANCH   9  22
ATOM     22  C   UNL     1       1.782   2.475  -0.075  0.00  0.00    +0.221 C 
BRANCH  22  23
ATOM     23  C   UNL     1       0.449   1.845  -0.388  0.00  0.00    +0.233 C 
ATOM     24  O   UNL     1       0.373   0.650  -0.579  0.00  0.00    -0.274 OA
ATOM     25  N   UNL     1      -0.658   2.611  -0.461  0.00  0.00    -0.314 N 
ATOM     26  H   UNL     1      -0.597   3.567  -0.308  0.00  0.00    +0.149 HD
BRANCH  25  27
ATOM     27  C   UNL     1      -1.952   1.999  -0.771  0.00  0.00    +0.102 C 
BRANCH  27  28
ATOM     28  C   UNL     1      -3.035   3.080  -0.793  0.00  0.00    +0.000 C 
BRANCH  28  29
ATOM     29  C   UNL     1      -4.387   2.441  -1.117  0.00  0.00    -0.077 C 
BRANCH  29  37
ATOM     30  C   UNL     1      -5.619   4.058   0.198  0.00  0.00    -0.076 C 
ATOM     31  C   UNL     1      -6.599   5.230   0.111  0.00  0.00    -0.031 C 
ATOM     32  C   UNL     1      -7.935   4.731  -0.446  0.00  0.00    +0.003 C 
ATOM     33  C   UNL     1      -7.700   4.089  -1.816  0.00  0.00    -0.031 C 
ATOM     34  C   UNL     1      -6.687   2.950  -1.673  0.00  0.00    -0.076 C 
ATOM     35  C   UNL     1      -7.154   5.140  -2.785  0.00  0.00    +0.005 C 
ATOM     36  C   UNL     1      -6.816   5.819   1.507  0.00  0.00    +0.005 C 
ATOM     37  N   UNL     1      -5.416   3.501  -1.156  0.00  0.00    +0.380 N 
ATOM     38  H   UNL     1      -5.099   4.251  -1.781  0.00  0.00    -0.082 HD
ENDBRANCH  29  37
ENDBRANCH  28  29
ENDBRANCH  27  28
ENDBRANCH  25  27
ENDBRANCH  22  23
ENDBRANCH   9  22
TORSDOF 8
