REMARK  Name = ZINC05342843
REMARK  8 active torsions:
REMARK  status: ('A' for Active; 'I' for Inactive)
REMARK    1  A    between atoms: C_1  and  C_2
REMARK    2  A    between atoms: C_4  and  C_30
REMARK    3  A    between atoms: C_5  and  O_29
REMARK    4  A    between atoms: C_6  and  C_8
REMARK    5  A    between atoms: N_16  and  C_26
REMARK    6  A    between atoms: C_17  and  C_19
REMARK    7  A    between atoms: C_26  and  C_27
REMARK    8  A    between atoms: C_27  and  O_28
REMARK                            x       y       z     vdW  Elec       q    Type
REMARK                         _______ _______ _______ _____ _____    ______ ____
ROOT
ATOM      1  C   UNL     1      -0.215  -3.120   2.788  0.00  0.00    +0.102 A 
ATOM      2  C   UNL     1       0.026  -2.394   3.959  0.00  0.00    +0.035 A 
ATOM      3  C   UNL     1       0.079  -3.327   4.976  0.00  0.00    +0.126 A 
ATOM      4  N   UNL     1      -0.129  -4.542   4.388  0.00  0.00    -0.272 N 
ATOM      5  H   UNL     1      -0.147  -5.392   4.856  0.00  0.00    +0.189 HD
ATOM      6  N   UNL     1      -0.300  -4.393   3.123  0.00  0.00    -0.173 NA
ATOM      7  C   UNL     1       0.331  -2.626   6.240  0.00  0.00    +0.266 C 
ATOM      8  O   UNL     1       0.433  -3.165   7.325  0.00  0.00    -0.268 OA
ATOM      9  N   UNL     1       0.434  -1.301   6.028  0.00  0.00    -0.283 N 
ATOM     10  C   UNL     1       0.253  -1.049   4.593  0.00  0.00    +0.144 C 
ENDROOT
BRANCH   1  16
ATOM     11  C   UNL     1       1.411  -0.082  -0.825  0.00  0.00    +0.044 C 
ATOM     12  C   UNL     1       0.422  -1.101  -0.320  0.00  0.00    -0.049 A 
ATOM     13  C   UNL     1      -0.619  -1.514  -1.133  0.00  0.00    +0.010 A 
ATOM     14  C   UNL     1      -1.531  -2.448  -0.678  0.00  0.00    -0.008 A 
ATOM     15  C   UNL     1      -1.406  -2.976   0.597  0.00  0.00    +0.129 A 
ATOM     16  C   UNL     1      -0.356  -2.561   1.420  0.00  0.00    +0.044 A 
ATOM     17  C   UNL     1       0.561  -1.624   0.950  0.00  0.00    +0.017 A 
ATOM     18  C   UNL     1      -2.661  -2.892  -1.570  0.00  0.00    +0.047 C 
BRANCH  15  19
ATOM     19  O   UNL     1      -2.303  -3.893   1.045  0.00  0.00    -0.506 OA
ATOM     20  H   UNL     1      -2.056  -4.809   0.856  0.00  0.00    +0.292 HD
ENDBRANCH  15  19
ENDBRANCH   1  16
BRANCH  10  21
ATOM     21  C   UNL     1      -0.944  -0.162   4.369  0.00  0.00    +0.013 A 
ATOM     22  C   UNL     1      -0.881   0.865   3.446  0.00  0.00    +0.008 A 
ATOM     23  C   UNL     1      -1.979   1.679   3.240  0.00  0.00    +0.001 A 
ATOM     24  C   UNL     1      -3.142   1.467   3.957  0.00  0.00    +0.003 A 
ATOM     25  C   UNL     1      -3.208   0.441   4.880  0.00  0.00    +0.039 A 
ATOM     26  C   UNL     1      -2.110  -0.378   5.083  0.00  0.00    +0.129 A 
ATOM     27  F   UNL     1      -2.175  -1.385   5.982  0.00  0.00    -0.205 F 
ENDBRANCH  10  21
BRANCH   9  28
ATOM     28  C   UNL     1       0.684  -0.285   7.053  0.00  0.00    +0.137 C 
BRANCH  28  29
ATOM     29  C   UNL     1       2.192  -0.074   7.205  0.00  0.00    +0.175 C 
BRANCH  29  30
ATOM     30  O   UNL     1       2.721   0.471   5.995  0.00  0.00    -0.393 OA
ATOM     31  H   UNL     1       3.675   0.631   6.019  0.00  0.00    +0.209 HD
ENDBRANCH  29  30
ENDBRANCH  28  29
ENDBRANCH   9  28
TORSDOF 6
