REMARK  Name = ZINC66672087
REMARK  10 active torsions:
REMARK  status: ('A' for Active; 'I' for Inactive)
REMARK    1  A    between atoms: C_1  and  C_2
REMARK    2  A    between atoms: C_2  and  C_3
REMARK    3  A    between atoms: C_2  and  C_4
REMARK    4  A    between atoms: C_2  and  C_5
REMARK    5  A    between atoms: C_7  and  N_14
REMARK    6  A    between atoms: N_8  and  C_10
REMARK    7  A    between atoms: C_10  and  C_11
REMARK    8  A    between atoms: C_10  and  C_12
REMARK    9  A    between atoms: C_10  and  C_13
REMARK   10  A    between atoms: C_15  and  C_17
REMARK                            x       y       z     vdW  Elec       q    Type
REMARK                         _______ _______ _______ _____ _____    ______ ____
ROOT
ATOM      1  N   UNL     1       3.573  -1.161  -3.285  0.00  0.00    -0.266 N 
ATOM      2  C   UNL     1       4.689  -0.777  -2.635  0.00  0.00    +0.255 C 
ATOM      3  O   UNL     1       4.604  -0.207  -1.564  0.00  0.00    -0.270 OA
ATOM      4  H   UNL     1       3.637  -1.546  -4.173  0.00  0.00    +0.157 HD
ENDROOT
BRANCH   2   5
ATOM      5  C   UNL     1       6.012  -1.047  -3.221  0.00  0.00    +0.102 A 
ATOM      6  C   UNL     1       7.175  -0.760  -2.520  0.00  0.00    +0.031 A 
ATOM      7  C   UNL     1       8.421  -1.038  -3.123  0.00  0.00    +0.037 A 
ATOM      8  C   UNL     1       8.484  -1.594  -4.389  0.00  0.00    +0.030 A 
ATOM      9  N   UNL     1       7.355  -1.869  -5.073  0.00  0.00    -0.325 N 
ATOM     10  H   UNL     1       7.425  -2.252  -5.962  0.00  0.00    +0.169 HD
ATOM     11  C   UNL     1       6.137  -1.633  -4.559  0.00  0.00    +0.261 A 
ATOM     12  O   UNL     1       5.139  -1.901  -5.204  0.00  0.00    -0.267 OA
ATOM     13  C   UNL     1       9.805  -1.918  -5.039  0.00  0.00    +0.054 C 
ATOM     14  C   UNL     1      10.934  -1.078  -4.450  0.00  0.00    +0.014 C 
ATOM     15  C   UNL     1      10.961  -1.265  -2.927  0.00  0.00    +0.080 C 
ATOM     16  C   UNL     1       9.656  -0.723  -2.385  0.00  0.00    +0.165 C 
ATOM     17  O   UNL     1       9.628  -0.051  -1.376  0.00  0.00    -0.292 OA
ENDBRANCH   2   5
BRANCH   1  20
ATOM     18  C   UNL     1       0.710  -0.508  -1.228  0.00  0.00    +0.070 A 
ATOM     19  C   UNL     1       2.090  -0.482  -1.447  0.00  0.00    +0.069 A 
ATOM     20  C   UNL     1       2.326  -1.005  -2.681  0.00  0.00    +0.124 A 
ATOM     21  N   UNL     1       1.126  -1.346  -3.217  0.00  0.00    -0.245 N 
ATOM     22  N   UNL     1       0.133  -1.028  -2.281  0.00  0.00    -0.174 NA
BRANCH  18  24
ATOM     23  C   UNL     1      -0.023   1.506   0.020  0.00  0.00    +0.017 C 
ATOM     24  C   UNL     1       0.005  -0.024   0.013  0.00  0.00    +0.006 C 
ATOM     25  C   UNL     1       0.750  -0.526   1.251  0.00  0.00    +0.017 C 
ATOM     26  C   UNL     1      -1.428  -0.561   0.028  0.00  0.00    +0.017 C 
ENDBRANCH  18  24
BRANCH  21  27
ATOM     27  C   UNL     1       0.909  -1.945  -4.536  0.00  0.00    +0.057 C 
ATOM     28  C   UNL     1       1.645  -3.284  -4.616  0.00  0.00    +0.036 C 
ATOM     29  C   UNL     1      -0.589  -2.173  -4.752  0.00  0.00    +0.036 C 
ATOM     30  C   UNL     1       1.443  -1.004  -5.618  0.00  0.00    +0.036 C 
ENDBRANCH  21  27
ENDBRANCH   1  20
TORSDOF 4
