REMARK  Name = ZINC63349532
REMARK  6 active torsions:
REMARK  status: ('A' for Active; 'I' for Inactive)
REMARK    1  A    between atoms: C_1  and  C_2
REMARK    2  A    between atoms: C_3  and  C_14
REMARK    3  A    between atoms: C_5  and  C_7
REMARK    4  A    between atoms: C_14  and  S_15
REMARK    5  A    between atoms: S_15  and  C_16
REMARK    6  A    between atoms: N_27  and  C_28
REMARK                            x       y       z     vdW  Elec       q    Type
REMARK                         _______ _______ _______ _____ _____    ______ ____
ROOT
ATOM      1  C   UNL     1      -4.829   0.324  -1.509  0.00  0.00    +0.209 C 
ATOM      2  N   UNL     1      -5.585  -0.687  -0.721  0.00  0.00    -0.273 NA
ATOM      3  C   UNL     1      -6.555   0.157  -0.012  0.00  0.00    +0.209 C 
ATOM      4  C   UNL     1      -5.803   1.455   0.238  0.00  0.00    +0.132 C 
ATOM      5  N   UNL     1      -6.069   2.073   1.365  0.00  0.00    -0.225 NA
ATOM      6  C   UNL     1      -6.781   1.485   2.319  0.00  0.00    +0.213 C 
ATOM      7  N   UNL     1      -7.234   0.254   2.297  0.00  0.00    -0.167 NA
ATOM      8  C   UNL     1      -7.114  -0.534   1.203  0.00  0.00    +0.262 C 
ATOM      9  O   UNL     1      -7.424  -1.709   1.200  0.00  0.00    -0.271 OA
ATOM     10  N   UNL     1      -4.899   1.583  -0.748  0.00  0.00    -0.262 N 
ATOM     11  H   UNL     1      -6.053  -1.343  -1.329  0.00  0.00    +0.126 HD
ENDROOT
BRANCH  10  12
ATOM     12  C   UNL     1      -4.143   2.729  -1.010  0.00  0.00    +0.037 A 
ATOM     13  C   UNL     1      -3.239   2.741  -2.064  0.00  0.00    +0.023 A 
ATOM     14  C   UNL     1      -2.494   3.875  -2.320  0.00  0.00    +0.002 A 
ATOM     15  C   UNL     1      -2.647   4.998  -1.527  0.00  0.00    +0.000 A 
ATOM     16  C   UNL     1      -3.545   4.989  -0.476  0.00  0.00    +0.002 A 
ATOM     17  C   UNL     1      -4.298   3.861  -0.219  0.00  0.00    +0.023 A 
ENDBRANCH  10  12
BRANCH   1  18
ATOM     18  S   UNL     1      -3.101  -0.196  -1.694  0.00  0.00    -0.116 S 
BRANCH  18  19
ATOM     19  C   UNL     1      -2.513  -0.381   0.012  0.00  0.00    +0.131 C 
BRANCH  19  22
ATOM     20  C   UNL     1      -0.018   1.503   0.010  0.00  0.00    +0.088 C 
ATOM     21  C   UNL     1       0.002  -0.004   0.002  0.00  0.00    +0.127 A 
ATOM     22  C   UNL     1      -1.070  -0.816   0.003  0.00  0.00    +0.093 A 
ATOM     23  N   UNL     1      -0.627  -2.083  -0.007  0.00  0.00    -0.213 NA
ATOM     24  C   UNL     1       0.685  -2.068  -0.013  0.00  0.00    +0.228 A 
ATOM     25  O   UNL     1       1.098  -0.788  -0.013  0.00  0.00    -0.440 OA
BRANCH  24  26
ATOM     26  C   UNL     1       1.562  -3.258  -0.023  0.00  0.00    +0.037 A 
ATOM     27  C   UNL     1       1.006  -4.538  -0.033  0.00  0.00    +0.014 A 
ATOM     28  C   UNL     1       1.829  -5.644  -0.042  0.00  0.00    +0.021 A 
ATOM     29  C   UNL     1       3.205  -5.487  -0.042  0.00  0.00    +0.041 A 
ATOM     30  C   UNL     1       3.762  -4.220  -0.032  0.00  0.00    +0.021 A 
ATOM     31  C   UNL     1       2.949  -3.106  -0.029  0.00  0.00    +0.014 A 
ATOM     32 CL   UNL     1       4.234  -6.885  -0.053  0.00  0.00    -0.084 Cl
ENDBRANCH  24  26
ENDBRANCH  19  22
ENDBRANCH  18  19
ENDBRANCH   1  18
TORSDOF 5
