REMARK  Name = ZINC22345090
REMARK  16 active torsions:
REMARK  status: ('A' for Active; 'I' for Inactive)
REMARK    1  A    between atoms: C_1  and  C_2
REMARK    2  A    between atoms: C_5  and  N_8
REMARK    3  A    between atoms: N_8  and  C_9
REMARK    4  A    between atoms: N_8  and  S_26
REMARK    5  A    between atoms: C_9  and  C_10
REMARK    6  A    between atoms: N_12  and  C_13
REMARK    7  A    between atoms: C_13  and  C_14
REMARK    8  A    between atoms: C_14  and  C_15
REMARK    9  A    between atoms: C_15  and  C_16
REMARK   10  A    between atoms: C_20  and  O_22
REMARK   11  A    between atoms: O_22  and  C_23
REMARK   12  A    between atoms: C_23  and  C_24
REMARK   13  A    between atoms: C_23  and  C_25
REMARK   14  A    between atoms: S_26  and  C_29
REMARK   15  A    between atoms: C_32  and  S_35
REMARK   16  A    between atoms: S_35  and  C_36
REMARK                            x       y       z     vdW  Elec       q    Type
REMARK                         _______ _______ _______ _____ _____    ______ ____
ROOT
ATOM      1  N   UNL     1      -0.590  11.104  -5.805  0.00  0.00    -0.194 N 
ENDROOT
BRANCH   1   6
ATOM      2  C   UNL     1      -4.503  14.793  -4.004  0.00  0.00    +0.044 C 
ATOM      3  C   UNL     1      -3.463  13.812  -4.483  0.00  0.00    -0.050 A 
ATOM      4  C   UNL     1      -3.614  12.463  -4.220  0.00  0.00    +0.005 A 
ATOM      5  C   UNL     1      -2.663  11.562  -4.657  0.00  0.00    +0.025 A 
ATOM      6  C   UNL     1      -1.554  12.012  -5.362  0.00  0.00    +0.052 A 
ATOM      7  C   UNL     1      -1.403  13.369  -5.619  0.00  0.00    +0.025 A 
ATOM      8  C   UNL     1      -2.360  14.264  -5.184  0.00  0.00    +0.005 A 
ENDBRANCH   1   6
BRANCH   1   9
ATOM      9  S   UNL     1       0.971  11.603  -6.042  0.00  0.00    +0.075 S 
ATOM     10  O   UNL     1       1.146  12.775  -5.258  0.00  0.00    -0.150 OA
ATOM     11  O   UNL     1       1.792  10.454  -5.888  0.00  0.00    -0.150 OA
BRANCH   9  12
ATOM     12  C   UNL     1       1.109  12.099  -7.727  0.00  0.00    +0.109 A 
ATOM     13  C   UNL     1       1.350  11.153  -8.707  0.00  0.00    +0.030 A 
ATOM     14  C   UNL     1       1.453  11.537 -10.029  0.00  0.00    +0.016 A 
ATOM     15  C   UNL     1       1.327  12.877 -10.373  0.00  0.00    +0.008 A 
ATOM     16  C   UNL     1       1.091  13.826  -9.385  0.00  0.00    +0.016 A 
ATOM     17  C   UNL     1       0.983  13.434  -8.066  0.00  0.00    +0.030 A 
BRANCH  15  18
ATOM     18  S   UNL     1       1.465  13.373 -12.059  0.00  0.00    -0.129 S 
ATOM     19  C   UNL     1       1.765  11.822 -12.949  0.00  0.00    +0.090 C 
ENDBRANCH  15  18
ENDBRANCH   9  12
ENDBRANCH   1   9
BRANCH   1  20
ATOM     20  C   UNL     1      -0.961   9.710  -6.061  0.00  0.00    +0.227 C 
BRANCH  20  21
ATOM     21  C   UNL     1      -0.896   8.929  -4.774  0.00  0.00    +0.232 C 
ATOM     22  O   UNL     1      -0.573   9.482  -3.744  0.00  0.00    -0.274 OA
ATOM     23  N   UNL     1      -1.198   7.615  -4.766  0.00  0.00    -0.314 N 
ATOM     24  H   UNL     1      -1.491   7.113  -5.700  0.00  0.00    +0.149 HD
BRANCH  23  25
ATOM     25  C   UNL     1      -1.135   6.856  -3.515  0.00  0.00    +0.104 C 
BRANCH  25  26
ATOM     26  C   UNL     1      -1.521   5.400  -3.782  0.00  0.00    +0.023 C 
BRANCH  26  27
ATOM     27  C   UNL     1      -1.456   4.607  -2.475  0.00  0.00    +0.037 C 
BRANCH  27  28
ATOM     28  C   UNL     1      -1.837   3.173  -2.738  0.00  0.00    -0.044 A 
ATOM     29  C   UNL     1      -0.863   2.251  -3.076  0.00  0.00    +0.004 A 
ATOM     30  C   UNL     1      -1.209   0.934  -3.318  0.00  0.00    +0.004 A 
ATOM     31  C   UNL     1      -2.529   0.537  -3.222  0.00  0.00    +0.045 A 
ATOM     32  C   UNL     1      -3.508   1.461  -2.888  0.00  0.00    +0.121 A 
ATOM     33  C   UNL     1      -3.157   2.781  -2.640  0.00  0.00    +0.049 A 
BRANCH  32  34
ATOM     34  O   UNL     1      -4.808   1.074  -2.799  0.00  0.00    -0.489 OA
BRANCH  34  35
ATOM     35  C   UNL     1      -5.744   2.048  -2.332  0.00  0.00    +0.167 C 
ATOM     36  C   UNL     1      -6.226   2.898  -3.509  0.00  0.00    +0.051 C 
ATOM     37  C   UNL     1      -6.939   1.339  -1.691  0.00  0.00    +0.051 C 
ENDBRANCH  34  35
ENDBRANCH  32  34
ENDBRANCH  27  28
ENDBRANCH  26  27
ENDBRANCH  25  26
ENDBRANCH  23  25
ENDBRANCH  20  21
ENDBRANCH   1  20
TORSDOF 12
