REMARK  Name = ZINC65752293
REMARK  5 active torsions:
REMARK  status: ('A' for Active; 'I' for Inactive)
REMARK    1  A    between atoms: C_3  and  C_21
REMARK    2  A    between atoms: C_5  and  N_7
REMARK    3  A    between atoms: N_10  and  C_11
REMARK    4  A    between atoms: C_21  and  N_22
REMARK    5  A    between atoms: C_26  and  C_27
REMARK                            x       y       z     vdW  Elec       q    Type
REMARK                         _______ _______ _______ _____ _____    ______ ____
ROOT
ATOM      1  C   UNL     1       0.140   1.379  -0.616  0.00  0.00    +0.002 A 
ATOM      2  C   UNL     1       1.169   2.086  -0.021  0.00  0.00    +0.002 A 
ATOM      3  C   UNL     1       2.220   1.413   0.573  0.00  0.00    -0.062 A 
ATOM      4  C   UNL     1       2.246   0.032   0.575  0.00  0.00    +0.025 A 
ATOM      5  C   UNL     1       1.214  -0.681  -0.021  0.00  0.00    +0.035 A 
ATOM      6  C   UNL     1       0.159  -0.002  -0.617  0.00  0.00    +0.023 A 
ENDROOT
BRANCH   5   7
ATOM      7  N   UNL     1       1.237  -2.080  -0.021  0.00  0.00    -0.269 N 
ATOM      8  C   UNL     1       0.087  -2.773   0.088  0.00  0.00    +0.304 C 
ATOM      9  O   UNL     1      -0.978  -2.185   0.102  0.00  0.00    -0.252 OA
ATOM     10  N   UNL     1       0.116  -4.117   0.181  0.00  0.00    -0.294 N 
ATOM     11  H   UNL     1       2.082  -2.551  -0.100  0.00  0.00    +0.156 HD
ATOM     12  H   UNL     1       0.965  -4.586   0.170  0.00  0.00    +0.151 HD
BRANCH  10  13
ATOM     13  C   UNL     1      -1.135  -4.870   0.300  0.00  0.00    +0.037 C 
ATOM     14  C   UNL     1      -1.879  -4.428   1.561  0.00  0.00    +0.029 C 
ATOM     15  C   UNL     1      -3.186  -5.215   1.685  0.00  0.00    -0.008 C 
ATOM     16  C   UNL     1      -2.874  -6.710   1.775  0.00  0.00    +0.007 C 
ATOM     17  C   UNL     1      -2.130  -7.152   0.513  0.00  0.00    -0.008 C 
ATOM     18  C   UNL     1      -0.824  -6.366   0.390  0.00  0.00    +0.029 C 
ATOM     19  C   UNL     1      -3.004  -6.886  -0.714  0.00  0.00    +0.007 C 
ATOM     20  C   UNL     1      -3.315  -5.391  -0.804  0.00  0.00    -0.008 C 
ATOM     21  C   UNL     1      -4.060  -4.949   0.458  0.00  0.00    +0.007 C 
ATOM     22  C   UNL     1      -2.009  -4.604  -0.927  0.00  0.00    +0.029 C 
ENDBRANCH  10  13
ENDBRANCH   5   7
BRANCH   3  23
ATOM     23  C   UNL     1       3.340   2.188   1.219  0.00  0.00    -0.042 C 
BRANCH  23  24
ATOM     24  N   UNL     1       3.017   2.429   2.632  0.00  0.00    +0.390 N 
ATOM     25  C   UNL     1       3.048   1.152   3.389  0.00  0.00    -0.077 C 
ATOM     26  C   UNL     1       3.259   1.613   4.853  0.00  0.00    -0.020 C 
ATOM     27  C   UNL     1       4.225   2.810   4.703  0.00  0.00    -0.008 C 
ATOM     28  C   UNL     1       4.048   3.290   3.251  0.00  0.00    +0.019 C 
ATOM     29  H   UNL     1       2.109   2.861   2.713  0.00  0.00    -0.080 HD
BRANCH  28  30
ATOM     30  C   UNL     1       3.594   4.727   3.236  0.00  0.00    +0.197 C 
ATOM     31  O   UNL     1       2.517   5.017   2.759  0.00  0.00    -0.278 OA
ATOM     32  N   UNL     1       4.383   5.689   3.753  0.00  0.00    -0.331 N 
ATOM     33  H   UNL     1       5.244   5.456   4.135  0.00  0.00    +0.145 HD
ATOM     34  H   UNL     1       4.090   6.613   3.744  0.00  0.00    +0.145 HD
ENDBRANCH  28  30
ENDBRANCH  23  24
ENDBRANCH   3  23
TORSDOF 5
