REMARK  Name = ZINC14981522
REMARK  9 active torsions:
REMARK  status: ('A' for Active; 'I' for Inactive)
REMARK    1  A    between atoms: C_1  and  C_2
REMARK    2  A    between atoms: C_2  and  C_3
REMARK    3  A    between atoms: C_2  and  C_4
REMARK    4  A    between atoms: C_4  and  C_5
REMARK    5  A    between atoms: C_5  and  N_56
REMARK    6  A    between atoms: C_6  and  N_56
REMARK    7  A    between atoms: N_17  and  C_20
REMARK    8  A    between atoms: C_20  and  C_21
REMARK    9  A    between atoms: C_25  and  C_27
REMARK                            x       y       z     vdW  Elec       q    Type
REMARK                         _______ _______ _______ _____ _____    ______ ____
ROOT
ATOM      1  C   UNL     1      -4.536   7.086  -6.057  0.00  0.00    -0.067 C 
ATOM      2  C   UNL     1      -4.800   7.445  -4.592  0.00  0.00    -0.011 C 
ATOM      3  C   UNL     1      -3.870   6.640  -3.683  0.00  0.00    +0.035 C 
ATOM      4  C   UNL     1      -2.432   6.829  -4.159  0.00  0.00    -0.023 A 
ATOM      5  C   UNL     1      -2.172   7.281  -5.404  0.00  0.00    -0.006 A 
ATOM      6  S   UNL     1      -0.404   7.340  -5.511  0.00  0.00    -0.073 S 
ATOM      7  C   UNL     1      -0.019   6.755  -3.880  0.00  0.00    +0.116 A 
ATOM      8  C   UNL     1      -1.281   6.535  -3.307  0.00  0.00    +0.076 A 
ATOM      9  C   UNL     1      -1.272   6.049  -1.958  0.00  0.00    +0.263 A 
ATOM     10  O   UNL     1      -2.318   5.828  -1.372  0.00  0.00    -0.267 OA
ATOM     11  N   UNL     1      -0.090   5.842  -1.348  0.00  0.00    -0.294 N 
ATOM     12  C   UNL     1       1.085   6.089  -1.983  0.00  0.00    +0.203 A 
ATOM     13  N   UNL     1       1.109   6.526  -3.214  0.00  0.00    -0.230 NA
ATOM     14  C   UNL     1      -3.166   7.650  -6.462  0.00  0.00    +0.027 C 
ENDROOT
BRANCH   1  15
ATOM     15  N   UNL     1      -5.589   7.680  -6.901  0.00  0.00    +0.381 N 
ATOM     16  H   UNL     1      -6.480   7.667  -6.391  0.00  0.00    -0.086 HD
ATOM     17  H   UNL     1      -5.338   8.650  -7.125  0.00  0.00    -0.086 HD
BRANCH  15  18
ATOM     18  C   UNL     1      -5.734   6.915  -8.154  0.00  0.00    -0.082 C 
BRANCH  18  19
ATOM     19  C   UNL     1      -6.831   7.553  -9.008  0.00  0.00    -0.016 C 
BRANCH  19  21
ATOM     20  C   UNL     1      -8.167   7.326 -11.107  0.00  0.00    +0.007 C 
ATOM     21  C   UNL     1      -6.988   6.765 -10.310  0.00  0.00    -0.019 C 
ATOM     22  C   UNL     1      -5.707   6.889 -11.138  0.00  0.00    +0.007 C 
ENDBRANCH  19  21
ENDBRANCH  18  19
ENDBRANCH  15  18
ENDBRANCH   1  15
BRANCH  11  23
ATOM     23  C   UNL     1      -0.070   5.347   0.030  0.00  0.00    +0.161 C 
BRANCH  23  24
ATOM     24  C   UNL     1      -0.050   3.840   0.022  0.00  0.00    -0.027 A 
ATOM     25  C   UNL     1       1.157   3.165   0.008  0.00  0.00    +0.005 A 
ATOM     26  C   UNL     1       1.175   1.783   0.000  0.00  0.00    +0.001 A 
ATOM     27  C   UNL     1      -0.013   1.076   0.008  0.00  0.00    +0.012 A 
ATOM     28  C   UNL     1      -1.219   1.750   0.017  0.00  0.00    +0.055 A 
ATOM     29  C   UNL     1      -1.238   3.133   0.030  0.00  0.00    +0.017 A 
BRANCH  28  30
ATOM     30  C   UNL     1      -2.514   0.979   0.019  0.00  0.00    +0.417 C 
ATOM     31  F   UNL     1      -2.239  -0.392   0.010  0.00  0.00    -0.166 F 
ATOM     32  F   UNL     1      -3.246   1.301   1.167  0.00  0.00    -0.166 F 
ATOM     33  F   UNL     1      -3.257   1.314  -1.118  0.00  0.00    -0.166 F 
ENDBRANCH  28  30
ENDBRANCH  23  24
ENDBRANCH  11  23
TORSDOF 7
