REMARK  Name = ZINC22324448
REMARK  11 active torsions:
REMARK  status: ('A' for Active; 'I' for Inactive)
REMARK    1  A    between atoms: C_1  and  C_2
REMARK    2  A    between atoms: C_5  and  S_8
REMARK    3  A    between atoms: S_8  and  N_11
REMARK    4  A    between atoms: N_11  and  C_12
REMARK    5  A    between atoms: N_11  and  C_29
REMARK    6  A    between atoms: C_12  and  C_13
REMARK    7  A    between atoms: N_15  and  C_16
REMARK    8  A    between atoms: C_19  and  C_27
REMARK    9  A    between atoms: C_19  and  C_28
REMARK   10  A    between atoms: C_34  and  O_35
REMARK   11  A    between atoms: O_35  and  C_36
REMARK                            x       y       z     vdW  Elec       q    Type
REMARK                         _______ _______ _______ _____ _____    ______ ____
ROOT
ATOM      1  N   UNL     1      -3.678   1.673  -0.671  0.00  0.00    -0.191 N 
ENDROOT
BRANCH   1   2
ATOM      2  C   UNL     1      -4.029   1.815  -2.018  0.00  0.00    +0.095 A 
ATOM      3  C   UNL     1      -4.847   0.874  -2.626  0.00  0.00    +0.048 A 
ATOM      4  C   UNL     1      -5.197   1.020  -3.957  0.00  0.00    +0.043 A 
ATOM      5  C   UNL     1      -4.723   2.096  -4.686  0.00  0.00    +0.024 A 
ATOM      6  C   UNL     1      -3.901   3.034  -4.087  0.00  0.00    +0.049 A 
ATOM      7  C   UNL     1      -3.552   2.898  -2.754  0.00  0.00    +0.143 A 
ATOM      8 CL   UNL     1      -6.227  -0.154  -4.715  0.00  0.00    -0.083 Cl
BRANCH   7   9
ATOM      9  O   UNL     1      -2.745   3.820  -2.163  0.00  0.00    -0.493 OA
ATOM     10  C   UNL     1      -2.293   4.904  -2.978  0.00  0.00    +0.277 C 
ENDBRANCH   7   9
ENDBRANCH   1   2
BRANCH   1  11
ATOM     11  S   UNL     1      -4.550   2.457   0.499  0.00  0.00    +0.075 S 
ATOM     12  O   UNL     1      -5.878   2.575   0.005  0.00  0.00    -0.150 OA
ATOM     13  O   UNL     1      -4.250   1.813   1.729  0.00  0.00    -0.150 OA
BRANCH  11  18
ATOM     14  C   UNL     1      -2.357   8.063   0.903  0.00  0.00    +0.044 C 
ATOM     15  C   UNL     1      -2.906   6.663   0.803  0.00  0.00    -0.050 A 
ATOM     16  C   UNL     1      -3.988   6.402  -0.016  0.00  0.00    +0.005 A 
ATOM     17  C   UNL     1      -4.490   5.117  -0.109  0.00  0.00    +0.029 A 
ATOM     18  C   UNL     1      -3.910   4.094   0.617  0.00  0.00    +0.109 A 
ATOM     19  C   UNL     1      -2.831   4.356   1.440  0.00  0.00    +0.029 A 
ATOM     20  C   UNL     1      -2.326   5.640   1.530  0.00  0.00    +0.005 A 
ENDBRANCH  11  18
ENDBRANCH   1  11
BRANCH   1  21
ATOM     21  C   UNL     1      -2.539   0.832  -0.294  0.00  0.00    +0.227 C 
BRANCH  21  22
ATOM     22  C   UNL     1      -1.272   1.644  -0.359  0.00  0.00    +0.233 C 
ATOM     23  O   UNL     1      -1.325   2.836  -0.579  0.00  0.00    -0.274 OA
ATOM     24  N   UNL     1      -0.078   1.046  -0.172  0.00  0.00    -0.307 N 
ATOM     25  H   UNL     1      -0.024  -0.044  -0.040  0.00  0.00    +0.149 HD
BRANCH  24  26
ATOM     26  C   UNL     1       1.147   1.849  -0.145  0.00  0.00    +0.110 C 
ATOM     27  C   UNL     1       2.304   1.032  -0.724  0.00  0.00    +0.074 C 
ATOM     28  C   UNL     1       3.614   1.770  -0.419  0.00  0.00    +0.107 C 
ATOM     29  O   UNL     1       3.800   1.792   0.997  0.00  0.00    -0.486 OA
ATOM     30  C   UNL     1       2.755   2.191   1.768  0.00  0.00    +0.126 A 
ATOM     31  C   UNL     1       1.462   2.236   1.278  0.00  0.00    +0.015 A 
ATOM     32  C   UNL     1       0.426   2.645   2.102  0.00  0.00    +0.009 A 
ATOM     33  C   UNL     1       0.679   3.010   3.410  0.00  0.00    +0.001 A 
ATOM     34  C   UNL     1       1.970   2.970   3.901  0.00  0.00    +0.004 A 
ATOM     35  C   UNL     1       3.006   2.562   3.086  0.00  0.00    +0.046 A 
ATOM     36  C   UNL     1       4.784   1.038  -1.081  0.00  0.00    +0.055 C 
ATOM     37  C   UNL     1       3.535   3.203  -0.950  0.00  0.00    +0.055 C 
ENDBRANCH  24  26
ENDBRANCH  21  22
ENDBRANCH   1  21
TORSDOF 7
