REMARK  Name = ZINC10219041
REMARK  4 active torsions:
REMARK  status: ('A' for Active; 'I' for Inactive)
REMARK    1  A    between atoms: C_3  and  S_8
REMARK    2  A    between atoms: S_8  and  N_11
REMARK    3  A    between atoms: N_15  and  C_18
REMARK    4  A    between atoms: C_21  and  C_23
REMARK                            x       y       z     vdW  Elec       q    Type
REMARK                         _______ _______ _______ _____ _____    ______ ____
ROOT
ATOM      1  N   UNL     1      -0.739   1.582   1.226  0.00  0.00    -0.175 NA
ATOM      2  C   UNL     1      -0.013   1.086   0.008  0.00  0.00    +0.111 C 
ATOM      3  C   UNL     1      -0.744   1.583  -1.162  0.00  0.00    +0.036 C 
ATOM      4  C   UNL     1      -0.875   3.101  -1.216  0.00  0.00    +0.108 C 
ATOM      5  N   UNL     1      -2.101   3.405  -0.526  0.00  0.00    -0.314 N 
ATOM      6  C   UNL     1      -1.860   3.827   0.881  0.00  0.00    +0.123 C 
ATOM      7  C   UNL     1      -0.728   2.989   1.516  0.00  0.00    +0.128 C 
ENDROOT
BRANCH   5   8
ATOM      8  C   UNL     1      -2.837   4.362  -1.215  0.00  0.00    +0.118 A 
ATOM      9  C   UNL     1      -3.190   4.138  -2.543  0.00  0.00    +0.079 A 
ATOM     10  C   UNL     1      -3.922   5.100  -3.216  0.00  0.00    +0.037 A 
ATOM     11  C   UNL     1      -4.277   6.258  -2.537  0.00  0.00    +0.072 A 
ATOM     12  C   UNL     1      -3.893   6.414  -1.220  0.00  0.00    +0.096 A 
ATOM     13 CL   UNL     1      -2.719   2.671  -3.343  0.00  0.00    -0.080 Cl
ATOM     14  N   UNL     1      -3.179   5.488  -0.525  0.00  0.00    -0.348 N 
ATOM     15  H   UNL     1      -2.915   5.628   0.457  0.00  0.00    +0.167 HD
BRANCH  11  16
ATOM     16  C   UNL     1      -5.074   7.333  -3.230  0.00  0.00    +0.419 C 
ATOM     17  F   UNL     1      -6.440   7.090  -3.050  0.00  0.00    -0.166 F 
ATOM     18  F   UNL     1      -4.746   8.580  -2.687  0.00  0.00    -0.166 F 
ATOM     19  F   UNL     1      -4.776   7.327  -4.596  0.00  0.00    -0.166 F 
ENDBRANCH  11  16
ENDBRANCH   5   8
BRANCH   1  20
ATOM     20  S   UNL     1      -1.543   0.525   2.216  0.00  0.00    +0.061 S 
ATOM     21  O   UNL     1      -2.540   1.279   2.891  0.00  0.00    -0.153 OA
ATOM     22  O   UNL     1      -1.854  -0.614   1.425  0.00  0.00    -0.153 OA
BRANCH  20  25
ATOM     23  C   UNL     1       1.277  -1.554   4.184  0.00  0.00    +0.003 A 
ATOM     24  C   UNL     1       0.376  -1.135   3.223  0.00  0.00    +0.028 A 
ATOM     25  C   UNL     1      -0.398  -0.011   3.443  0.00  0.00    +0.107 A 
ATOM     26  C   UNL     1      -0.279   0.689   4.630  0.00  0.00    +0.043 A 
ATOM     27  C   UNL     1       0.619   0.267   5.593  0.00  0.00    +0.020 A 
ATOM     28  C   UNL     1       1.397  -0.855   5.370  0.00  0.00    +0.015 A 
ATOM     29 BR   UNL     1       0.782   1.224   7.216  0.00  0.00    -0.050 Br
ENDBRANCH  20  25
ENDBRANCH   1  20
TORSDOF 4
