REMARK  Name = ZINC64139354
REMARK  9 active torsions:
REMARK  status: ('A' for Active; 'I' for Inactive)
REMARK    1  A    between atoms: C_1  and  O_2
REMARK    2  A    between atoms: O_2  and  C_3
REMARK    3  A    between atoms: C_3  and  C_5
REMARK    4  A    between atoms: C_5  and  C_7
REMARK    5  A    between atoms: C_5  and  N_17
REMARK    6  A    between atoms: C_7  and  C_8
REMARK    7  A    between atoms: C_18  and  C_20
REMARK    8  A    between atoms: N_25  and  S_27
REMARK    9  A    between atoms: S_27  and  C_30
REMARK                            x       y       z     vdW  Elec       q    Type
REMARK                         _______ _______ _______ _____ _____    ______ ____
ROOT
ATOM      1  N   UNL     1      -2.643  -2.570   0.013  0.00  0.00    -0.302 N 
ATOM      2  C   UNL     1      -3.306  -2.679   1.182  0.00  0.00    +0.218 C 
ATOM      3  O   UNL     1      -2.744  -2.417   2.224  0.00  0.00    -0.275 OA
ATOM      4  H   UNL     1      -3.092  -2.779  -0.820  0.00  0.00    +0.150 HD
ENDROOT
BRANCH   2   5
ATOM      5  C   UNL     1      -4.745  -3.126   1.193  0.00  0.00    +0.091 C 
ATOM      6  C   UNL     1      -4.851  -4.523   0.579  0.00  0.00    +0.015 C 
ATOM      7  C   UNL     1      -6.316  -4.965   0.560  0.00  0.00    +0.018 C 
ATOM      8  C   UNL     1      -6.845  -5.027   1.996  0.00  0.00    +0.109 C 
ATOM      9  N   UNL     1      -6.614  -3.728   2.642  0.00  0.00    -0.176 NA
ATOM     10  C   UNL     1      -5.256  -3.167   2.637  0.00  0.00    +0.122 C 
BRANCH   9  11
ATOM     11  S   UNL     1      -7.862  -2.910   3.361  0.00  0.00    +0.061 S 
ATOM     12  O   UNL     1      -7.492  -1.538   3.377  0.00  0.00    -0.153 OA
ATOM     13  O   UNL     1      -9.057  -3.369   2.746  0.00  0.00    -0.153 OA
BRANCH  11  14
ATOM     14  C   UNL     1      -7.927  -3.433   5.042  0.00  0.00    +0.106 A 
ATOM     15  C   UNL     1      -8.700  -4.523   5.397  0.00  0.00    +0.031 A 
ATOM     16  C   UNL     1      -8.752  -4.935   6.715  0.00  0.00    +0.040 A 
ATOM     17  C   UNL     1      -8.029  -4.256   7.681  0.00  0.00    +0.124 A 
ATOM     18  C   UNL     1      -7.254  -3.164   7.324  0.00  0.00    +0.040 A 
ATOM     19  C   UNL     1      -7.200  -2.758   6.005  0.00  0.00    +0.031 A 
ATOM     20  F   UNL     1      -8.079  -4.657   8.970  0.00  0.00    -0.205 F 
ENDBRANCH  11  14
ENDBRANCH   9  11
ENDBRANCH   2   5
BRANCH   1  21
ATOM     21  C   UNL     1      -1.244  -2.135   0.003  0.00  0.00    +0.186 C 
BRANCH  21  22
ATOM     22  C   UNL     1      -1.185  -0.630   0.010  0.00  0.00    +0.328 C 
ATOM     23  O   UNL     1      -2.208   0.015   0.023  0.00  0.00    -0.249 OA
BRANCH  22  25
ATOM     24  C   UNL     1      -0.017   1.425   0.010  0.00  0.00    +0.280 C 
ATOM     25  O   UNL     1       0.002  -0.004   0.002  0.00  0.00    -0.467 OA
ENDBRANCH  22  25
ENDBRANCH  21  22
BRANCH  21  26
ATOM     26  C   UNL     1      -0.555  -2.666  -1.256  0.00  0.00    +0.067 C 
BRANCH  26  27
ATOM     27  C   UNL     1      -0.505  -4.172  -1.204  0.00  0.00    -0.039 C 
ATOM     28  C   UNL     1      -1.383  -5.034  -1.765  0.00  0.00    -0.001 A 
ATOM     29  C   UNL     1      -2.601  -4.837  -2.559  0.00  0.00    +0.010 A 
ATOM     30  C   UNL     1      -3.286  -5.921  -2.990  0.00  0.00    +0.001 A 
ATOM     31  C   UNL     1      -2.862  -7.225  -2.698  0.00  0.00    +0.002 A 
ATOM     32  C   UNL     1      -1.753  -7.486  -1.974  0.00  0.00    +0.026 A 
ATOM     33  C   UNL     1      -0.956  -6.421  -1.470  0.00  0.00    +0.043 A 
ATOM     34  N   UNL     1       0.143  -6.416  -0.756  0.00  0.00    -0.380 N 
ATOM     35  C   UNL     1       0.542  -5.023  -0.521  0.00  0.00    +0.144 C 
ATOM     36  H   UNL     1       0.616  -7.201  -0.439  0.00  0.00    +0.160 HD
ENDBRANCH  26  27
ENDBRANCH  21  26
ENDBRANCH   1  21
TORSDOF 8
