REMARK  Name = ZINC11671092
REMARK  9 active torsions:
REMARK  status: ('A' for Active; 'I' for Inactive)
REMARK    1  A    between atoms: C_1  and  C_2
REMARK    2  A    between atoms: C_2  and  C_4
REMARK    3  A    between atoms: C_2  and  S_20
REMARK    4  A    between atoms: N_6  and  C_7
REMARK    5  A    between atoms: C_7  and  C_8
REMARK    6  A    between atoms: N_10  and  C_11
REMARK    7  A    between atoms: S_20  and  C_21
REMARK    8  A    between atoms: C_24  and  C_27
REMARK    9  A    between atoms: N_25  and  N_26
REMARK                            x       y       z     vdW  Elec       q    Type
REMARK                         _______ _______ _______ _____ _____    ______ ____
ROOT
ATOM      1  C   UNL     1       5.031   3.185   0.131  0.00  0.00    +0.227 C 
ATOM      2  O   UNL     1       5.558   2.157  -0.238  0.00  0.00    -0.275 OA
ATOM      3  N   UNL     1       5.782   4.184   0.635  0.00  0.00    -0.306 N 
ATOM      4  H   UNL     1       5.360   5.006   0.930  0.00  0.00    +0.149 HD
ENDROOT
BRANCH   1   6
ATOM      5  C   UNL     1       3.189   4.064  -1.277  0.00  0.00    +0.029 C 
ATOM      6  C   UNL     1       3.536   3.344   0.027  0.00  0.00    +0.137 C 
BRANCH   6   7
ATOM      7  S   UNL     1       2.753   1.712   0.042  0.00  0.00    -0.072 S 
BRANCH   7   8
ATOM      8  C   UNL     1       1.056   2.187   0.064  0.00  0.00    +0.209 A 
ATOM      9  N   UNL     1       0.591   3.416   0.068  0.00  0.00    -0.120 NA
ATOM     10  N   UNL     1      -0.694   3.403   0.086  0.00  0.00    -0.123 NA
ATOM     11  C   UNL     1      -1.130   2.162   0.089  0.00  0.00    +0.217 A 
ATOM     12  N   UNL     1      -0.021   1.345   0.081  0.00  0.00    -0.221 N 
BRANCH  11  13
ATOM     13  C   UNL     1      -2.536   1.729   0.102  0.00  0.00    +0.173 A 
ATOM     14  C   UNL     1      -3.611   2.510   0.401  0.00  0.00    +0.053 A 
ATOM     15  C   UNL     1      -4.751   1.692   0.288  0.00  0.00    +0.042 A 
ATOM     16  C   UNL     1      -4.322   0.463  -0.063  0.00  0.00    +0.196 A 
ATOM     17  O   UNL     1      -2.984   0.488  -0.174  0.00  0.00    -0.460 OA
ENDBRANCH  11  13
BRANCH  12  18
ATOM     18  N   UNL     1      -0.001  -0.021   0.082  0.00  0.00    -0.294 N 
ATOM     19  H   UNL     1       0.017  -0.381   1.025  0.00  0.00    +0.163 HD
ATOM     20  H   UNL     1      -0.784  -0.394  -0.432  0.00  0.00    +0.163 HD
ENDBRANCH  12  18
ENDBRANCH   7   8
ENDBRANCH   6   7
ENDBRANCH   1   6
BRANCH   3  21
ATOM     21  C   UNL     1       7.235   4.030   0.736  0.00  0.00    +0.200 C 
BRANCH  21  22
ATOM     22  C   UNL     1       7.833   5.280   1.327  0.00  0.00    +0.234 C 
ATOM     23  O   UNL     1       7.117   6.209   1.633  0.00  0.00    -0.274 OA
ATOM     24  N   UNL     1       9.165   5.366   1.514  0.00  0.00    -0.282 N 
ATOM     25  H   UNL     1       9.732   4.600   1.330  0.00  0.00    +0.155 HD
BRANCH  24  26
ATOM     26  C   UNL     1       9.732   6.562   1.976  0.00  0.00    +0.072 A 
ATOM     27  C   UNL     1       9.039   7.356   2.879  0.00  0.00    +0.029 A 
ATOM     28  C   UNL     1       9.600   8.533   3.337  0.00  0.00    +0.043 A 
ATOM     29  C   UNL     1      10.850   8.926   2.890  0.00  0.00    +0.161 A 
ATOM     30  C   UNL     1      11.544   8.138   1.984  0.00  0.00    +0.195 A 
ATOM     31  C   UNL     1      10.987   6.956   1.526  0.00  0.00    +0.182 A 
ATOM     32  F   UNL     1      11.662   6.187   0.644  0.00  0.00    -0.200 F 
ATOM     33  F   UNL     1      12.763   8.524   1.548  0.00  0.00    -0.199 F 
ATOM     34  F   UNL     1      11.394  10.079   3.336  0.00  0.00    -0.202 F 
ENDBRANCH  24  26
ENDBRANCH  21  22
ENDBRANCH   3  21
TORSDOF 8
