REMARK  Name = ZINC13013464
REMARK  11 active torsions:
REMARK  status: ('A' for Active; 'I' for Inactive)
REMARK    1  A    between atoms: C_1  and  C_2
REMARK    2  A    between atoms: C_2  and  C_3
REMARK    3  A    between atoms: C_10  and  C_12
REMARK    4  A    between atoms: N_14  and  N_15
REMARK    5  A    between atoms: C_16  and  C_17
REMARK    6  A    between atoms: C_16  and  C_18
REMARK    7  A    between atoms: C_21  and  S_24
REMARK    8  A    between atoms: S_24  and  N_27
REMARK    9  A    between atoms: N_27  and  C_28
REMARK   10  A    between atoms: C_28  and  C_30
REMARK   11  A    between atoms: C_28  and  C_31
REMARK                            x       y       z     vdW  Elec       q    Type
REMARK                         _______ _______ _______ _____ _____    ______ ____
ROOT
ATOM      1  N   UNL     1     -10.013   0.469  -2.046  0.00  0.00    -0.184 NA
ATOM      2  C   UNL     1     -11.184   0.074  -1.647  0.00  0.00    +0.063 C 
ATOM      3  C   UNL     1     -11.389  -0.353  -0.217  0.00  0.00    +0.068 C 
ENDROOT
BRANCH   2   4
ATOM      4  C   UNL     1     -12.313   0.043  -2.595  0.00  0.00    -0.002 A 
ATOM      5  C   UNL     1     -13.573  -0.387  -2.172  0.00  0.00    +0.011 A 
ATOM      6  C   UNL     1     -14.626  -0.409  -3.063  0.00  0.00    +0.029 A 
ATOM      7  C   UNL     1     -14.434  -0.016  -4.376  0.00  0.00    +0.105 A 
ATOM      8  C   UNL     1     -13.188   0.406  -4.803  0.00  0.00    +0.029 A 
ATOM      9  C   UNL     1     -12.127   0.438  -3.922  0.00  0.00    +0.011 A 
BRANCH   7  10
ATOM     10  S   UNL     1     -15.783  -0.054  -5.508  0.00  0.00    +0.059 S 
ATOM     11  O   UNL     1     -16.969   0.033  -4.730  0.00  0.00    -0.153 OA
ATOM     12  O   UNL     1     -15.477   0.878  -6.536  0.00  0.00    -0.153 OA
BRANCH  10  13
ATOM     13  N   UNL     1     -15.789  -1.552  -6.214  0.00  0.00    -0.176 NA
ATOM     14  H   UNL     1     -15.618  -1.641  -7.165  0.00  0.00    +0.149 HD
BRANCH  13  15
ATOM     15  C   UNL     1     -16.050  -2.743  -5.402  0.00  0.00    +0.186 C 
ATOM     16  C   UNL     1     -17.536  -3.101  -5.486  0.00  0.00    +0.038 C 
BRANCH  15  17
ATOM     17  C   UNL     1     -15.227  -3.894  -5.919  0.00  0.00    +0.374 C 
ATOM     18  O   UNL     1     -14.496  -3.736  -6.868  0.00  0.00    -0.245 OA
ATOM     19  O   UNL     1     -15.305  -5.096  -5.326  0.00  0.00    -0.245 OA
ENDBRANCH  15  17
ENDBRANCH  13  15
ENDBRANCH  10  13
ENDBRANCH   7  10
ENDBRANCH   2   4
BRANCH   1  22
ATOM     20  C   UNL     1      -7.725   0.908  -1.558  0.00  0.00    +0.270 C 
ATOM     21  O   UNL     1      -7.559   1.253  -2.714  0.00  0.00    -0.268 OA
ATOM     22  N   UNL     1      -8.941   0.498  -1.145  0.00  0.00    -0.202 N 
ATOM     23  H   UNL     1      -9.072   0.223  -0.224  0.00  0.00    +0.178 HD
BRANCH  20  30
ATOM     24  C   UNL     1      -2.164   1.050   1.278  0.00  0.00    -0.007 C 
ATOM     25  C   UNL     1      -2.836   1.429   2.600  0.00  0.00    +0.009 C 
ATOM     26  C   UNL     1      -4.166   0.670   2.714  0.00  0.00    +0.043 C 
ATOM     27  C   UNL     1      -4.909   0.823   1.423  0.00  0.00    -0.006 A 
ATOM     28  C   UNL     1      -4.407   1.261   0.231  0.00  0.00    -0.036 A 
ATOM     29  C   UNL     1      -5.292   1.321  -0.834  0.00  0.00    +0.024 A 
ATOM     30  C   UNL     1      -6.603   0.939  -0.617  0.00  0.00    +0.076 A 
ATOM     31  S   UNL     1      -6.571   0.493   1.111  0.00  0.00    -0.088 S 
ATOM     32  C   UNL     1      -2.938   1.656   0.107  0.00  0.00    +0.039 C 
BRANCH  24  34
ATOM     33  C   UNL     1      -0.013   1.086   0.008  0.00  0.00    +0.004 C 
ATOM     34  C   UNL     1      -0.729   1.579   1.267  0.00  0.00    +0.000 C 
ENDBRANCH  24  34
ENDBRANCH  20  30
ENDBRANCH   1  22
TORSDOF 8
