REMARK  Name = ZINC40980566
REMARK  15 active torsions:
REMARK  status: ('A' for Active; 'I' for Inactive)
REMARK    1  A    between atoms: C_1  and  C_2
REMARK    2  A    between atoms: C_2  and  C_3
REMARK    3  A    between atoms: C_3  and  O_4
REMARK    4  A    between atoms: O_4  and  C_5
REMARK    5  A    between atoms: C_5  and  C_7
REMARK    6  A    between atoms: C_8  and  C_32
REMARK    7  A    between atoms: C_12  and  S_28
REMARK    8  A    between atoms: C_15  and  C_17
REMARK    9  A    between atoms: C_19  and  O_26
REMARK   10  A    between atoms: C_20  and  O_24
REMARK   11  A    between atoms: O_24  and  C_25
REMARK   12  A    between atoms: O_26  and  C_27
REMARK   13  A    between atoms: S_28  and  C_29
REMARK   14  A    between atoms: C_29  and  C_30
REMARK   15  A    between atoms: C_30  and  C_31
REMARK                            x       y       z     vdW  Elec       q    Type
REMARK                         _______ _______ _______ _____ _____    ______ ____
ROOT
ATOM      1  C   UNL     1      -2.694  -4.015  -0.201  0.00  0.00    +0.082 C 
ATOM      2  C   UNL     1      -3.862  -4.597   0.112  0.00  0.00    +0.020 C 
ATOM      3  N   UNL     1      -3.973  -5.950   0.312  0.00  0.00    -0.287 N 
ATOM      4  C   UNL     1      -2.901  -6.744  -0.071  0.00  0.00    +0.219 A 
ATOM      5  N   UNL     1      -2.820  -8.040  -0.201  0.00  0.00    -0.187 NA
ATOM      6  C   UNL     1      -1.584  -8.374  -0.601  0.00  0.00    +0.210 A 
ATOM      7  N   UNL     1      -0.865  -7.280  -0.728  0.00  0.00    -0.141 NA
ATOM      8  N   UNL     1      -1.695  -6.213  -0.387  0.00  0.00    -0.220 N 
ATOM      9  C   UNL     1      -1.407  -4.782  -0.352  0.00  0.00    +0.179 C 
ATOM     10  C   UNL     1      -5.092  -3.737   0.247  0.00  0.00    +0.061 C 
ATOM     11  H   UNL     1      -4.771  -6.337   0.707  0.00  0.00    +0.155 HD
ENDROOT
BRANCH   9  12
ATOM     12  C   UNL     1      -0.504  -4.485   0.818  0.00  0.00    -0.014 A 
ATOM     13  C   UNL     1       0.736  -3.913   0.603  0.00  0.00    +0.055 A 
ATOM     14  C   UNL     1       1.568  -3.639   1.677  0.00  0.00    +0.163 A 
ATOM     15  C   UNL     1       1.152  -3.939   2.970  0.00  0.00    +0.175 A 
ATOM     16  C   UNL     1      -0.093  -4.512   3.179  0.00  0.00    +0.063 A 
ATOM     17  C   UNL     1      -0.920  -4.779   2.102  0.00  0.00    +0.025 A 
ATOM     18 BR   UNL     1      -0.663  -4.922   4.934  0.00  0.00    -0.046 Br
BRANCH  15  19
ATOM     19  O   UNL     1       1.965  -3.672   4.027  0.00  0.00    -0.490 OA
ATOM     20  C   UNL     1       1.837  -2.385   4.635  0.00  0.00    +0.277 C 
ENDBRANCH  15  19
BRANCH  14  21
ATOM     21  O   UNL     1       2.789  -3.077   1.467  0.00  0.00    -0.491 OA
ATOM     22  C   UNL     1       3.150  -2.796   0.113  0.00  0.00    +0.277 C 
ENDBRANCH  14  21
ENDBRANCH   9  12
BRANCH   1  23
ATOM     23  C   UNL     1      -2.671  -2.617  -0.402  0.00  0.00    +0.339 C 
ATOM     24  O   UNL     1      -2.697  -2.164  -1.532  0.00  0.00    -0.245 OA
BRANCH  23  25
ATOM     25  O   UNL     1      -2.621  -1.782   0.657  0.00  0.00    -0.461 OA
BRANCH  25  26
ATOM     26  C   UNL     1      -2.601  -0.381   0.380  0.00  0.00    +0.232 C 
BRANCH  26  28
ATOM     27  C   UNL     1      -2.522   1.900   1.397  0.00  0.00    +0.007 C 
ATOM     28  C   UNL     1      -2.544   0.399   1.695  0.00  0.00    +0.038 C 
ENDBRANCH  26  28
ENDBRANCH  25  26
ENDBRANCH  23  25
ENDBRANCH   1  23
BRANCH   6  29
ATOM     29  S   UNL     1      -1.015 -10.013  -0.907  0.00  0.00    -0.084 S 
BRANCH  29  30
ATOM     30  C   UNL     1      -2.460 -11.052  -0.556  0.00  0.00    +0.077 C 
BRANCH  30  31
ATOM     31  C   UNL     1      -2.100 -12.521  -0.785  0.00  0.00    +0.008 C 
ATOM     32  C   UNL     1      -3.319 -13.397  -0.489  0.00  0.00    +0.004 C 
ENDBRANCH  30  31
ENDBRANCH  29  30
ENDBRANCH   6  29
TORSDOF 10
