REMARK  Name = ZINC21539220
REMARK  8 active torsions:
REMARK  status: ('A' for Active; 'I' for Inactive)
REMARK    1  A    between atoms: C_1  and  C_2
REMARK    2  A    between atoms: C_2  and  O_3
REMARK    3  A    between atoms: O_3  and  C_4
REMARK    4  A    between atoms: C_7  and  C_10
REMARK    5  A    between atoms: N_30  and  C_31
REMARK    6  A    between atoms: C_33  and  C_39
REMARK    7  A    between atoms: C_36  and  O_37
REMARK    8  A    between atoms: O_37  and  C_38
REMARK                            x       y       z     vdW  Elec       q    Type
REMARK                         _______ _______ _______ _____ _____    ______ ____
ROOT
ATOM      1  C   UNL     1       3.680   0.618   0.100  0.00  0.00    +0.155 C 
ATOM      2  C   UNL     1       2.181   0.655   0.086  0.00  0.00    +0.049 A 
ATOM      3  C   UNL     1       1.355   1.712   0.080  0.00  0.00    +0.025 A 
ATOM      4  C   UNL     1       0.034   1.218   0.139  0.00  0.00    +0.020 A 
ATOM      5  C   UNL     1       0.105  -0.133   0.166  0.00  0.00    +0.092 A 
ATOM      6  N   UNL     1       1.411  -0.484   0.107  0.00  0.00    -0.312 N 
ATOM      7  C   UNL     1       2.027  -1.727   0.029  0.00  0.00    +0.090 A 
ATOM      8  C   UNL     1       3.032  -2.027  -0.837  0.00  0.00    +0.005 A 
ATOM      9  C   UNL     1       3.574  -3.326  -0.755  0.00  0.00    -0.030 A 
ATOM     10  C   UNL     1       3.026  -4.184   0.145  0.00  0.00    -0.005 A 
ATOM     11  S   UNL     1       1.760  -3.221   0.933  0.00  0.00    -0.075 S 
ATOM     12  C   UNL     1       3.413  -5.603   0.407  0.00  0.00    +0.043 C 
ATOM     13  C   UNL     1       4.310  -6.080  -0.745  0.00  0.00    +0.005 C 
ATOM     14  C   UNL     1       5.378  -5.014  -1.008  0.00  0.00    +0.005 C 
ATOM     15  C   UNL     1       4.738  -3.775  -1.635  0.00  0.00    +0.036 C 
ATOM     16  C   UNL     1       3.515  -0.993  -1.829  0.00  0.00    +0.148 C 
ATOM     17  N   UNL     1       4.230   0.125  -1.185  0.00  0.00    -0.268 N 
ATOM     18  C   UNL     1       5.331   0.671  -1.739  0.00  0.00    +0.308 C 
ATOM     19  O   UNL     1       5.898   1.591  -1.182  0.00  0.00    -0.252 OA
ATOM     20  N   UNL     1       5.803   0.197  -2.908  0.00  0.00    -0.266 N 
ATOM     21  H   UNL     1       5.239  -0.570  -3.459  0.00  0.00    +0.156 HD
ENDROOT
BRANCH  20  22
ATOM     22  C   UNL     1       7.014   0.681  -3.423  0.00  0.00    +0.077 A 
ATOM     23  C   UNL     1       8.041   1.042  -2.563  0.00  0.00    +0.030 A 
ATOM     24  C   UNL     1       9.233   1.518  -3.073  0.00  0.00    -0.048 A 
ATOM     25  C   UNL     1       9.407   1.637  -4.440  0.00  0.00    +0.007 A 
ATOM     26  C   UNL     1       8.388   1.279  -5.303  0.00  0.00    +0.048 A 
ATOM     27  C   UNL     1       7.191   0.795  -4.800  0.00  0.00    +0.141 A 
ATOM     28  C   UNL     1      10.348   1.910  -2.137  0.00  0.00    +0.044 C 
BRANCH  27  29
ATOM     29  O   UNL     1       6.190   0.438  -5.648  0.00  0.00    -0.493 OA
ATOM     30  C   UNL     1       6.443   0.582  -7.047  0.00  0.00    +0.277 C 
ENDBRANCH  27  29
ENDBRANCH  20  22
BRANCH   1  34
ATOM     31  C   UNL     1       4.978  -1.959   3.252  0.00  0.00    +0.121 A 
ATOM     32  C   UNL     1       5.747  -1.823   2.105  0.00  0.00    +0.046 A 
ATOM     33  C   UNL     1       5.325  -0.989   1.087  0.00  0.00    +0.009 A 
ATOM     34  C   UNL     1       4.138  -0.291   1.211  0.00  0.00    -0.021 A 
ATOM     35  C   UNL     1       3.373  -0.421   2.356  0.00  0.00    +0.009 A 
ATOM     36  C   UNL     1       3.788  -1.258   3.374  0.00  0.00    +0.046 A 
BRANCH  31  37
ATOM     37  O   UNL     1       5.391  -2.779   4.254  0.00  0.00    -0.492 OA
BRANCH  37  39
ATOM     38  C   UNL     1       5.174  -3.833   6.418  0.00  0.00    +0.048 C 
ATOM     39  C   UNL     1       4.550  -2.871   5.405  0.00  0.00    +0.225 C 
ENDBRANCH  37  39
ENDBRANCH  31  37
ENDBRANCH   1  34
TORSDOF 5
