REMARK  Name = ZINC31045924
REMARK  6 active torsions:
REMARK  status: ('A' for Active; 'I' for Inactive)
REMARK    1  A    between atoms: C_6  and  C_7
REMARK    2  A    between atoms: C_9  and  C_12
REMARK    3  A    between atoms: C_12  and  N_13
REMARK    4  A    between atoms: C_17  and  C_20
REMARK    5  A    between atoms: N_22  and  C_23
REMARK    6  A    between atoms: C_26  and  C_29
REMARK                            x       y       z     vdW  Elec       q    Type
REMARK                         _______ _______ _______ _____ _____    ______ ____
ROOT
ATOM      1  N   UNL     1       5.982   5.519   1.362  0.00  0.00    +0.386 N 
ATOM      2  C   UNL     1       4.710   5.769   2.053  0.00  0.00    -0.078 C 
ATOM      3  C   UNL     1       4.980   6.076   3.527  0.00  0.00    -0.018 C 
ATOM      4  C   UNL     1       5.887   7.305   3.630  0.00  0.00    +0.009 C 
ATOM      5  C   UNL     1       7.185   7.038   2.862  0.00  0.00    +0.059 C 
ATOM      6  C   UNL     1       6.851   6.703   1.406  0.00  0.00    -0.065 C 
ATOM      7  H   UNL     1       6.497   4.705   1.892  0.00  0.00    -0.081 HD
ENDROOT
BRANCH   5   8
ATOM      8  C   UNL     1       8.059   8.265   2.908  0.00  0.00    +0.218 C 
ATOM      9  O   UNL     1       8.383   8.817   1.878  0.00  0.00    -0.275 OA
ATOM     10  N   UNL     1       8.480   8.748   4.093  0.00  0.00    -0.285 N 
ATOM     11  H   UNL     1       8.125   8.293   5.030  0.00  0.00    +0.155 HD
BRANCH  10  12
ATOM     12  C   UNL     1       9.369   9.828   4.132  0.00  0.00    +0.033 A 
ATOM     13  C   UNL     1      10.335   9.898   5.127  0.00  0.00    +0.023 A 
ATOM     14  C   UNL     1      11.214  10.963   5.160  0.00  0.00    +0.006 A 
ATOM     15  C   UNL     1      11.126  11.964   4.210  0.00  0.00    -0.041 A 
ATOM     16  C   UNL     1      10.162  11.899   3.221  0.00  0.00    +0.006 A 
ATOM     17  C   UNL     1       9.283  10.835   3.180  0.00  0.00    +0.023 A 
BRANCH  15  18
ATOM     18  C   UNL     1      12.083  13.127   4.253  0.00  0.00    -0.003 C 
ATOM     19  C   UNL     1      11.296  14.429   4.417  0.00  0.00    +0.015 C 
ATOM     20  C   UNL     1      12.268  15.610   4.460  0.00  0.00    -0.010 C 
ATOM     21  C   UNL     1      13.225  15.440   5.641  0.00  0.00    +0.007 C 
ATOM     22  C   UNL     1      14.012  14.138   5.477  0.00  0.00    -0.010 C 
ATOM     23  C   UNL     1      13.040  12.957   5.434  0.00  0.00    +0.015 C 
ATOM     24  C   UNL     1      14.813  14.188   4.175  0.00  0.00    +0.007 C 
ATOM     25  C   UNL     1      13.856  14.358   2.993  0.00  0.00    -0.010 C 
ATOM     26  C   UNL     1      13.069  15.659   3.158  0.00  0.00    +0.007 C 
ATOM     27  C   UNL     1      12.884  13.177   2.950  0.00  0.00    +0.015 C 
ENDBRANCH  15  18
ENDBRANCH  10  12
ENDBRANCH   5   8
BRANCH   1  28
ATOM     28  C   UNL     1       5.753   5.086  -0.023  0.00  0.00    +0.022 C 
BRANCH  28  31
ATOM     29  C   UNL     1       3.635   2.182  -0.018  0.00  0.00    +0.202 A 
ATOM     30  N   UNL     1       3.779   3.526  -0.016  0.00  0.00    -0.193 NA
ATOM     31  C   UNL     1       5.071   3.742  -0.022  0.00  0.00    +0.211 A 
ATOM     32  O   UNL     1       5.669   2.547  -0.027  0.00  0.00    -0.340 OA
ATOM     33  N   UNL     1       4.837   1.665  -0.020  0.00  0.00    -0.056 NA
BRANCH  29  39
ATOM     34  C   UNL     1       1.143   2.120  -0.004  0.00  0.00    +0.013 A 
ATOM     35  C   UNL     1      -0.046   1.418   0.002  0.00  0.00    +0.021 A 
ATOM     36  C   UNL     1      -0.035   0.034  -0.002  0.00  0.00    +0.041 A 
ATOM     37  C   UNL     1       1.166  -0.654  -0.010  0.00  0.00    +0.021 A 
ATOM     38  C   UNL     1       2.360   0.039  -0.015  0.00  0.00    +0.013 A 
ATOM     39  C   UNL     1       2.354   1.432  -0.013  0.00  0.00    +0.023 A 
ATOM     40 CL   UNL     1      -1.534  -0.843   0.005  0.00  0.00    -0.084 Cl
ENDBRANCH  29  39
ENDBRANCH  28  31
ENDBRANCH   1  28
TORSDOF 6
