REMARK  Name = ZINC40322870
REMARK  8 active torsions:
REMARK  status: ('A' for Active; 'I' for Inactive)
REMARK    1  A    between atoms: C_1  and  C_2
REMARK    2  A    between atoms: C_5  and  S_8
REMARK    3  A    between atoms: S_8  and  C_11
REMARK    4  A    between atoms: C_14  and  C_16
REMARK    5  A    between atoms: N_18  and  C_19
REMARK    6  A    between atoms: C_19  and  C_20
REMARK    7  A    between atoms: C_20  and  C_22
REMARK    8  A    between atoms: C_20  and  N_27
REMARK                            x       y       z     vdW  Elec       q    Type
REMARK                         _______ _______ _______ _____ _____    ______ ____
ROOT
ATOM      1  C   UNL     1       4.516  -5.272  -1.823  0.00  0.00    +0.279 C 
ATOM      2  O   UNL     1       5.516  -5.593  -1.207  0.00  0.00    -0.267 OA
ATOM      3  N   UNL     1       4.472  -5.422  -3.162  0.00  0.00    -0.310 N 
ATOM      4  H   UNL     1       3.675  -5.167  -3.652  0.00  0.00    +0.149 HD
ENDROOT
BRANCH   1   8
ATOM      5  C   UNL     1       1.372  -3.883  -0.710  0.00  0.00    +0.246 A 
ATOM      6  C   UNL     1       1.998  -3.983   0.484  0.00  0.00    +0.070 A 
ATOM      7  C   UNL     1       3.271  -4.520   0.239  0.00  0.00    +0.056 A 
ATOM      8  C   UNL     1       3.359  -4.723  -1.108  0.00  0.00    +0.192 A 
ATOM      9  O   UNL     1       2.194  -4.335  -1.666  0.00  0.00    -0.433 OA
BRANCH   5  10
ATOM     10  S   UNL     1      -0.259  -3.267  -0.965  0.00  0.00    +0.058 S 
ATOM     11  O   UNL     1      -0.951  -3.429   0.265  0.00  0.00    -0.161 OA
ATOM     12  O   UNL     1      -0.723  -3.837  -2.181  0.00  0.00    -0.161 OA
BRANCH  10  17
ATOM     13  C   UNL     1       0.203   2.674  -1.915  0.00  0.00    +0.044 C 
ATOM     14  C   UNL     1       0.088   1.190  -1.678  0.00  0.00    -0.050 A 
ATOM     15  C   UNL     1       0.146   0.313  -2.745  0.00  0.00    +0.005 A 
ATOM     16  C   UNL     1       0.041  -1.048  -2.527  0.00  0.00    +0.028 A 
ATOM     17  C   UNL     1      -0.123  -1.532  -1.243  0.00  0.00    +0.097 A 
ATOM     18  C   UNL     1      -0.180  -0.655  -0.176  0.00  0.00    +0.028 A 
ATOM     19  C   UNL     1      -0.070   0.706  -0.393  0.00  0.00    +0.005 A 
ENDBRANCH  10  17
ENDBRANCH   5  10
ENDBRANCH   1   8
BRANCH   3  20
ATOM     20  C   UNL     1       5.628  -5.970  -3.876  0.00  0.00    +0.094 C 
BRANCH  20  21
ATOM     21  C   UNL     1       5.274  -6.156  -5.353  0.00  0.00    -0.013 C 
BRANCH  21  22
ATOM     22  N   UNL     1       4.053  -6.966  -5.465  0.00  0.00    +0.386 N 
ATOM     23  C   UNL     1       4.309  -8.293  -4.873  0.00  0.00    -0.078 C 
ATOM     24  C   UNL     1       2.990  -8.879  -4.437  0.00  0.00    -0.019 C 
ATOM     25  C   UNL     1       2.411  -9.823  -5.508  0.00  0.00    -0.002 C 
ATOM     26  C   UNL     1       2.606  -9.261  -6.930  0.00  0.00    -0.002 C 
ATOM     27  C   UNL     1       2.345  -7.778  -7.003  0.00  0.00    -0.019 C 
ATOM     28  C   UNL     1       3.676  -7.022  -6.808  0.00  0.00    -0.078 C 
ATOM     29  H   UNL     1       3.318  -6.516  -4.941  0.00  0.00    -0.081 HD
ENDBRANCH  21  22
BRANCH  21  30
ATOM     30  C   UNL     1       5.043  -4.809  -5.987  0.00  0.00    -0.022 A 
ATOM     31  C   UNL     1       5.881  -4.075  -6.760  0.00  0.00    +0.009 A 
ATOM     32  C   UNL     1       5.452  -2.852  -7.239  0.00  0.00    +0.008 A 
ATOM     33  C   UNL     1       4.205  -2.423  -6.923  0.00  0.00    +0.045 A 
ATOM     34  S   UNL     1       3.593  -3.770  -5.924  0.00  0.00    -0.103 S 
ENDBRANCH  21  30
ENDBRANCH  20  21
ENDBRANCH   3  20
TORSDOF 7
