REMARK  Name = ZINC59225485
REMARK  4 active torsions:
REMARK  status: ('A' for Active; 'I' for Inactive)
REMARK    1  A    between atoms: C_5  and  N_7
REMARK    2  A    between atoms: C_8  and  S_17
REMARK    3  A    between atoms: N_9  and  C_10
REMARK    4  A    between atoms: S_17  and  C_18
REMARK                            x       y       z     vdW  Elec       q    Type
REMARK                         _______ _______ _______ _____ _____    ______ ____
ROOT
ATOM      1  N   UNL     1       0.943  -3.038  -0.450  0.00  0.00    -0.293 N 
ATOM      2  C   UNL     1       0.014  -2.771   0.528  0.00  0.00    +0.159 C 
ATOM      3  N   UNL     1       0.191  -3.233   1.746  0.00  0.00    -0.225 NA
ATOM      4  H   UNL     1       0.772  -3.734  -1.103  0.00  0.00    +0.154 HD
ENDROOT
BRANCH   1   9
ATOM      5  C   UNL     1       3.292  -0.210  -0.365  0.00  0.00    +0.002 A 
ATOM      6  C   UNL     1       4.490  -0.857  -0.606  0.00  0.00    +0.002 A 
ATOM      7  C   UNL     1       4.514  -2.227  -0.795  0.00  0.00    +0.022 A 
ATOM      8  C   UNL     1       3.340  -2.954  -0.744  0.00  0.00    +0.062 A 
ATOM      9  C   UNL     1       2.134  -2.306  -0.502  0.00  0.00    +0.051 A 
ATOM     10  C   UNL     1       2.114  -0.930  -0.312  0.00  0.00    +0.025 A 
ATOM     11 CL   UNL     1       3.370  -4.673  -0.982  0.00  0.00    -0.082 Cl
ENDBRANCH   1   9
BRANCH   3  12
ATOM     12  C   UNL     1      -0.822  -3.149   2.663  0.00  0.00    +0.085 A 
ATOM     13  C   UNL     1      -1.414  -1.916   2.945  0.00  0.00    +0.029 A 
ATOM     14  C   UNL     1      -2.434  -1.839   3.870  0.00  0.00    +0.002 A 
ATOM     15  C   UNL     1      -2.872  -2.980   4.519  0.00  0.00    +0.002 A 
ATOM     16  C   UNL     1      -2.291  -4.205   4.246  0.00  0.00    +0.022 A 
ATOM     17  C   UNL     1      -1.273  -4.298   3.318  0.00  0.00    +0.066 A 
ATOM     18 CL   UNL     1      -0.549  -5.838   2.971  0.00  0.00    -0.081 Cl
ENDBRANCH   3  12
BRANCH   2  19
ATOM     19  S   UNL     1      -1.413  -1.810   0.149  0.00  0.00    -0.083 S 
BRANCH  19  20
ATOM     20  C   UNL     1      -0.798  -0.103   0.122  0.00  0.00    +0.076 C 
ATOM     21  C   UNL     1      -1.983   0.864   0.163  0.00  0.00    +0.019 C 
ATOM     22  C   UNL     1      -1.446   2.280   0.401  0.00  0.00    +0.005 C 
ATOM     23  C   UNL     1      -0.859   2.345   1.813  0.00  0.00    +0.027 C 
ATOM     24  C   UNL     1       0.071   1.190   2.039  0.00  0.00    -0.030 C 
ATOM     25  C   UNL     1       0.092   0.124   1.308  0.00  0.00    -0.017 C 
ENDBRANCH  19  20
ENDBRANCH   2  19
TORSDOF 4
