REMARK  Name = ZINC00663791
REMARK  7 active torsions:
REMARK  status: ('A' for Active; 'I' for Inactive)
REMARK    1  A    between atoms: C_1  and  C_2
REMARK    2  A    between atoms: C_5  and  S_8
REMARK    3  A    between atoms: S_8  and  C_9
REMARK    4  A    between atoms: C_9  and  C_10
REMARK    5  A    between atoms: C_17  and  N_30
REMARK    6  A    between atoms: C_18  and  C_28
REMARK    7  A    between atoms: C_19  and  C_21
REMARK                            x       y       z     vdW  Elec       q    Type
REMARK                         _______ _______ _______ _____ _____    ______ ____
ROOT
ATOM      1  C   UNL     1       0.112  -6.623   1.821  0.00  0.00    +0.054 A 
ATOM      2  C   UNL     1      -0.994  -7.356   2.020  0.00  0.00    +0.046 A 
ATOM      3  C   UNL     1      -0.610  -8.711   2.123  0.00  0.00    +0.244 A 
ATOM      4  N   UNL     1       0.682  -8.774   1.988  0.00  0.00    -0.135 NA
ATOM      5  N   UNL     1       1.166  -7.471   1.791  0.00  0.00    -0.277 N 
ATOM      6  H   UNL     1       2.094  -7.222   1.659  0.00  0.00    +0.189 HD
ATOM      7  O   UNL     1      -1.517  -9.704   2.331  0.00  0.00    -0.422 OA
ATOM      8  C   UNL     1      -2.759  -9.341   2.706  0.00  0.00    +0.200 C 
ATOM      9  C   UNL     1      -3.241  -8.082   2.641  0.00  0.00    +0.094 C 
ATOM     10  C   UNL     1      -2.432  -6.917   2.129  0.00  0.00    +0.078 C 
ENDROOT
BRANCH  10  11
ATOM     11  C   UNL     1      -2.950  -6.496   0.752  0.00  0.00    +0.024 C 
ATOM     12  C   UNL     1      -4.345  -5.886   0.899  0.00  0.00    +0.009 C 
ATOM     13  C   UNL     1      -4.949  -5.713  -0.501  0.00  0.00    +0.005 C 
ATOM     14  C   UNL     1      -5.206  -7.100  -1.093  0.00  0.00    +0.027 C 
ATOM     15  C   UNL     1      -3.981  -7.957  -0.953  0.00  0.00    -0.031 C 
ATOM     16  C   UNL     1      -3.005  -7.697  -0.147  0.00  0.00    -0.027 C 
ENDBRANCH  10  11
BRANCH   8  17
ATOM     17  N   UNL     1      -3.593 -10.319   3.187  0.00  0.00    -0.328 N 
ATOM     18  H   UNL     1      -3.280 -11.236   3.248  0.00  0.00    +0.145 HD
ATOM     19  H   UNL     1      -4.494 -10.095   3.466  0.00  0.00    +0.145 HD
ENDBRANCH   8  17
BRANCH   9  20
ATOM     20  C   UNL     1      -4.583  -7.841   3.079  0.00  0.00    +0.100 C 
ATOM     21  N   UNL     1      -5.648  -7.650   3.426  0.00  0.00    -0.191 NA
ENDBRANCH   9  20
BRANCH   1  22
ATOM     22  C   UNL     1       0.169  -5.126   1.656  0.00  0.00    +0.129 C 
BRANCH  22  23
ATOM     23  S   UNL     1       0.169  -4.713  -0.111  0.00  0.00    -0.119 S 
BRANCH  23  28
ATOM     24  C   UNL     1       0.404   1.318  -0.200  0.00  0.00    +0.044 C 
ATOM     25  C   UNL     1       0.345  -0.188  -0.177  0.00  0.00    -0.050 A 
ATOM     26  C   UNL     1       0.307  -0.894  -1.366  0.00  0.00    +0.004 A 
ATOM     27  C   UNL     1       0.254  -2.274  -1.349  0.00  0.00    +0.015 A 
ATOM     28  C   UNL     1       0.238  -2.953  -0.137  0.00  0.00    +0.008 A 
ATOM     29  C   UNL     1       0.277  -2.240   1.056  0.00  0.00    +0.015 A 
ATOM     30  C   UNL     1       0.336  -0.860   1.031  0.00  0.00    +0.004 A 
ENDBRANCH  23  28
ENDBRANCH  22  23
ENDBRANCH   1  22
TORSDOF 6
