REMARK  Name = ZINC39599873
REMARK  11 active torsions:
REMARK  status: ('A' for Active; 'I' for Inactive)
REMARK    1  A    between atoms: C_1  and  C_2
REMARK    2  A    between atoms: C_2  and  C_3
REMARK    3  A    between atoms: C_3  and  C_4
REMARK    4  A    between atoms: C_4  and  C_5
REMARK    5  A    between atoms: C_5  and  C_7
REMARK    6  A    between atoms: C_5  and  C_8
REMARK    7  A    between atoms: C_12  and  C_21
REMARK    8  A    between atoms: N_23  and  C_24
REMARK    9  A    between atoms: C_24  and  C_25
REMARK   10  A    between atoms: C_28  and  O_31
REMARK   11  A    between atoms: O_31  and  C_32
REMARK                            x       y       z     vdW  Elec       q    Type
REMARK                         _______ _______ _______ _____ _____    ______ ____
ROOT
ATOM      1  C   UNL     1       1.551  -4.182  -2.453  0.00  0.00    +0.218 C 
ATOM      2  O   UNL     1       1.171  -4.816  -1.491  0.00  0.00    -0.275 OA
ATOM      3  N   UNL     1       2.189  -4.806  -3.463  0.00  0.00    -0.300 N 
ATOM      4  C   UNL     1       2.728  -4.205  -4.705  0.00  0.00    +0.121 C 
ATOM      5  C   UNL     1       4.066  -4.938  -4.945  0.00  0.00    +0.100 C 
ATOM      6  C   UNL     1       3.917  -6.279  -4.207  0.00  0.00    -0.004 C 
ATOM      7  C   UNL     1       2.516  -6.247  -3.578  0.00  0.00    +0.115 C 
ATOM      8  C   UNL     1       4.029  -7.440  -5.191  0.00  0.00    -0.010 C 
ATOM      9  C   UNL     1       3.935  -8.762  -4.425  0.00  0.00    -0.082 C 
ATOM     10  N   UNL     1       5.013  -8.832  -3.430  0.00  0.00    +0.379 N 
ATOM     11  C   UNL     1       4.844  -7.767  -2.434  0.00  0.00    -0.082 C 
ATOM     12  C   UNL     1       4.976  -6.402  -3.116  0.00  0.00    -0.010 C 
ATOM     13  H   UNL     1       4.986  -9.729  -2.970  0.00  0.00    -0.086 HD
ATOM     14  H   UNL     1       5.903  -8.720  -3.892  0.00  0.00    -0.086 HD
ENDROOT
BRANCH   5  15
ATOM     15  C   UNL     1       4.281  -5.169  -6.419  0.00  0.00    +0.218 C 
ATOM     16  O   UNL     1       3.329  -5.326  -7.153  0.00  0.00    -0.275 OA
ATOM     17  N   UNL     1       5.532  -5.201  -6.920  0.00  0.00    -0.311 N 
ATOM     18  H   UNL     1       6.293  -5.076  -6.333  0.00  0.00    +0.149 HD
BRANCH  17  19
ATOM     19  C   UNL     1       5.741  -5.426  -8.353  0.00  0.00    +0.139 C 
BRANCH  19  20
ATOM     20  C   UNL     1       7.218  -5.416  -8.653  0.00  0.00    -0.030 A 
ATOM     21  C   UNL     1       7.848  -4.229  -8.977  0.00  0.00    +0.009 A 
ATOM     22  C   UNL     1       9.202  -4.217  -9.252  0.00  0.00    +0.046 A 
ATOM     23  C   UNL     1       9.928  -5.398  -9.204  0.00  0.00    +0.130 A 
ATOM     24  C   UNL     1       9.293  -6.588  -8.878  0.00  0.00    +0.046 A 
ATOM     25  C   UNL     1       7.941  -6.593  -8.598  0.00  0.00    +0.009 A 
BRANCH  23  26
ATOM     26  O   UNL     1      11.260  -5.389  -9.475  0.00  0.00    -0.406 OA
BRANCH  26  27
ATOM     27  C   UNL     1      11.944  -6.642  -9.405  0.00  0.00    +0.575 C 
ATOM     28  F   UNL     1      11.380  -7.533 -10.324  0.00  0.00    -0.133 F 
ATOM     29  F   UNL     1      13.296  -6.452  -9.711  0.00  0.00    -0.133 F 
ATOM     30  F   UNL     1      11.827  -7.167  -8.114  0.00  0.00    -0.133 F 
ENDBRANCH  26  27
ENDBRANCH  23  26
ENDBRANCH  19  20
ENDBRANCH  17  19
ENDBRANCH   5  15
BRANCH   1  31
ATOM     31  C   UNL     1       1.309  -2.696  -2.518  0.00  0.00    +0.072 C 
ATOM     32  C   UNL     1       0.460  -2.371  -3.748  0.00  0.00    +0.017 C 
BRANCH  31  33
ATOM     33  C   UNL     1       0.572  -2.243  -1.256  0.00  0.00    +0.012 C 
BRANCH  33  34
ATOM     34  C   UNL     1       0.437  -0.719  -1.263  0.00  0.00    +0.000 C 
BRANCH  34  36
ATOM     35  C   UNL     1      -0.436   1.258  -0.008  0.00  0.00    +0.004 C 
ATOM     36  C   UNL     1      -0.300  -0.266  -0.001  0.00  0.00    -0.003 C 
ENDBRANCH  34  36
ENDBRANCH  33  34
ENDBRANCH  31  33
ENDBRANCH   1  31
TORSDOF 9
