REMARK  Name = ZINC09894626
REMARK  6 active torsions:
REMARK  status: ('A' for Active; 'I' for Inactive)
REMARK    1  A    between atoms: C_10  and  C_11
REMARK    2  A    between atoms: C_11  and  C_12
REMARK    3  A    between atoms: N_14  and  N_15
REMARK    4  A    between atoms: C_16  and  C_18
REMARK    5  A    between atoms: N_23  and  S_25
REMARK    6  A    between atoms: S_25  and  C_28
REMARK                            x       y       z     vdW  Elec       q    Type
REMARK                         _______ _______ _______ _____ _____    ______ ____
ROOT
ATOM      1  N   UNL     1      -3.518   6.885   3.049  0.00  0.00    -0.234 N 
ATOM      2  C   UNL     1      -4.679   7.518   3.309  0.00  0.00    +0.233 C 
ATOM      3  O   UNL     1      -5.334   7.981   2.399  0.00  0.00    -0.274 OA
ATOM      4  H   UNL     1      -2.994   6.514   3.776  0.00  0.00    +0.173 HD
ENDROOT
BRANCH   2   5
ATOM      5  C   UNL     1      -5.164   7.650   4.730  0.00  0.00    +0.092 C 
ATOM      6  C   UNL     1      -4.131   8.426   5.551  0.00  0.00    +0.015 C 
ATOM      7  C   UNL     1      -4.607   8.532   7.002  0.00  0.00    +0.018 C 
ATOM      8  C   UNL     1      -5.934   9.297   7.045  0.00  0.00    +0.109 C 
ATOM      9  N   UNL     1      -6.889   8.639   6.144  0.00  0.00    -0.176 NA
ATOM     10  C   UNL     1      -6.496   8.405   4.747  0.00  0.00    +0.122 C 
BRANCH   9  11
ATOM     11  S   UNL     1      -8.380   8.169   6.691  0.00  0.00    +0.061 S 
ATOM     12  O   UNL     1      -8.674   8.985   7.817  0.00  0.00    -0.153 OA
ATOM     13  O   UNL     1      -9.229   8.105   5.554  0.00  0.00    -0.153 OA
BRANCH  11  14
ATOM     14  C   UNL     1      -8.218   6.521   7.292  0.00  0.00    +0.106 A 
ATOM     15  C   UNL     1      -8.427   5.452   6.441  0.00  0.00    +0.031 A 
ATOM     16  C   UNL     1      -8.296   4.158   6.910  0.00  0.00    +0.040 A 
ATOM     17  C   UNL     1      -7.966   3.933   8.236  0.00  0.00    +0.124 A 
ATOM     18  C   UNL     1      -7.762   5.005   9.089  0.00  0.00    +0.040 A 
ATOM     19  C   UNL     1      -7.888   6.297   8.616  0.00  0.00    +0.031 A 
ATOM     20  F   UNL     1      -7.842   2.669   8.696  0.00  0.00    -0.205 F 
ENDBRANCH  11  14
ENDBRANCH   9  11
ENDBRANCH   2   5
BRANCH   1  23
ATOM     21  C   UNL     1      -1.907   6.128   1.468  0.00  0.00    +0.233 C 
ATOM     22  O   UNL     1      -1.252   5.665   2.378  0.00  0.00    -0.274 OA
ATOM     23  N   UNL     1      -3.068   6.762   1.728  0.00  0.00    -0.234 N 
ATOM     24  H   UNL     1      -3.592   7.132   1.001  0.00  0.00    +0.173 HD
BRANCH  21  25
ATOM     25  C   UNL     1      -1.422   5.996   0.047  0.00  0.00    +0.133 C 
BRANCH  25  35
ATOM     26  C   UNL     1      -0.013   1.076   0.008  0.00  0.00    +0.001 A 
ATOM     27  C   UNL     1      -1.235   1.746   0.018  0.00  0.00    +0.001 A 
ATOM     28  C   UNL     1      -1.289   3.105   0.031  0.00  0.00    +0.009 A 
ATOM     29  C   UNL     1      -0.096   3.849   0.024  0.00  0.00    -0.014 A 
ATOM     30  C   UNL     1       1.147   3.167   0.008  0.00  0.00    -0.018 A 
ATOM     31  C   UNL     1       1.163   1.762   0.000  0.00  0.00    +0.008 A 
ATOM     32  C   UNL     1       2.340   3.910   0.000  0.00  0.00    +0.008 A 
ATOM     33  C   UNL     1       2.286   5.271   0.008  0.00  0.00    +0.001 A 
ATOM     34  C   UNL     1       1.064   5.940   0.023  0.00  0.00    +0.005 A 
ATOM     35  C   UNL     1      -0.111   5.253   0.031  0.00  0.00    -0.031 A 
ENDBRANCH  25  35
ENDBRANCH  21  25
ENDBRANCH   1  23
TORSDOF 6
