REMARK  Name = ZINC16741859
REMARK  6 active torsions:
REMARK  status: ('A' for Active; 'I' for Inactive)
REMARK    1  A    between atoms: C_1  and  C_2
REMARK    2  A    between atoms: C_2  and  C_3
REMARK    3  A    between atoms: C_6  and  C_9
REMARK    4  A    between atoms: C_16  and  C_33
REMARK    5  A    between atoms: N_24  and  C_25
REMARK    6  A    between atoms: C_25  and  C_26
REMARK                            x       y       z     vdW  Elec       q    Type
REMARK                         _______ _______ _______ _____ _____    ______ ____
ROOT
ATOM      1  C   UNL     1      -0.076   5.774   0.034  0.00  0.00    +0.145 C 
ATOM      2  C   UNL     1      -0.373   6.281   1.421  0.00  0.00    +0.072 A 
ATOM      3  C   UNL     1       0.319   6.132   2.703  0.00  0.00    +0.199 A 
ATOM      4  O   UNL     1       1.353   5.496   2.801  0.00  0.00    -0.287 OA
ATOM      5  C   UNL     1      -0.298   6.793   3.870  0.00  0.00    +0.065 A 
ATOM      6  C   UNL     1       0.276   6.717   5.138  0.00  0.00    +0.018 A 
ATOM      7  C   UNL     1      -0.328   7.343   6.193  0.00  0.00    -0.050 A 
ATOM      8  C   UNL     1      -1.507   8.051   6.006  0.00  0.00    +0.007 A 
ATOM      9  C   UNL     1      -2.089   8.137   4.761  0.00  0.00    +0.047 A 
ATOM     10  C   UNL     1      -1.492   7.507   3.672  0.00  0.00    +0.139 A 
ATOM     11  O   UNL     1      -2.048   7.581   2.449  0.00  0.00    -0.450 OA
ATOM     12  C   UNL     1      -1.524   6.997   1.353  0.00  0.00    +0.199 A 
ATOM     13  C   UNL     1      -2.003   6.981  -0.051  0.00  0.00    +0.283 C 
ATOM     14  O   UNL     1      -3.011   7.532  -0.448  0.00  0.00    -0.267 OA
ATOM     15  N   UNL     1      -1.162   6.270  -0.821  0.00  0.00    -0.279 N 
ATOM     16  C   UNL     1       0.290   7.264   7.565  0.00  0.00    +0.044 C 
ENDROOT
BRANCH   1  20
ATOM     17  C   UNL     1      -0.018   1.503   0.010  0.00  0.00    -0.048 A 
ATOM     18  C   UNL     1      -1.225   2.178   0.020  0.00  0.00    +0.004 A 
ATOM     19  C   UNL     1      -1.244   3.560   0.032  0.00  0.00    +0.006 A 
ATOM     20  C   UNL     1      -0.056   4.267   0.025  0.00  0.00    -0.022 A 
ATOM     21  C   UNL     1       1.151   3.592   0.010  0.00  0.00    +0.006 A 
ATOM     22  C   UNL     1       1.169   2.210   0.003  0.00  0.00    +0.004 A 
BRANCH  17  24
ATOM     23  C   UNL     1       0.023  -0.522   1.442  0.00  0.00    +0.009 C 
ATOM     24  C   UNL     1       0.002  -0.004   0.002  0.00  0.00    +0.032 C 
ENDBRANCH  17  24
ENDBRANCH   1  20
BRANCH  15  25
ATOM     25  C   UNL     1      -1.304   6.030  -2.260  0.00  0.00    +0.144 C 
BRANCH  25  26
ATOM     26  C   UNL     1      -2.102   4.772  -2.483  0.00  0.00    -0.030 A 
ATOM     27  C   UNL     1      -1.457   3.553  -2.584  0.00  0.00    +0.008 A 
ATOM     28  C   UNL     1      -2.188   2.398  -2.783  0.00  0.00    +0.038 A 
ATOM     29  C   UNL     1      -3.567   2.462  -2.893  0.00  0.00    +0.123 A 
ATOM     30  C   UNL     1      -4.212   3.684  -2.798  0.00  0.00    +0.038 A 
ATOM     31  C   UNL     1      -3.479   4.837  -2.592  0.00  0.00    +0.008 A 
ATOM     32  F   UNL     1      -4.282   1.334  -3.095  0.00  0.00    -0.205 F 
ENDBRANCH  25  26
ENDBRANCH  15  25
TORSDOF 4
