REMARK  Name = ZINC20238722
REMARK  11 active torsions:
REMARK  status: ('A' for Active; 'I' for Inactive)
REMARK    1  A    between atoms: C_1  and  C_2
REMARK    2  A    between atoms: C_2  and  C_3
REMARK    3  A    between atoms: C_3  and  C_4
REMARK    4  A    between atoms: C_4  and  C_5
REMARK    5  A    between atoms: C_5  and  C_6
REMARK    6  A    between atoms: C_12  and  C_13
REMARK    7  A    between atoms: C_16  and  C_18
REMARK    8  A    between atoms: C_21  and  O_27
REMARK    9  A    between atoms: C_23  and  N_24
REMARK   10  A    between atoms: O_27  and  C_28
REMARK   11  A    between atoms: C_28  and  C_29
REMARK                            x       y       z     vdW  Elec       q    Type
REMARK                         _______ _______ _______ _____ _____    ______ ____
ROOT
ATOM      1  C   UNL     1       3.049  -4.040  -1.871  0.00  0.00    +0.100 C 
ATOM      2  N   UNL     1       2.260  -4.794  -1.162  0.00  0.00    -0.169 NA
ATOM      3  N   UNL     1       2.076  -6.125  -1.470  0.00  0.00    -0.152 N 
ATOM      4  C   UNL     1       1.181  -7.006  -0.827  0.00  0.00    +0.153 C 
ATOM      5  N   UNL     1       0.131  -6.601  -0.158  0.00  0.00    -0.283 NA
ATOM      6  C   UNL     1       1.547  -8.439  -0.983  0.00  0.00    +0.084 C 
ATOM      7  C   UNL     1       1.292  -9.371   0.013  0.00  0.00    +0.063 C 
ATOM      8  C   UNL     1       2.197  -8.819  -2.257  0.00  0.00    +0.273 C 
ATOM      9  O   UNL     1       2.127  -9.961  -2.682  0.00  0.00    -0.268 OA
ATOM     10  N   UNL     1       2.870  -7.867  -2.936  0.00  0.00    -0.152 NA
ATOM     11  C   UNL     1       2.816  -6.627  -2.520  0.00  0.00    +0.181 C 
ATOM     12  S   UNL     1       3.652  -5.179  -3.110  0.00  0.00    -0.038 S 
ATOM     13  H   UNL     1      -0.063  -5.654  -0.086  0.00  0.00    +0.188 HD
ENDROOT
BRANCH   7  14
ATOM     14  C   UNL     1       0.842  -8.946   1.273  0.00  0.00    +0.129 A 
ATOM     15  C   UNL     1       0.423  -9.771   2.308  0.00  0.00    +0.050 A 
ATOM     16  C   UNL     1       0.066  -8.938   3.367  0.00  0.00    +0.050 A 
ATOM     17  C   UNL     1       0.276  -7.639   2.949  0.00  0.00    +0.138 A 
ATOM     18  O   UNL     1       0.747  -7.665   1.690  0.00  0.00    -0.455 OA
BRANCH  17  19
ATOM     19  C   UNL     1       0.029  -6.427   3.750  0.00  0.00    +0.048 A 
ATOM     20  C   UNL     1      -1.194  -6.258   4.408  0.00  0.00    +0.017 A 
ATOM     21  C   UNL     1      -1.419  -5.124   5.156  0.00  0.00    +0.046 A 
ATOM     22  C   UNL     1      -0.435  -4.148   5.257  0.00  0.00    +0.123 A 
ATOM     23  C   UNL     1       0.781  -4.311   4.605  0.00  0.00    +0.079 A 
ATOM     24  C   UNL     1       1.018  -5.446   3.860  0.00  0.00    +0.140 A 
BRANCH  24  25
ATOM     25  N   UNL     1       2.317  -5.622   3.171  0.00  0.00    +0.057 N 
ATOM     26  O   UNL     1       3.172  -4.772   3.266  0.00  0.00    -0.126 OA
ATOM     27  O   UNL     1       2.523  -6.615   2.513  0.00  0.00    -0.126 OA
ENDBRANCH  24  25
BRANCH  22  28
ATOM     28  O   UNL     1      -0.662  -3.031   5.995  0.00  0.00    -0.492 OA
BRANCH  28  29
ATOM     29  C   UNL     1      -1.934  -2.927   6.639  0.00  0.00    +0.225 C 
ATOM     30  C   UNL     1      -2.005  -1.612   7.418  0.00  0.00    +0.048 C 
ENDBRANCH  28  29
ENDBRANCH  22  28
ENDBRANCH  17  19
ENDBRANCH   7  14
BRANCH   1  31
ATOM     31  C   UNL     1       3.369  -2.577  -1.696  0.00  0.00    +0.064 C 
BRANCH  31  32
ATOM     32  C   UNL     1       2.606  -2.030  -0.488  0.00  0.00    +0.007 C 
BRANCH  32  33
ATOM     33  C   UNL     1       2.930  -0.545  -0.309  0.00  0.00    +0.000 C 
BRANCH  33  35
ATOM     34  C   UNL     1       2.491   1.487   1.077  0.00  0.00    +0.004 C 
ATOM     35  C   UNL     1       2.167   0.002   0.898  0.00  0.00    -0.003 C 
ENDBRANCH  33  35
ENDBRANCH  32  33
ENDBRANCH  31  32
ENDBRANCH   1  31
TORSDOF 9
