REMARK  Name = ZINC39794916
REMARK  2 active torsions:
REMARK  status: ('A' for Active; 'I' for Inactive)
REMARK    1  A    between atoms: C_4  and  C_7
REMARK    2  A    between atoms: C_10  and  C_12
REMARK                            x       y       z     vdW  Elec       q    Type
REMARK                         _______ _______ _______ _____ _____    ______ ____
ROOT
ATOM      1  C   UNL     1       7.345  -0.845  -0.069  0.00  0.00    +0.128 C 
ATOM      2  C   UNL     1       7.736  -0.100   1.174  0.00  0.00    +0.070 A 
ATOM      3  C   UNL     1       8.645   0.914   1.125  0.00  0.00    +0.111 A 
ATOM      4  N   UNL     1       8.987   1.574   2.280  0.00  0.00    -0.323 N 
ATOM      5  C   UNL     1       8.429   1.224   3.454  0.00  0.00    +0.159 A 
ATOM      6  S   UNL     1       8.873   2.059   4.881  0.00  0.00    -0.013 S 
ATOM      7  N   UNL     1       7.526   0.229   3.522  0.00  0.00    -0.302 N 
ATOM      8  C   UNL     1       7.163  -0.444   2.412  0.00  0.00    +0.258 A 
ATOM      9  O   UNL     1       6.344  -1.344   2.481  0.00  0.00    -0.267 OA
ATOM     10  N   UNL     1       9.211   1.275  -0.071  0.00  0.00    -0.304 N 
ATOM     11  C   UNL     1       8.622   0.928  -1.257  0.00  0.00    +0.017 C 
ATOM     12  C   UNL     1       7.718  -0.072  -1.308  0.00  0.00    +0.027 C 
ATOM     13  C   UNL     1       7.096  -0.424  -2.519  0.00  0.00    +0.162 C 
ATOM     14  O   UNL     1       6.292  -1.335  -2.533  0.00  0.00    -0.292 OA
ATOM     15  C   UNL     1       7.407   0.305  -3.797  0.00  0.00    +0.080 C 
ATOM     16  C   UNL     1       7.824   1.741  -3.463  0.00  0.00    +0.014 C 
ATOM     17  C   UNL     1       9.011   1.688  -2.501  0.00  0.00    +0.051 C 
ATOM     18  H   UNL     1       7.134  -0.006   4.377  0.00  0.00    +0.171 HD
ATOM     19  H   UNL     1      10.038   1.782  -0.077  0.00  0.00    +0.153 HD
ATOM     20  H   UNL     1       9.635   2.295   2.250  0.00  0.00    +0.169 HD
ENDROOT
BRANCH   1  24
ATOM     21  C   UNL     1       3.695  -0.684  -0.038  0.00  0.00    +0.135 A 
ATOM     22  C   UNL     1       3.857  -2.034  -0.052  0.00  0.00    +0.050 A 
ATOM     23  C   UNL     1       5.246  -2.276  -0.066  0.00  0.00    +0.046 A 
ATOM     24  C   UNL     1       5.856  -1.075  -0.059  0.00  0.00    +0.118 A 
ATOM     25  O   UNL     1       4.916  -0.115  -0.048  0.00  0.00    -0.459 OA
BRANCH  21  29
ATOM     26  C   UNL     1      -0.017   1.379   0.010  0.00  0.00    +0.000 A 
ATOM     27  C   UNL     1       1.168   2.094   0.002  0.00  0.00    +0.001 A 
ATOM     28  C   UNL     1       2.377   1.429  -0.013  0.00  0.00    +0.011 A 
ATOM     29  C   UNL     1       2.404   0.034  -0.021  0.00  0.00    +0.017 A 
ATOM     30  C   UNL     1       1.204  -0.681  -0.013  0.00  0.00    +0.011 A 
ATOM     31  C   UNL     1       0.002  -0.004   0.002  0.00  0.00    +0.001 A 
ENDBRANCH  21  29
ENDBRANCH   1  24
TORSDOF 2
