REMARK  Name = ZINC39448816
REMARK  4 active torsions:
REMARK  status: ('A' for Active; 'I' for Inactive)
REMARK    1  A    between atoms: C_4  and  C_7
REMARK    2  A    between atoms: C_12  and  S_14
REMARK    3  A    between atoms: S_14  and  C_15
REMARK    4  A    between atoms: C_15  and  C_16
REMARK                            x       y       z     vdW  Elec       q    Type
REMARK                         _______ _______ _______ _____ _____    ______ ____
ROOT
ATOM      1  S   UNL     1       2.663  -3.156  -3.052  0.00  0.00    -0.081 S 
ENDROOT
BRANCH   1   6
ATOM      2  C   UNL     1       3.711  -0.707  -0.038  0.00  0.00    +0.200 C 
ATOM      3  N   UNL     1       4.716   0.093  -0.747  0.00  0.00    -0.336 N 
ATOM      4  C   UNL     1       4.915  -0.079  -2.027  0.00  0.00    +0.190 C 
ATOM      5  N   UNL     1       4.251  -1.010  -2.731  0.00  0.00    -0.195 NA
ATOM      6  C   UNL     1       3.560  -1.957  -2.122  0.00  0.00    +0.159 C 
ATOM      7  N   UNL     1       3.554  -1.987  -0.746  0.00  0.00    -0.300 N 
ATOM      8  N   UNL     1       5.834   0.722  -2.675  0.00  0.00    -0.329 N 
ATOM      9  H   UNL     1       6.321   1.399  -2.180  0.00  0.00    +0.145 HD
ATOM     10  H   UNL     1       5.993   0.607  -3.625  0.00  0.00    +0.145 HD
ATOM     11  H   UNL     1       3.451  -2.820  -0.261  0.00  0.00    +0.150 HD
ATOM     12  H   UNL     1       5.236   0.754  -0.262  0.00  0.00    +0.164 HD
BRANCH   2  16
ATOM     13  C   UNL     1      -0.017   1.378   0.010  0.00  0.00    +0.000 A 
ATOM     14  C   UNL     1       1.171   2.086   0.002  0.00  0.00    +0.000 A 
ATOM     15  C   UNL     1       2.377   1.411  -0.013  0.00  0.00    +0.007 A 
ATOM     16  C   UNL     1       2.396   0.029  -0.020  0.00  0.00    -0.007 A 
ATOM     17  C   UNL     1       1.208  -0.679  -0.012  0.00  0.00    +0.007 A 
ATOM     18  C   UNL     1       0.002  -0.004   0.002  0.00  0.00    +0.000 A 
ENDBRANCH   2  16
ENDBRANCH   1   6
BRANCH   1  19
ATOM     19  C   UNL     1       2.979  -2.699  -4.778  0.00  0.00    +0.173 C 
BRANCH  19  20
ATOM     20  C   UNL     1       2.260  -3.658  -5.692  0.00  0.00    +0.234 C 
ATOM     21  O   UNL     1       1.600  -4.561  -5.224  0.00  0.00    -0.274 OA
ATOM     22  N   UNL     1       2.352  -3.513  -7.028  0.00  0.00    -0.239 N 
ATOM     23  C   UNL     1       3.114  -2.480  -7.593  0.00  0.00    +0.044 A 
ATOM     24  C   UNL     1       4.457  -2.397  -7.245  0.00  0.00    +0.024 A 
ATOM     25  C   UNL     1       5.266  -1.425  -7.797  0.00  0.00    +0.002 A 
ATOM     26  C   UNL     1       4.723  -0.535  -8.706  0.00  0.00    +0.000 A 
ATOM     27  C   UNL     1       3.391  -0.608  -9.039  0.00  0.00    +0.005 A 
ATOM     28  C   UNL     1       2.550  -1.572  -8.477  0.00  0.00    -0.025 A 
ATOM     29  C   UNL     1       1.099  -1.460  -8.882  0.00  0.00    +0.042 C 
ATOM     30  C   UNL     1       0.202  -2.473  -8.193  0.00  0.00    +0.042 C 
ATOM     31  C   UNL     1       0.592  -3.885  -8.549  0.00  0.00    -0.025 A 
ATOM     32  C   UNL     1       1.692  -4.392  -7.898  0.00  0.00    +0.044 A 
ATOM     33  C   UNL     1       2.112  -5.693  -8.113  0.00  0.00    +0.024 A 
ATOM     34  C   UNL     1       1.415  -6.474  -9.021  0.00  0.00    +0.002 A 
ATOM     35  C   UNL     1       0.325  -5.958  -9.697  0.00  0.00    +0.000 A 
ATOM     36  C   UNL     1      -0.102  -4.645  -9.462  0.00  0.00    +0.005 A 
ENDBRANCH  19  20
ENDBRANCH   1  19
TORSDOF 4
