REMARK  Name = ZINC01449295
REMARK  9 active torsions:
REMARK  status: ('A' for Active; 'I' for Inactive)
REMARK    1  A    between atoms: C_1  and  C_2
REMARK    2  A    between atoms: C_3  and  C_27
REMARK    3  A    between atoms: C_4  and  C_14
REMARK    4  A    between atoms: C_7  and  O_9
REMARK    5  A    between atoms: O_9  and  C_10
REMARK    6  A    between atoms: C_11  and  C_13
REMARK    7  A    between atoms: C_17  and  C_19
REMARK    8  A    between atoms: C_27  and  O_29
REMARK    9  A    between atoms: O_29  and  C_30
REMARK                            x       y       z     vdW  Elec       q    Type
REMARK                         _______ _______ _______ _____ _____    ______ ____
ROOT
ATOM      1  C   UNL     1      -0.149   1.493   0.131  0.00  0.00    +0.066 C 
ATOM      2  C   UNL     1      -0.061  -0.010   0.060  0.00  0.00    +0.049 C 
ATOM      3  C   UNL     1      -1.232  -0.748  -0.002  0.00  0.00    +0.072 C 
ATOM      4  C   UNL     1      -1.101  -2.259  -0.073  0.00  0.00    +0.132 C 
ATOM      5  C   UNL     1       0.317  -2.801  -0.068  0.00  0.00    +0.072 C 
ATOM      6  C   UNL     1       0.570  -4.167  -0.130  0.00  0.00    +0.338 C 
ATOM      7  O   UNL     1      -0.441  -5.034  -0.075  0.00  0.00    -0.245 OA
ATOM      8  C   UNL     1       1.350  -1.879  -0.000  0.00  0.00    +0.049 C 
ATOM      9  N   UNL     1       1.127  -0.581   0.053  0.00  0.00    -0.256 NA
ATOM     10  C   UNL     1       2.773  -2.377   0.007  0.00  0.00    +0.066 C 
ENDROOT
BRANCH   4  11
ATOM     11  C   UNL     1      -1.777  -2.732  -1.334  0.00  0.00    +0.118 A 
ATOM     12  C   UNL     1      -2.819  -3.584  -1.394  0.00  0.00    +0.046 A 
ATOM     13  C   UNL     1      -3.135  -3.754  -2.757  0.00  0.00    +0.050 A 
ATOM     14  C   UNL     1      -2.260  -2.988  -3.460  0.00  0.00    +0.137 A 
ATOM     15  O   UNL     1      -1.446  -2.369  -2.583  0.00  0.00    -0.459 OA
BRANCH  14  16
ATOM     16  C   UNL     1      -2.212  -2.853  -4.931  0.00  0.00    +0.037 A 
ATOM     17  C   UNL     1      -2.208  -3.991  -5.740  0.00  0.00    +0.033 A 
ATOM     18  C   UNL     1      -2.165  -3.858  -7.113  0.00  0.00    +0.042 A 
ATOM     19  C   UNL     1      -2.125  -2.599  -7.689  0.00  0.00    +0.021 A 
ATOM     20  C   UNL     1      -2.129  -1.467  -6.894  0.00  0.00    +0.022 A 
ATOM     21  C   UNL     1      -2.178  -1.586  -5.519  0.00  0.00    +0.052 A 
ATOM     22 CL   UNL     1      -2.189  -0.165  -4.522  0.00  0.00    -0.083 Cl
ATOM     23 CL   UNL     1      -2.160  -5.272  -8.120  0.00  0.00    -0.084 Cl
ENDBRANCH  14  16
ENDBRANCH   4  11
BRANCH   6  24
ATOM     24  O   UNL     1       1.836  -4.614  -0.244  0.00  0.00    -0.465 OA
ATOM     25  C   UNL     1       2.022  -6.029  -0.302  0.00  0.00    +0.280 C 
ENDBRANCH   6  24
BRANCH   3  26
ATOM     26  C   UNL     1      -2.478  -0.130   0.002  0.00  0.00    +0.338 C 
ATOM     27  O   UNL     1      -2.562   1.198   0.065  0.00  0.00    -0.245 OA
BRANCH  26  28
ATOM     28  O   UNL     1      -3.600  -0.875  -0.060  0.00  0.00    -0.465 OA
ATOM     29  C   UNL     1      -4.845  -0.174  -0.052  0.00  0.00    +0.280 C 
ENDBRANCH  26  28
ENDBRANCH   3  26
TORSDOF 5
