REMARK  Name = ZINC35058074
REMARK  8 active torsions:
REMARK  status: ('A' for Active; 'I' for Inactive)
REMARK    1  A    between atoms: C_1  and  C_2
REMARK    2  A    between atoms: N_4  and  C_5
REMARK    3  A    between atoms: C_7  and  O_37
REMARK    4  A    between atoms: C_15  and  C_18
REMARK    5  A    between atoms: C_24  and  O_26
REMARK    6  A    between atoms: O_26  and  C_27
REMARK    7  A    between atoms: O_37  and  C_38
REMARK    8  A    between atoms: C_38  and  C_39
REMARK                            x       y       z     vdW  Elec       q    Type
REMARK                         _______ _______ _______ _____ _____    ______ ____
ROOT
ATOM      1  C   UNL     1       0.013  -2.121  -1.176  0.00  0.00    +0.173 C 
ATOM      2  C   UNL     1       0.509  -2.615  -2.538  0.00  0.00    +0.176 C 
ATOM      3  C   UNL     1       0.481  -4.144  -2.561  0.00  0.00    +0.183 C 
ATOM      4  C   UNL     1      -0.933  -4.638  -2.237  0.00  0.00    +0.179 C 
ATOM      5  C   UNL     1      -0.907  -6.169  -2.148  0.00  0.00    +0.197 C 
ATOM      6  O   UNL     1       0.088  -6.559  -1.197  0.00  0.00    -0.342 OA
ATOM      7  C   UNL     1       1.401  -6.087  -1.506  0.00  0.00    +0.319 C 
ATOM      8  O   UNL     1       1.390  -4.659  -1.585  0.00  0.00    -0.336 OA
ATOM      9  O   UNL     1      -1.355  -4.091  -0.986  0.00  0.00    -0.332 OA
ATOM     10  C   UNL     1      -1.390  -2.680  -0.922  0.00  0.00    +0.331 C 
ENDROOT
BRANCH   1  14
ATOM     11  C   UNL     1      -0.084   1.522  -0.002  0.00  0.00    +0.109 C 
ATOM     12  C   UNL     1      -0.035   0.015  -0.005  0.00  0.00    +0.210 C 
ATOM     13  O   UNL     1       0.005  -0.592   1.044  0.00  0.00    -0.276 OA
ATOM     14  N   UNL     1      -0.035  -0.657  -1.173  0.00  0.00    -0.304 N 
ATOM     15  H   UNL     1      -0.067  -0.171  -2.012  0.00  0.00    +0.149 HD
ENDBRANCH   1  14
BRANCH   7  16
ATOM     16  C   UNL     1       2.358  -6.523  -0.427  0.00  0.00    +0.161 A 
ATOM     17  C   UNL     1       2.627  -7.794  -0.081  0.00  0.00    +0.050 A 
ATOM     18  C   UNL     1       3.574  -7.742   0.968  0.00  0.00    +0.041 A 
ATOM     19  C   UNL     1       3.827  -6.441   1.200  0.00  0.00    +0.195 A 
ATOM     20  O   UNL     1       3.092  -5.707   0.348  0.00  0.00    -0.463 OA
ENDBRANCH   7  16
BRANCH  10  21
ATOM     21  O   UNL     1      -2.286  -2.193  -1.923  0.00  0.00    -0.461 OA
BRANCH  21  22
ATOM     22  C   UNL     1      -3.611  -2.422  -1.730  0.00  0.00    +0.132 A 
ATOM     23  C   UNL     1      -4.038  -3.086  -0.614  0.00  0.00    +0.046 A 
ATOM     24  C   UNL     1      -5.392  -3.329  -0.401  0.00  0.00    +0.004 A 
ATOM     25  C   UNL     1      -6.330  -2.912  -1.296  0.00  0.00    +0.009 A 
ATOM     26  C   UNL     1      -5.931  -2.225  -2.455  0.00  0.00    -0.014 A 
ATOM     27  C   UNL     1      -4.554  -1.972  -2.675  0.00  0.00    +0.024 A 
ATOM     28  C   UNL     1      -4.156  -1.282  -3.831  0.00  0.00    +0.012 A 
ATOM     29  C   UNL     1      -5.096  -0.862  -4.722  0.00  0.00    +0.001 A 
ATOM     30  C   UNL     1      -6.451  -1.106  -4.505  0.00  0.00    +0.001 A 
ATOM     31  C   UNL     1      -6.872  -1.781  -3.400  0.00  0.00    +0.008 A 
ENDBRANCH  21  22
ENDBRANCH  10  21
BRANCH   2  32
ATOM     32  O   UNL     1      -0.339  -2.106  -3.568  0.00  0.00    -0.361 OA
BRANCH  32  33
ATOM     33  C   UNL     1       0.291  -2.014  -4.848  0.00  0.00    +0.285 C 
BRANCH  33  34
ATOM     34  C   UNL     1      -0.639  -1.335  -5.819  0.00  0.00    +0.381 C 
ATOM     35  O   UNL     1      -1.740  -0.963  -5.449  0.00  0.00    -0.244 OA
ATOM     36  O   UNL     1      -0.291  -1.156  -6.973  0.00  0.00    -0.244 OA
ENDBRANCH  33  34
ENDBRANCH  32  33
ENDBRANCH   2  32
TORSDOF 7
