REMARK  Name = ZINC00683309
REMARK  6 active torsions:
REMARK  status: ('A' for Active; 'I' for Inactive)
REMARK    1  A    between atoms: C_1  and  C_2
REMARK    2  A    between atoms: C_3  and  C_19
REMARK    3  A    between atoms: C_4  and  C_10
REMARK    4  A    between atoms: C_13  and  O_17
REMARK    5  A    between atoms: C_19  and  O_21
REMARK    6  A    between atoms: O_21  and  C_22
REMARK                            x       y       z     vdW  Elec       q    Type
REMARK                         _______ _______ _______ _____ _____    ______ ____
ROOT
ATOM      1  C   UNL     1       1.663  -1.818  -3.367  0.00  0.00    +0.061 C 
ATOM      2  C   UNL     1       1.156  -2.639  -2.209  0.00  0.00    +0.021 C 
ATOM      3  C   UNL     1       0.723  -2.015  -1.092  0.00  0.00    +0.078 C 
ATOM      4  C   UNL     1       0.216  -2.878   0.046  0.00  0.00    +0.144 C 
ATOM      5  N   UNL     1       0.243  -4.336  -0.159  0.00  0.00    -0.288 N 
ATOM      6  C   UNL     1       0.712  -4.811  -1.331  0.00  0.00    +0.304 C 
ATOM      7  O   UNL     1       0.738  -6.013  -1.510  0.00  0.00    -0.252 OA
ATOM      8  N   UNL     1       1.148  -4.001  -2.304  0.00  0.00    -0.273 N 
ATOM      9  H   UNL     1      -0.068  -4.941   0.533  0.00  0.00    +0.151 HD
ATOM     10  H   UNL     1       1.473  -4.405  -3.123  0.00  0.00    +0.156 HD
ENDROOT
BRANCH   4  11
ATOM     11  C   UNL     1      -1.207  -2.476   0.335  0.00  0.00    -0.020 A 
ATOM     12  C   UNL     1      -2.233  -2.945  -0.465  0.00  0.00    +0.024 A 
ATOM     13  C   UNL     1      -3.540  -2.582  -0.199  0.00  0.00    +0.061 A 
ATOM     14  C   UNL     1      -3.821  -1.738   0.865  0.00  0.00    +0.145 A 
ATOM     15  C   UNL     1      -2.789  -1.264   1.663  0.00  0.00    +0.061 A 
ATOM     16  C   UNL     1      -1.485  -1.635   1.396  0.00  0.00    +0.024 A 
ATOM     17 BR   UNL     1      -3.168  -0.113   3.115  0.00  0.00    -0.046 Br
ATOM     18 BR   UNL     1      -4.942  -3.229  -1.290  0.00  0.00    -0.046 Br
BRANCH  14  19
ATOM     19  O   UNL     1      -5.105  -1.375   1.125  0.00  0.00    -0.505 OA
ATOM     20  H   UNL     1      -5.386  -0.570   0.669  0.00  0.00    +0.292 HD
ENDBRANCH  14  19
ENDBRANCH   4  11
BRANCH   3  21
ATOM     21  C   UNL     1       0.737  -0.604  -0.990  0.00  0.00    +0.338 C 
ATOM     22  O   UNL     1       1.218   0.066  -1.885  0.00  0.00    -0.245 OA
BRANCH  21  23
ATOM     23  O   UNL     1       0.215  -0.002   0.099  0.00  0.00    -0.465 OA
ATOM     24  C   UNL     1       0.263   1.426   0.135  0.00  0.00    +0.280 C 
ENDBRANCH  21  23
ENDBRANCH   3  21
TORSDOF 4
