REMARK  Name = ZINC06246554
REMARK  11 active torsions:
REMARK  status: ('A' for Active; 'I' for Inactive)
REMARK    1  A    between atoms: C_1  and  C_2
REMARK    2  A    between atoms: C_5  and  C_8
REMARK    3  A    between atoms: C_10  and  C_33
REMARK    4  A    between atoms: C_12  and  S_16
REMARK    5  A    between atoms: C_13  and  C_14
REMARK    6  A    between atoms: S_16  and  C_17
REMARK    7  A    between atoms: C_17  and  C_19
REMARK    8  A    between atoms: C_17  and  C_20
REMARK    9  A    between atoms: N_22  and  C_23
REMARK   10  A    between atoms: C_26  and  C_32
REMARK   11  A    between atoms: C_27  and  N_29
REMARK                            x       y       z     vdW  Elec       q    Type
REMARK                         _______ _______ _______ _____ _____    ______ ____
ROOT
ATOM      1  C   UNL     1       6.324   2.375  -0.583  0.00  0.00    +0.004 A 
ATOM      2  C   UNL     1       6.066   3.670  -0.137  0.00  0.00    +0.038 A 
ATOM      3  C   UNL     1       4.772   4.014   0.245  0.00  0.00    +0.073 A 
ATOM      4  N   UNL     1       3.783   3.130   0.192  0.00  0.00    -0.239 NA
ATOM      5  C   UNL     1       3.974   1.889  -0.223  0.00  0.00    +0.116 A 
ATOM      6  C   UNL     1       5.252   1.457  -0.622  0.00  0.00    +0.091 A 
ENDROOT
BRANCH   1  11
ATOM      7  C   UNL     1      11.622   0.804  -2.197  0.00  0.00    +0.044 C 
ATOM      8  C   UNL     1      10.235   1.215  -1.774  0.00  0.00    -0.050 A 
ATOM      9  C   UNL     1       9.674   2.372  -2.284  0.00  0.00    +0.004 A 
ATOM     10  C   UNL     1       8.405   2.754  -1.901  0.00  0.00    +0.009 A 
ATOM     11  C   UNL     1       7.687   1.971  -0.998  0.00  0.00    -0.016 A 
ATOM     12  C   UNL     1       8.261   0.809  -0.482  0.00  0.00    +0.009 A 
ATOM     13  C   UNL     1       9.528   0.434  -0.877  0.00  0.00    +0.004 A 
ENDBRANCH   1  11
BRANCH   3  14
ATOM     14  C   UNL     1       4.495   5.390   0.721  0.00  0.00    +0.000 A 
ATOM     15  C   UNL     1       5.524   6.329   0.787  0.00  0.00    +0.010 A 
ATOM     16  C   UNL     1       5.258   7.610   1.226  0.00  0.00    +0.001 A 
ATOM     17  C   UNL     1       3.976   7.961   1.609  0.00  0.00    +0.000 A 
ATOM     18  C   UNL     1       2.952   7.033   1.549  0.00  0.00    +0.001 A 
ATOM     19  C   UNL     1       3.205   5.750   1.107  0.00  0.00    +0.010 A 
ENDBRANCH   3  14
BRANCH   6  20
ATOM     20  C   UNL     1       5.461   0.112  -1.065  0.00  0.00    +0.102 C 
ATOM     21  N   UNL     1       5.627  -0.956  -1.417  0.00  0.00    -0.191 NA
ENDBRANCH   6  20
BRANCH   5  22
ATOM     22  S   UNL     1       2.619   0.764  -0.269  0.00  0.00    -0.092 S 
BRANCH  22  23
ATOM     23  C   UNL     1       1.297   1.840   0.340  0.00  0.00    +0.136 C 
ATOM     24  C   UNL     1       1.587   2.233   1.790  0.00  0.00    +0.029 C 
BRANCH  23  25
ATOM     25  C   UNL     1      -0.019   1.108   0.271  0.00  0.00    +0.230 C 
ATOM     26  O   UNL     1      -0.040  -0.104   0.299  0.00  0.00    -0.274 OA
ATOM     27  N   UNL     1      -1.171   1.800   0.172  0.00  0.00    -0.285 N 
ATOM     28  H   UNL     1      -1.161   2.769   0.227  0.00  0.00    +0.155 HD
BRANCH  27  29
ATOM     29  C   UNL     1      -2.381   1.122  -0.009  0.00  0.00    +0.036 A 
ATOM     30  C   UNL     1      -3.381   1.681  -0.795  0.00  0.00    +0.024 A 
ATOM     31  C   UNL     1      -4.572   1.007  -0.976  0.00  0.00    +0.007 A 
ATOM     32  C   UNL     1      -4.775  -0.218  -0.367  0.00  0.00    -0.020 A 
ATOM     33  C   UNL     1      -3.784  -0.775   0.420  0.00  0.00    +0.131 A 
ATOM     34  C   UNL     1      -2.587  -0.108   0.600  0.00  0.00    +0.056 A 
ATOM     35  C   UNL     1      -6.079  -0.948  -0.562  0.00  0.00    +0.046 C 
BRANCH  33  36
ATOM     36  N   UNL     1      -4.004  -2.087   1.069  0.00  0.00    +0.057 N 
ATOM     37  O   UNL     1      -3.151  -2.555   1.800  0.00  0.00    -0.126 OA
ATOM     38  O   UNL     1      -5.040  -2.697   0.872  0.00  0.00    -0.126 OA
ENDBRANCH  33  36
ENDBRANCH  27  29
ENDBRANCH  23  25
ENDBRANCH  22  23
ENDBRANCH   5  22
TORSDOF 8
