REMARK  Name = ZINC36791755
REMARK  12 active torsions:
REMARK  status: ('A' for Active; 'I' for Inactive)
REMARK    1  A    between atoms: C_1  and  C_2
REMARK    2  A    between atoms: C_2  and  O_3
REMARK    3  A    between atoms: O_3  and  C_4
REMARK    4  A    between atoms: C_11  and  C_18
REMARK    5  A    between atoms: C_13  and  O_14
REMARK    6  A    between atoms: C_18  and  S_19
REMARK    7  A    between atoms: S_19  and  C_20
REMARK    8  A    between atoms: C_23  and  C_25
REMARK    9  A    between atoms: C_28  and  O_33
REMARK   10  A    between atoms: C_29  and  O_31
REMARK   11  A    between atoms: O_31  and  C_32
REMARK   12  A    between atoms: O_33  and  C_34
REMARK                            x       y       z     vdW  Elec       q    Type
REMARK                         _______ _______ _______ _____ _____    ______ ____
ROOT
ATOM      1  C   UNL     1      -1.509  -1.867  -0.220  0.00  0.00    +0.405 C 
ATOM      2  O   UNL     1      -0.624  -2.591  -0.644  0.00  0.00    -0.226 OA
ATOM      3  N   UNL     1      -2.716  -2.365   0.015  0.00  0.00    -0.251 N 
ATOM      4  C   UNL     1      -2.929  -3.704  -0.078  0.00  0.00    +0.040 A 
ATOM      5  C   UNL     1      -4.242  -4.199  -0.170  0.00  0.00    +0.024 A 
ATOM      6  C   UNL     1      -4.468  -5.535  -0.264  0.00  0.00    +0.013 A 
ATOM      7  C   UNL     1      -3.384  -6.431  -0.268  0.00  0.00    +0.022 A 
ATOM      8  C   UNL     1      -3.598  -7.822  -0.365  0.00  0.00    -0.020 A 
ATOM      9  C   UNL     1      -2.500  -8.659  -0.365  0.00  0.00    +0.092 A 
ATOM     10  C   UNL     1      -1.223  -8.126  -0.272  0.00  0.00    +0.285 A 
ATOM     11  O   UNL     1      -1.024  -6.807  -0.180  0.00  0.00    -0.425 OA
ATOM     12  C   UNL     1      -2.061  -5.944  -0.175  0.00  0.00    +0.141 A 
ATOM     13  C   UNL     1      -1.842  -4.581  -0.086  0.00  0.00    +0.070 A 
ATOM     14  H   UNL     1      -3.446  -1.773   0.254  0.00  0.00    +0.158 HD
ENDROOT
BRANCH  10  15
ATOM     15  O   UNL     1      -0.161  -8.954  -0.274  0.00  0.00    -0.480 OA
ATOM     16  H   UNL     1       0.691  -8.502  -0.205  0.00  0.00    +0.295 HD
ENDBRANCH  10  15
BRANCH   1  17
ATOM     17  O   UNL     1      -1.261  -0.559   0.011  0.00  0.00    -0.450 OA
BRANCH  17  19
ATOM     18  C   UNL     1       0.150   1.403   0.055  0.00  0.00    +0.048 C 
ATOM     19  C   UNL     1       0.061  -0.091  -0.265  0.00  0.00    +0.230 C 
ENDBRANCH  17  19
ENDBRANCH   1  17
BRANCH   8  20
ATOM     20  C   UNL     1      -4.994  -8.381  -0.465  0.00  0.00    +0.115 C 
BRANCH  20  21
ATOM     21  S   UNL     1      -5.311  -8.913  -2.170  0.00  0.00    -0.061 S 
BRANCH  21  22
ATOM     22  C   UNL     1      -6.959  -9.534  -2.123  0.00  0.00    +0.278 A 
ATOM     23  N   UNL     1      -7.744  -9.576  -1.071  0.00  0.00    -0.101 NA
ATOM     24  N   UNL     1      -8.875 -10.092  -1.402  0.00  0.00    -0.106 NA
ATOM     25  C   UNL     1      -8.859 -10.400  -2.676  0.00  0.00    +0.249 A 
ATOM     26  O   UNL     1      -7.647 -10.048  -3.161  0.00  0.00    -0.411 OA
BRANCH  25  27
ATOM     27  C   UNL     1      -9.963 -11.013  -3.442  0.00  0.00    +0.042 A 
ATOM     28  C   UNL     1      -9.801 -11.293  -4.800  0.00  0.00    +0.017 A 
ATOM     29  C   UNL     1     -10.833 -11.866  -5.513  0.00  0.00    +0.050 A 
ATOM     30  C   UNL     1     -12.033 -12.165  -4.885  0.00  0.00    +0.162 A 
ATOM     31  C   UNL     1     -12.201 -11.888  -3.530  0.00  0.00    +0.162 A 
ATOM     32  C   UNL     1     -11.168 -11.320  -2.807  0.00  0.00    +0.062 A 
BRANCH  31  33
ATOM     33  O   UNL     1     -13.379 -12.182  -2.917  0.00  0.00    -0.491 OA
ATOM     34  C   UNL     1     -13.482 -11.871  -1.526  0.00  0.00    +0.277 C 
ENDBRANCH  31  33
BRANCH  30  35
ATOM     35  O   UNL     1     -13.047 -12.729  -5.593  0.00  0.00    -0.491 OA
ATOM     36  C   UNL     1     -12.807 -12.986  -6.978  0.00  0.00    +0.277 C 
ENDBRANCH  30  35
ENDBRANCH  25  27
ENDBRANCH  21  22
ENDBRANCH  20  21
ENDBRANCH   8  20
TORSDOF 9
