REMARK  Name = ZINC58826933
REMARK  9 active torsions:
REMARK  status: ('A' for Active; 'I' for Inactive)
REMARK    1  A    between atoms: C_1  and  O_2
REMARK    2  A    between atoms: O_2  and  C_3
REMARK    3  A    between atoms: C_3  and  C_5
REMARK    4  A    between atoms: C_8  and  C_11
REMARK    5  A    between atoms: C_14  and  C_16
REMARK    6  A    between atoms: N_17  and  C_18
REMARK    7  A    between atoms: C_19  and  C_27
REMARK    8  A    between atoms: N_29  and  C_30
REMARK    9  A    between atoms: C_30  and  C_31
REMARK                            x       y       z     vdW  Elec       q    Type
REMARK                         _______ _______ _______ _____ _____    ______ ____
ROOT
ATOM      1  C   UNL     1      -0.861 -10.616   1.658  0.00  0.00    +0.114 A 
ATOM      2  C   UNL     1      -1.563 -10.737   2.865  0.00  0.00    +0.073 A 
ATOM      3  C   UNL     1      -1.833 -12.027   3.357  0.00  0.00    -0.023 A 
ATOM      4  C   UNL     1      -1.387 -13.072   2.618  0.00  0.00    -0.004 A 
ATOM      5  S   UNL     1      -0.591 -12.326   1.220  0.00  0.00    -0.073 S 
ATOM      6  C   UNL     1      -1.541 -14.530   2.919  0.00  0.00    +0.043 C 
ATOM      7  C   UNL     1      -1.964 -14.680   4.387  0.00  0.00    +0.005 C 
ATOM      8  C   UNL     1      -3.112 -13.706   4.669  0.00  0.00    +0.005 C 
ATOM      9  C   UNL     1      -2.591 -12.269   4.660  0.00  0.00    +0.037 C 
ENDROOT
BRANCH   2  10
ATOM     10  C   UNL     1      -2.006  -9.547   3.598  0.00  0.00    +0.247 C 
ATOM     11  O   UNL     1      -3.100  -9.065   3.371  0.00  0.00    -0.270 OA
ATOM     12  N   UNL     1      -1.201  -8.986   4.522  0.00  0.00    -0.307 N 
ATOM     13  H   UNL     1      -0.328  -9.371   4.702  0.00  0.00    +0.149 HD
BRANCH  12  14
ATOM     14  C   UNL     1      -1.643  -7.797   5.254  0.00  0.00    +0.139 C 
BRANCH  14  15
ATOM     15  C   UNL     1      -0.567  -7.373   6.221  0.00  0.00    -0.030 A 
ATOM     16  C   UNL     1      -0.553  -7.882   7.506  0.00  0.00    +0.005 A 
ATOM     17  C   UNL     1       0.434  -7.493   8.392  0.00  0.00    +0.000 A 
ATOM     18  C   UNL     1       1.407  -6.596   7.993  0.00  0.00    +0.000 A 
ATOM     19  C   UNL     1       1.393  -6.088   6.708  0.00  0.00    +0.000 A 
ATOM     20  C   UNL     1       0.409  -6.480   5.820  0.00  0.00    +0.005 A 
ENDBRANCH  14  15
ENDBRANCH  12  14
ENDBRANCH   2  10
BRANCH   1  22
ATOM     21  C   UNL     1       0.165  -9.595  -0.135  0.00  0.00    +0.158 C 
ATOM     22  N   UNL     1      -0.491  -9.500   0.998  0.00  0.00    -0.244 NA
BRANCH  21  26
ATOM     23  C   UNL     1       0.826  -6.304  -1.338  0.00  0.00    +0.136 A 
ATOM     24  C   UNL     1       1.415  -7.035  -2.346  0.00  0.00    +0.050 A 
ATOM     25  C   UNL     1       1.243  -8.384  -2.025  0.00  0.00    +0.051 A 
ATOM     26  C   UNL     1       0.552  -8.426  -0.828  0.00  0.00    +0.147 A 
ATOM     27  O   UNL     1       0.317  -7.158  -0.431  0.00  0.00    -0.454 OA
BRANCH  23  31
ATOM     28  C   UNL     1       0.659  -2.074  -1.122  0.00  0.00    +0.059 A 
ATOM     29  C   UNL     1       0.087  -2.849  -0.108  0.00  0.00    +0.015 A 
ATOM     30  C   UNL     1       0.141  -4.212  -0.177  0.00  0.00    +0.012 A 
ATOM     31  C   UNL     1       0.767  -4.833  -1.263  0.00  0.00    +0.017 A 
ATOM     32  C   UNL     1       1.339  -4.058  -2.278  0.00  0.00    +0.012 A 
ATOM     33  C   UNL     1       1.280  -2.695  -2.211  0.00  0.00    +0.015 A 
BRANCH  28  34
ATOM     34  C   UNL     1       0.601  -0.602  -1.047  0.00  0.00    +0.339 C 
ATOM     35  O   UNL     1       1.093   0.071  -1.930  0.00  0.00    -0.245 OA
BRANCH  34  37
ATOM     36  C   UNL     1      -0.017   1.425   0.010  0.00  0.00    +0.280 C 
ATOM     37  O   UNL     1       0.002  -0.004   0.002  0.00  0.00    -0.464 OA
ENDBRANCH  34  37
ENDBRANCH  28  34
ENDBRANCH  23  31
ENDBRANCH  21  26
ENDBRANCH   1  22
TORSDOF 8
