REMARK  Name = ZINC39330095
REMARK  6 active torsions:
REMARK  status: ('A' for Active; 'I' for Inactive)
REMARK    1  A    between atoms: C_1  and  C_2
REMARK    2  A    between atoms: C_2  and  N_3
REMARK    3  A    between atoms: C_4  and  C_29
REMARK    4  A    between atoms: C_8  and  S_10
REMARK    5  A    between atoms: S_10  and  C_11
REMARK    6  A    between atoms: C_13  and  C_23
REMARK                            x       y       z     vdW  Elec       q    Type
REMARK                         _______ _______ _______ _____ _____    ______ ____
ROOT
ATOM      1  C   UNL     1       1.960   0.950   3.707  0.00  0.00    +0.167 C 
ATOM      2  C   UNL     1       1.921   2.246   4.494  0.00  0.00    -0.010 C 
ATOM      3  C   UNL     1       2.641   2.283   5.692  0.00  0.00    +0.001 A 
ATOM      4  C   UNL     1       2.659   3.449   6.486  0.00  0.00    +0.010 A 
ATOM      5  C   UNL     1       3.366   3.458   7.648  0.00  0.00    +0.001 A 
ATOM      6  C   UNL     1       4.077   2.337   8.071  0.00  0.00    +0.002 A 
ATOM      7  C   UNL     1       4.097   1.183   7.348  0.00  0.00    +0.024 A 
ATOM      8  C   UNL     1       3.388   1.102   6.137  0.00  0.00    +0.041 A 
ATOM      9  N   UNL     1       3.409  -0.032   5.428  0.00  0.00    -0.284 N 
ATOM     10  C   UNL     1       2.771  -0.187   4.285  0.00  0.00    +0.235 C 
ATOM     11  O   UNL     1       2.836  -1.249   3.693  0.00  0.00    -0.274 OA
ATOM     12  H   UNL     1       3.921  -0.779   5.773  0.00  0.00    +0.155 HD
ENDROOT
BRANCH   2  13
ATOM     13  C   UNL     1       1.189   3.370   4.034  0.00  0.00    -0.020 A 
ATOM     14  C   UNL     1       1.861   4.541   3.647  0.00  0.00    +0.008 A 
ATOM     15  C   UNL     1       1.140   5.627   3.202  0.00  0.00    +0.001 A 
ATOM     16  C   UNL     1      -0.242   5.567   3.136  0.00  0.00    +0.000 A 
ATOM     17  C   UNL     1      -0.914   4.417   3.516  0.00  0.00    +0.001 A 
ATOM     18  C   UNL     1      -0.212   3.317   3.958  0.00  0.00    +0.008 A 
ENDBRANCH   2  13
BRANCH   1  19
ATOM     19  S   UNL     1       2.616   1.320   2.057  0.00  0.00    -0.099 S 
BRANCH  19  24
ATOM     20  N   UNL     1       0.374   0.092   1.140  0.00  0.00    -0.244 NA
ATOM     21  C   UNL     1       0.046  -1.353   1.046  0.00  0.00    +0.231 C 
ATOM     22  N   UNL     1       1.278  -2.044   1.449  0.00  0.00    -0.166 NA
ATOM     23  N   UNL     1       2.248  -1.280   1.419  0.00  0.00    -0.160 NA
ATOM     24  C   UNL     1       1.851   0.067   0.990  0.00  0.00    +0.259 C 
BRANCH  21  25
ATOM     25  C   UNL     1      -1.082  -1.696   1.984  0.00  0.00    -0.005 A 
ATOM     26  C   UNL     1      -2.043  -0.749   2.286  0.00  0.00    +0.008 A 
ATOM     27  C   UNL     1      -3.078  -1.062   3.147  0.00  0.00    +0.022 A 
ATOM     28  C   UNL     1      -3.154  -2.326   3.705  0.00  0.00    +0.059 A 
ATOM     29  C   UNL     1      -2.192  -3.275   3.402  0.00  0.00    +0.060 A 
ATOM     30  C   UNL     1      -1.160  -2.961   2.537  0.00  0.00    +0.028 A 
ATOM     31 CL   UNL     1      -2.286  -4.860   4.104  0.00  0.00    -0.082 Cl
ATOM     32 CL   UNL     1      -4.453  -2.720   4.787  0.00  0.00    -0.082 Cl
ENDBRANCH  21  25
BRANCH  20  34
ATOM     33  C   UNL     1       0.071   2.334   0.202  0.00  0.00    +0.020 C 
ATOM     34  C   UNL     1      -0.253   0.847   0.046  0.00  0.00    +0.086 C 
ENDBRANCH  20  34
ENDBRANCH  19  24
ENDBRANCH   1  19
TORSDOF 5
