REMARK  Name = ZINC01913334
REMARK  8 active torsions:
REMARK  status: ('A' for Active; 'I' for Inactive)
REMARK    1  A    between atoms: C_4  and  C_7
REMARK    2  A    between atoms: C_7  and  N_59
REMARK    3  A    between atoms: C_8  and  C_9
REMARK    4  A    between atoms: C_8  and  N_59
REMARK    5  A    between atoms: C_15  and  C_16
REMARK    6  A    between atoms: C_15  and  N_59
REMARK    7  A    between atoms: C_17  and  O_33
REMARK    8  A    between atoms: C_24  and  C_27
REMARK                            x       y       z     vdW  Elec       q    Type
REMARK                         _______ _______ _______ _____ _____    ______ ____
ROOT
ATOM      1  C   UNL     1       0.927   2.864  -0.418  0.00  0.00    +0.020 A 
ATOM      2  C   UNL     1       0.780   1.517  -0.705  0.00  0.00    +0.122 A 
ATOM      3  C   UNL     1      -0.487   0.955  -0.839  0.00  0.00    +0.046 A 
ATOM      4  C   UNL     1      -1.604   1.728  -0.693  0.00  0.00    +0.019 A 
ATOM      5  C   UNL     1      -1.472   3.086  -0.398  0.00  0.00    +0.065 A 
ATOM      6  C   UNL     1      -0.197   3.663  -0.261  0.00  0.00    +0.143 A 
ATOM      7  O   UNL     1      -0.071   4.975   0.020  0.00  0.00    -0.462 OA
ATOM      8  C   UNL     1      -1.114   5.793   0.182  0.00  0.00    +0.208 A 
ATOM      9  C   UNL     1      -2.400   5.368   0.077  0.00  0.00    +0.064 A 
ATOM     10  C   UNL     1      -2.654   3.950  -0.227  0.00  0.00    +0.200 A 
ATOM     11  O   UNL     1      -3.786   3.511  -0.332  0.00  0.00    -0.286 OA
ENDROOT
BRANCH   9  12
ATOM     12  C   UNL     1      -3.527   6.314   0.266  0.00  0.00    -0.011 A 
ATOM     13  C   UNL     1      -4.549   6.382  -0.679  0.00  0.00    +0.009 A 
ATOM     14  C   UNL     1      -5.597   7.260  -0.497  0.00  0.00    +0.001 A 
ATOM     15  C   UNL     1      -5.629   8.081   0.616  0.00  0.00    +0.000 A 
ATOM     16  C   UNL     1      -4.615   8.022   1.555  0.00  0.00    +0.001 A 
ATOM     17  C   UNL     1      -3.564   7.143   1.385  0.00  0.00    +0.009 A 
ENDBRANCH   9  12
BRANCH   2  18
ATOM     18  O   UNL     1       1.881   0.738  -0.858  0.00  0.00    -0.506 OA
ATOM     19  H   UNL     1       2.210   0.695  -1.766  0.00  0.00    +0.292 HD
ENDBRANCH   2  18
BRANCH   1  20
ATOM     20  C   UNL     1       2.304   3.459  -0.275  0.00  0.00    -0.035 C 
BRANCH  20  21
ATOM     21  N   UNL     1       2.764   3.919  -1.602  0.00  0.00    +0.388 N 
ATOM     22  H   UNL     1       2.660   3.151  -2.276  0.00  0.00    -0.080 HD
BRANCH  21  23
ATOM     23  C   UNL     1       1.946   5.065  -2.051  0.00  0.00    -0.042 C 
BRANCH  23  27
ATOM     24  C   UNL     1       2.839   5.872  -6.150  0.00  0.00    +0.000 A 
ATOM     25  C   UNL     1       1.925   4.888  -5.822  0.00  0.00    +0.000 A 
ATOM     26  C   UNL     1       1.637   4.626  -4.496  0.00  0.00    +0.002 A 
ATOM     27  C   UNL     1       2.261   5.350  -3.497  0.00  0.00    -0.064 A 
ATOM     28  C   UNL     1       3.171   6.338  -3.825  0.00  0.00    +0.002 A 
ATOM     29  C   UNL     1       3.464   6.595  -5.152  0.00  0.00    +0.000 A 
ENDBRANCH  23  27
ENDBRANCH  21  23
BRANCH  21  30
ATOM     30  C   UNL     1       4.188   4.310  -1.536  0.00  0.00    -0.042 C 
BRANCH  30  31
ATOM     31  C   UNL     1       5.030   3.062  -1.473  0.00  0.00    -0.064 A 
ATOM     32  C   UNL     1       5.470   2.585  -0.253  0.00  0.00    +0.002 A 
ATOM     33  C   UNL     1       6.239   1.437  -0.195  0.00  0.00    +0.000 A 
ATOM     34  C   UNL     1       6.575   0.772  -1.359  0.00  0.00    +0.000 A 
ATOM     35  C   UNL     1       6.139   1.251  -2.580  0.00  0.00    +0.000 A 
ATOM     36  C   UNL     1       5.367   2.396  -2.637  0.00  0.00    +0.002 A 
ENDBRANCH  30  31
ENDBRANCH  21  30
ENDBRANCH  20  21
ENDBRANCH   1  20
TORSDOF 8
