REMARK  Name = ZINC35556505
REMARK  5 active torsions:
REMARK  status: ('A' for Active; 'I' for Inactive)
REMARK    1  A    between atoms: C_1  and  C_2
REMARK    2  A    between atoms: C_2  and  N_3
REMARK    3  A    between atoms: N_3  and  C_4
REMARK    4  A    between atoms: C_4  and  C_6
REMARK    5  A    between atoms: C_4  and  C_17
REMARK                            x       y       z     vdW  Elec       q    Type
REMARK                         _______ _______ _______ _____ _____    ______ ____
ROOT
ATOM      1  C   UNL     1      -1.356  -1.981   0.004  0.00  0.00    -0.008 C 
ENDROOT
BRANCH   1   2
ATOM      2  C   UNL     1      -2.766  -2.502  -0.109  0.00  0.00    -0.054 A 
ATOM      3  C   UNL     1      -3.788  -1.879   0.585  0.00  0.00    +0.004 A 
ATOM      4  C   UNL     1      -5.083  -2.350   0.487  0.00  0.00    +0.030 A 
ATOM      5  C   UNL     1      -5.357  -3.451  -0.310  0.00  0.00    +0.087 A 
ATOM      6  C   UNL     1      -4.327  -4.079  -1.011  0.00  0.00    +0.157 A 
ATOM      7  C   UNL     1      -3.032  -3.596  -0.909  0.00  0.00    +0.051 A 
ATOM      8  O   UNL     1      -4.878  -5.111  -1.696  0.00  0.00    -0.408 OA
ATOM      9  C   UNL     1      -6.198  -5.148  -1.453  0.00  0.00    +0.419 A 
ATOM     10  O   UNL     1      -6.976  -5.957  -1.919  0.00  0.00    -0.223 OA
ATOM     11  N   UNL     1      -6.527  -4.149  -0.610  0.00  0.00    -0.288 N 
ATOM     12  H   UNL     1      -7.415  -3.951  -0.274  0.00  0.00    +0.172 HD
ENDBRANCH   1   2
BRANCH   1  13
ATOM     13  C   UNL     1      -0.737  -2.482   1.284  0.00  0.00    -0.039 A 
ATOM     14  C   UNL     1      -0.772  -1.699   2.422  0.00  0.00    +0.004 A 
ATOM     15  C   UNL     1      -0.204  -2.158   3.595  0.00  0.00    +0.000 A 
ATOM     16  C   UNL     1       0.400  -3.402   3.631  0.00  0.00    +0.001 A 
ATOM     17  C   UNL     1       0.436  -4.186   2.494  0.00  0.00    +0.020 A 
ATOM     18  C   UNL     1      -0.138  -3.729   1.320  0.00  0.00    +0.043 A 
ATOM     19 CL   UNL     1      -0.099  -4.716  -0.107  0.00  0.00    -0.083 Cl
ENDBRANCH   1  13
BRANCH   1  20
ATOM     20  N   UNL     1      -1.376  -0.512   0.012  0.00  0.00    +0.386 N 
ATOM     21  H   UNL     1      -1.848  -0.187   0.843  0.00  0.00    -0.085 HD
ATOM     22  H   UNL     1      -1.864  -0.178  -0.805  0.00  0.00    -0.085 HD
BRANCH  20  24
ATOM     23  C   UNL     1      -0.019   1.526   0.010  0.00  0.00    -0.017 C 
ATOM     24  C   UNL     1       0.002  -0.004   0.002  0.00  0.00    -0.085 C 
ENDBRANCH  20  24
ENDBRANCH   1  20
TORSDOF 4
