REMARK  Name = ZINC67438259
REMARK  9 active torsions:
REMARK  status: ('A' for Active; 'I' for Inactive)
REMARK    1  A    between atoms: C_1  and  C_2
REMARK    2  A    between atoms: C_5  and  C_28
REMARK    3  A    between atoms: N_8  and  C_10
REMARK    4  A    between atoms: C_10  and  C_11
REMARK    5  A    between atoms: C_11  and  C_13
REMARK    6  A    between atoms: C_11  and  N_14
REMARK    7  A    between atoms: C_15  and  C_17
REMARK    8  A    between atoms: N_19  and  C_20
REMARK    9  A    between atoms: C_21  and  C_25
REMARK                            x       y       z     vdW  Elec       q    Type
REMARK                         _______ _______ _______ _____ _____    ______ ____
ROOT
ATOM      1  N   UNL     1       3.510  -2.495   0.951  0.00  0.00    -0.307 N 
ATOM      2  C   UNL     1       4.540  -1.852   0.365  0.00  0.00    +0.299 C 
ATOM      3  O   UNL     1       5.038  -0.886   0.905  0.00  0.00    -0.265 OA
ATOM      4  H   UNL     1       3.112  -3.266   0.519  0.00  0.00    +0.149 HD
ENDROOT
BRANCH   2   5
ATOM      5  C   UNL     1       5.067  -2.327  -0.949  0.00  0.00    +0.304 C 
ATOM      6  O   UNL     1       4.568  -3.293  -1.489  0.00  0.00    -0.265 OA
ATOM      7  N   UNL     1       6.097  -1.684  -1.534  0.00  0.00    -0.272 N 
ATOM      8  H   UNL     1       6.495  -0.912  -1.102  0.00  0.00    +0.156 HD
BRANCH   7   9
ATOM      9  C   UNL     1       6.585  -2.125  -2.752  0.00  0.00    +0.084 A 
ATOM     10  C   UNL     1       7.633  -1.596  -3.493  0.00  0.00    +0.065 A 
ATOM     11  C   UNL     1       7.938  -2.255  -4.741  0.00  0.00    +0.022 A 
ATOM     12  C   UNL     1       7.168  -3.317  -5.048  0.00  0.00    +0.048 A 
ATOM     13  S   UNL     1       6.052  -3.426  -3.667  0.00  0.00    -0.081 S 
BRANCH  10  14
ATOM     14  C   UNL     1       8.389  -0.427  -3.033  0.00  0.00    +0.244 C 
ATOM     15  O   UNL     1       8.105   0.105  -1.976  0.00  0.00    -0.270 OA
ATOM     16  N   UNL     1       9.400   0.058  -3.781  0.00  0.00    -0.325 N 
ATOM     17  H   UNL     1       9.627  -0.366  -4.623  0.00  0.00    +0.145 HD
ATOM     18  H   UNL     1       9.901   0.831  -3.476  0.00  0.00    +0.145 HD
ENDBRANCH  10  14
ENDBRANCH   7   9
ENDBRANCH   2   5
BRANCH   1  19
ATOM     19  C   UNL     1       2.993  -2.028   2.239  0.00  0.00    +0.054 C 
ATOM     20  C   UNL     1       3.825  -2.634   3.372  0.00  0.00    +0.026 C 
BRANCH  19  21
ATOM     21  C   UNL     1       1.534  -2.461   2.390  0.00  0.00    -0.057 C 
BRANCH  21  27
ATOM     22  C   UNL     1      -0.019   1.526   0.010  0.00  0.00    +0.005 C 
ATOM     23  C   UNL     1       0.002  -0.004   0.002  0.00  0.00    -0.031 C 
ATOM     24  C   UNL     1      -1.434  -0.535   0.015  0.00  0.00    +0.003 C 
ATOM     25  C   UNL     1      -1.402  -2.064   0.086  0.00  0.00    -0.031 C 
ATOM     26  C   UNL     1      -0.613  -2.496   1.324  0.00  0.00    -0.076 C 
ATOM     27  N   UNL     1       0.758  -1.980   1.239  0.00  0.00    +0.381 N 
ATOM     28  C   UNL     1       0.740  -0.512   1.242  0.00  0.00    -0.076 C 
ATOM     29  C   UNL     1      -0.728  -2.620  -1.170  0.00  0.00    +0.005 C 
ATOM     30  H   UNL     1       1.188  -2.307   0.386  0.00  0.00    -0.082 HD
ENDBRANCH  21  27
ENDBRANCH  19  21
ENDBRANCH   1  19
TORSDOF 6
