REMARK  Name = ZINC29885540
REMARK  11 active torsions:
REMARK  status: ('A' for Active; 'I' for Inactive)
REMARK    1  A    between atoms: C_1  and  C_2
REMARK    2  A    between atoms: C_5  and  C_7
REMARK    3  A    between atoms: C_10  and  C_12
REMARK    4  A    between atoms: C_12  and  N_13
REMARK    5  A    between atoms: N_13  and  C_14
REMARK    6  A    between atoms: C_15  and  C_17
REMARK    7  A    between atoms: C_21  and  S_23
REMARK    8  A    between atoms: S_23  and  N_26
REMARK    9  A    between atoms: N_26  and  C_27
REMARK   10  A    between atoms: C_32  and  O_33
REMARK   11  A    between atoms: O_33  and  C_34
REMARK                            x       y       z     vdW  Elec       q    Type
REMARK                         _______ _______ _______ _____ _____    ______ ____
ROOT
ATOM      1  C   UNL     1      -0.526   0.276  -0.471  0.00  0.00    +0.039 A 
ATOM      2  C   UNL     1       0.475  -0.688  -0.604  0.00  0.00    +0.013 A 
ATOM      3  C   UNL     1       0.139  -2.026  -0.644  0.00  0.00    +0.003 A 
ATOM      4  C   UNL     1      -1.187  -2.412  -0.553  0.00  0.00    +0.029 A 
ATOM      5  C   UNL     1      -2.183  -1.462  -0.420  0.00  0.00    +0.109 A 
ATOM      6  C   UNL     1      -1.860  -0.121  -0.374  0.00  0.00    +0.041 A 
ENDROOT
BRANCH   1   9
ATOM      7  N   UNL     1      -0.941   2.613  -1.070  0.00  0.00    -0.293 N 
ATOM      8  C   UNL     1      -2.182   2.188  -1.722  0.00  0.00    +0.133 C 
ATOM      9  C   UNL     1      -0.173   1.711  -0.428  0.00  0.00    +0.247 C 
ATOM     10  O   UNL     1       0.806   2.078   0.192  0.00  0.00    -0.270 OA
BRANCH   7  11
ATOM     11  C   UNL     1      -0.534   4.020  -1.117  0.00  0.00    +0.182 C 
BRANCH  11  15
ATOM     12  C   UNL     1       2.082   4.423  -3.633  0.00  0.00    +0.109 A 
ATOM     13  C   UNL     1       1.010   4.725  -4.388  0.00  0.00    +0.045 A 
ATOM     14  C   UNL     1      -0.125   4.611  -3.553  0.00  0.00    +0.046 A 
ATOM     15  C   UNL     1       0.322   4.255  -2.335  0.00  0.00    +0.122 A 
ATOM     16  O   UNL     1       1.658   4.140  -2.390  0.00  0.00    -0.463 OA
BRANCH  12  20
ATOM     17  C   UNL     1       3.951   6.236  -2.284  0.00  0.00    +0.008 C 
ATOM     18  C   UNL     1       4.497   5.348  -3.404  0.00  0.00    -0.003 C 
ATOM     19  C   UNL     1       4.564   3.842  -3.143  0.00  0.00    +0.015 C 
ATOM     20  C   UNL     1       3.514   4.406  -4.102  0.00  0.00    +0.058 C 
ENDBRANCH  12  20
ENDBRANCH  11  15
ENDBRANCH   7  11
ENDBRANCH   1   9
BRANCH   5  21
ATOM     21  S   UNL     1      -3.868  -1.965  -0.304  0.00  0.00    +0.072 S 
ATOM     22  O   UNL     1      -4.652  -0.861  -0.735  0.00  0.00    -0.150 OA
ATOM     23  O   UNL     1      -3.953  -3.244  -0.915  0.00  0.00    -0.150 OA
BRANCH  21  24
ATOM     24  N   UNL     1      -4.203  -2.185   1.303  0.00  0.00    -0.213 N 
ATOM     25  H   UNL     1      -4.516  -3.174   1.669  0.00  0.00    +0.174 HD
BRANCH  24  26
ATOM     26  C   UNL     1      -4.090  -1.112   2.195  0.00  0.00    +0.090 A 
ATOM     27  C   UNL     1      -4.429   0.170   1.788  0.00  0.00    +0.028 A 
ATOM     28  C   UNL     1      -4.321   1.227   2.672  0.00  0.00    +0.002 A 
ATOM     29  C   UNL     1      -3.865   1.011   3.959  0.00  0.00    +0.004 A 
ATOM     30  C   UNL     1      -3.519  -0.263   4.370  0.00  0.00    +0.047 A 
ATOM     31  C   UNL     1      -3.630  -1.328   3.492  0.00  0.00    +0.142 A 
BRANCH  31  32
ATOM     32  O   UNL     1      -3.290  -2.582   3.895  0.00  0.00    -0.493 OA
ATOM     33  C   UNL     1      -2.826  -2.728   5.239  0.00  0.00    +0.277 C 
ENDBRANCH  31  32
ENDBRANCH  24  26
ENDBRANCH  21  24
ENDBRANCH   5  21
TORSDOF 8
