REMARK  Name = ZINC11060884
REMARK  7 active torsions:
REMARK  status: ('A' for Active; 'I' for Inactive)
REMARK    1  A    between atoms: C_1  and  C_2
REMARK    2  A    between atoms: C_16  and  C_17
REMARK    3  A    between atoms: C_17  and  O_19
REMARK    4  A    between atoms: O_19  and  C_20
REMARK    5  A    between atoms: C_20  and  C_22
REMARK    6  A    between atoms: C_20  and  C_23
REMARK    7  A    between atoms: N_25  and  C_26
REMARK                            x       y       z     vdW  Elec       q    Type
REMARK                         _______ _______ _______ _____ _____    ______ ____
ROOT
ATOM      1  C   UNL     1      -0.002   0.003  -0.024  0.00  0.00    +0.347 C 
ATOM      2  O   UNL     1       1.059  -0.591  -0.044  0.00  0.00    -0.244 OA
ENDROOT
BRANCH   1  18
ATOM      3  C   UNL     1      -0.259  -3.024  -0.060  0.00  0.00    +0.046 C 
ATOM      4  C   UNL     1      -1.447  -2.098  -0.033  0.00  0.00    -0.015 A 
ATOM      5  C   UNL     1      -2.742  -2.620  -0.024  0.00  0.00    +0.076 A 
ATOM      6  C   UNL     1      -3.789  -1.671   0.003  0.00  0.00    +0.116 A 
ATOM      7  N   UNL     1      -5.065  -2.035   0.015  0.00  0.00    -0.226 NA
ATOM      8  C   UNL     1      -5.421  -3.289   0.002  0.00  0.00    +0.114 A 
ATOM      9  N   UNL     1      -4.499  -4.294  -0.024  0.00  0.00    -0.296 N 
ATOM     10  C   UNL     1      -3.180  -4.035  -0.037  0.00  0.00    +0.263 A 
ATOM     11  O   UNL     1      -2.366  -4.940  -0.061  0.00  0.00    -0.267 OA
ATOM     12  C   UNL     1      -4.985  -5.681  -0.035  0.00  0.00    +0.126 C 
ATOM     13  C   UNL     1      -5.549  -6.005  -1.416  0.00  0.00    +0.022 C 
ATOM     14  C   UNL     1      -7.027  -5.666  -1.499  0.00  0.00    +0.002 C 
ATOM     15  C   UNL     1      -7.281  -4.174  -1.369  0.00  0.00    +0.008 C 
ATOM     16  C   UNL     1      -6.884  -3.667   0.016  0.00  0.00    +0.074 C 
ATOM     17  S   UNL     1      -2.931  -0.117   0.019  0.00  0.00    -0.062 S 
ATOM     18  C   UNL     1      -1.260  -0.746  -0.018  0.00  0.00    +0.102 A 
ENDBRANCH   1  18
BRANCH   1  19
ATOM     19  O   UNL     1      -0.020   1.352  -0.006  0.00  0.00    -0.448 OA
BRANCH  19  20
ATOM     20  C   UNL     1       1.265   2.028  -0.013  0.00  0.00    +0.259 C 
ATOM     21  C   UNL     1       1.699   2.285  -1.458  0.00  0.00    +0.062 C 
BRANCH  20  22
ATOM     22  C   UNL     1       1.145   3.342   0.716  0.00  0.00    +0.258 C 
ATOM     23  O   UNL     1       0.082   3.675   1.195  0.00  0.00    -0.271 OA
ATOM     24  N   UNL     1       2.220   4.146   0.837  0.00  0.00    -0.281 N 
ATOM     25  H   UNL     1       3.088   3.845   0.525  0.00  0.00    +0.155 HD
BRANCH  24  26
ATOM     26  C   UNL     1       2.084   5.416   1.411  0.00  0.00    +0.052 A 
ATOM     27  C   UNL     1       0.855   6.062   1.387  0.00  0.00    +0.026 A 
ATOM     28  C   UNL     1       0.723   7.314   1.954  0.00  0.00    +0.022 A 
ATOM     29  C   UNL     1       1.814   7.926   2.547  0.00  0.00    +0.042 A 
ATOM     30  C   UNL     1       3.040   7.285   2.572  0.00  0.00    +0.041 A 
ATOM     31  C   UNL     1       3.177   6.029   2.011  0.00  0.00    +0.064 A 
ATOM     32 CL   UNL     1       4.713   5.223   2.050  0.00  0.00    -0.082 Cl
ATOM     33 CL   UNL     1       1.644   9.500   3.259  0.00  0.00    -0.083 Cl
ENDBRANCH  24  26
ENDBRANCH  20  22
ENDBRANCH  19  20
ENDBRANCH   1  19
TORSDOF 5
