REMARK  Name = ZINC38571417
REMARK  5 active torsions:
REMARK  status: ('A' for Active; 'I' for Inactive)
REMARK    1  A    between atoms: C_1  and  C_2
REMARK    2  A    between atoms: C_2  and  C_3
REMARK    3  A    between atoms: C_2  and  C_4
REMARK    4  A    between atoms: C_2  and  C_5
REMARK    5  A    between atoms: C_8  and  C_11
REMARK                            x       y       z     vdW  Elec       q    Type
REMARK                         _______ _______ _______ _____ _____    ______ ____
ROOT
ATOM      1  C   UNL     1       2.707  -1.868  -4.752  0.00  0.00    +0.073 C 
ATOM      2  C   UNL     1       3.161  -0.669  -5.580  0.00  0.00    +0.121 C 
ATOM      3  C   UNL     1       3.731  -1.224  -6.894  0.00  0.00    +0.087 C 
ATOM      4  N   UNL     1       3.219  -0.696  -7.957  0.00  0.00    -0.167 NA
ATOM      5  C   UNL     1       2.212   0.199  -7.961  0.00  0.00    +0.297 C 
ATOM      6  O   UNL     1       1.775   0.850  -8.893  0.00  0.00    -0.261 OA
ATOM      7  S   UNL     1       1.676   0.211  -6.226  0.00  0.00    -0.055 S 
ATOM      8  S   UNL     1       4.888  -2.427  -6.883  0.00  0.00    -0.071 S 
ATOM      9  C   UNL     1       4.898  -2.994  -5.212  0.00  0.00    +0.068 C 
ATOM     10  C   UNL     1       3.899  -2.702  -4.354  0.00  0.00    +0.026 C 
ATOM     11  C   UNL     1       3.936  -3.202  -2.972  0.00  0.00    +0.192 C 
ATOM     12  O   UNL     1       3.022  -2.941  -2.213  0.00  0.00    -0.287 OA
ATOM     13  C   UNL     1       5.070  -4.019  -2.496  0.00  0.00    +0.033 A 
ATOM     14  C   UNL     1       5.112  -4.496  -1.192  0.00  0.00    +0.012 A 
ATOM     15  C   UNL     1       6.190  -5.260  -0.771  0.00  0.00    +0.001 A 
ATOM     16  C   UNL     1       7.224  -5.551  -1.641  0.00  0.00    +0.001 A 
ATOM     17  C   UNL     1       7.197  -5.083  -2.945  0.00  0.00    +0.012 A 
ATOM     18  C   UNL     1       6.122  -4.316  -3.381  0.00  0.00    +0.034 A 
ATOM     19  C   UNL     1       6.058  -3.813  -4.763  0.00  0.00    +0.201 C 
ATOM     20  O   UNL     1       6.959  -4.061  -5.538  0.00  0.00    -0.286 OA
ENDROOT
BRANCH   1  24
ATOM     21  C   UNL     1       0.707  -0.490  -1.238  0.00  0.00    -0.042 A 
ATOM     22  C   UNL     1       0.036  -1.284  -2.148  0.00  0.00    +0.004 A 
ATOM     23  C   UNL     1       0.683  -1.730  -3.286  0.00  0.00    +0.004 A 
ATOM     24  C   UNL     1       2.001  -1.381  -3.513  0.00  0.00    -0.038 A 
ATOM     25  C   UNL     1       2.672  -0.586  -2.603  0.00  0.00    +0.004 A 
ATOM     26  C   UNL     1       2.024  -0.137  -1.467  0.00  0.00    +0.004 A 
BRANCH  21  28
ATOM     27  C   UNL     1      -0.019   1.526   0.010  0.00  0.00    +0.015 C 
ATOM     28  C   UNL     1       0.002  -0.004   0.002  0.00  0.00    -0.013 C 
ATOM     29  C   UNL     1       0.742  -0.511   1.242  0.00  0.00    +0.015 C 
ATOM     30  C   UNL     1      -1.433  -0.534   0.013  0.00  0.00    +0.015 C 
ENDBRANCH  21  28
ENDBRANCH   1  24
TORSDOF 2
