REMARK  Name = ZINC35522750
REMARK  11 active torsions:
REMARK  status: ('A' for Active; 'I' for Inactive)
REMARK    1  A    between atoms: C_1  and  C_2
REMARK    2  A    between atoms: C_6  and  N_8
REMARK    3  A    between atoms: C_9  and  C_11
REMARK    4  A    between atoms: C_11  and  C_13
REMARK    5  A    between atoms: C_11  and  O_14
REMARK    6  A    between atoms: O_14  and  C_15
REMARK    7  A    between atoms: C_15  and  C_17
REMARK    8  A    between atoms: C_19  and  S_25
REMARK    9  A    between atoms: C_22  and  O_23
REMARK   10  A    between atoms: O_23  and  C_24
REMARK   11  A    between atoms: S_25  and  N_28
REMARK                            x       y       z     vdW  Elec       q    Type
REMARK                         _______ _______ _______ _____ _____    ______ ____
ROOT
ATOM      1  C   UNL     1       0.520  -8.546   4.180  0.00  0.00    +0.102 A 
ATOM      2  C   UNL     1       0.044  -9.118   2.997  0.00  0.00    +0.047 A 
ATOM      3  C   UNL     1       0.117 -10.482   2.816  0.00  0.00    +0.110 A 
ATOM      4  C   UNL     1       0.660 -11.290   3.802  0.00  0.00    +0.032 A 
ATOM      5  C   UNL     1       1.135 -10.739   4.975  0.00  0.00    +0.048 A 
ATOM      6  C   UNL     1       1.075  -9.367   5.172  0.00  0.00    +0.134 A 
ENDROOT
BRANCH   3   7
ATOM      7  S   UNL     1      -0.484 -11.202   1.324  0.00  0.00    +0.075 S 
ATOM      8  O   UNL     1      -0.801 -12.554   1.625  0.00  0.00    -0.150 OA
ATOM      9  O   UNL     1      -1.441 -10.296   0.793  0.00  0.00    -0.150 OA
BRANCH   7  10
ATOM     10  N   UNL     1       0.779 -11.239   0.255  0.00  0.00    -0.202 N 
ATOM     11  C   UNL     1       1.115 -10.166  -0.685  0.00  0.00    +0.136 C 
ATOM     12  C   UNL     1       2.351 -10.670  -1.448  0.00  0.00    +0.058 C 
ATOM     13  C   UNL     1       2.628 -12.036  -0.861  0.00  0.00    -0.023 A 
ATOM     14  C   UNL     1       1.683 -12.294   0.120  0.00  0.00    +0.054 A 
ATOM     15  C   UNL     1       1.740 -13.504   0.814  0.00  0.00    +0.025 A 
ATOM     16  C   UNL     1       2.725 -14.425   0.527  0.00  0.00    +0.002 A 
ATOM     17  C   UNL     1       3.666 -14.156  -0.451  0.00  0.00    +0.000 A 
ATOM     18  C   UNL     1       3.611 -12.963  -1.148  0.00  0.00    +0.005 A 
ENDBRANCH   7  10
ENDBRANCH   3   7
BRANCH   1  19
ATOM     19  C   UNL     1       0.446  -7.088   4.380  0.00  0.00    +0.344 C 
ATOM     20  O   UNL     1       0.866  -6.593   5.408  0.00  0.00    -0.245 OA
BRANCH  19  21
ATOM     21  O   UNL     1      -0.088  -6.303   3.424  0.00  0.00    -0.449 OA
BRANCH  21  22
ATOM     22  C   UNL     1      -0.129  -4.898   3.686  0.00  0.00    +0.259 C 
ATOM     23  C   UNL     1      -1.444  -4.547   4.383  0.00  0.00    +0.062 C 
BRANCH  22  25
ATOM     24  N   UNL     1       0.052  -2.797   2.393  0.00  0.00    -0.282 N 
ATOM     25  C   UNL     1      -0.031  -4.143   2.385  0.00  0.00    +0.258 C 
ATOM     26  O   UNL     1      -0.028  -4.745   1.333  0.00  0.00    -0.271 OA
ATOM     27  H   UNL     1       0.127  -2.321   3.234  0.00  0.00    +0.155 HD
BRANCH  24  33
ATOM     28  C   UNL     1       1.524   1.061  -0.275  0.00  0.00    +0.044 C 
ATOM     29  C   UNL     1       0.735  -0.215  -0.134  0.00  0.00    -0.049 A 
ATOM     30  C   UNL     1      -0.011  -0.687  -1.199  0.00  0.00    +0.003 A 
ATOM     31  C   UNL     1      -0.737  -1.857  -1.074  0.00  0.00    +0.002 A 
ATOM     32  C   UNL     1      -0.718  -2.559   0.116  0.00  0.00    +0.023 A 
ATOM     33  C   UNL     1       0.031  -2.089   1.186  0.00  0.00    +0.034 A 
ATOM     34  C   UNL     1       0.762  -0.915   1.056  0.00  0.00    +0.026 A 
ENDBRANCH  24  33
ENDBRANCH  22  25
ENDBRANCH  21  22
ENDBRANCH  19  21
ENDBRANCH   1  19
BRANCH   6  35
ATOM     35  O   UNL     1       1.546  -8.823   6.322  0.00  0.00    -0.494 OA
ATOM     36  C   UNL     1       2.097  -9.721   7.287  0.00  0.00    +0.277 C 
ENDBRANCH   6  35
TORSDOF 8
