REMARK  Name = ZINC15903574
REMARK  7 active torsions:
REMARK  status: ('A' for Active; 'I' for Inactive)
REMARK    1  A    between atoms: C_4  and  C_7
REMARK    2  A    between atoms: C_7  and  N_8
REMARK    3  A    between atoms: C_17  and  C_19
REMARK    4  A    between atoms: N_21  and  N_22
REMARK    5  A    between atoms: C_23  and  C_25
REMARK    6  A    between atoms: C_25  and  S_26
REMARK    7  A    between atoms: S_26  and  C_27
REMARK                            x       y       z     vdW  Elec       q    Type
REMARK                         _______ _______ _______ _____ _____    ______ ____
ROOT
ATOM      1  C   UNL     1       5.509  12.204   0.009  0.00  0.00    +0.281 C 
ATOM      2  O   UNL     1       6.505  11.508  -0.004  0.00  0.00    -0.267 OA
ATOM      3  N   UNL     1       4.288  11.632   0.019  0.00  0.00    -0.229 N 
ATOM      4  H   UNL     1       3.493  12.188   0.029  0.00  0.00    +0.173 HD
ENDROOT
BRANCH   1  14
ATOM      5  N   UNL     1       4.589  15.711   0.036  0.00  0.00    -0.224 N 
ATOM      6  C   UNL     1       5.728  16.435   0.029  0.00  0.00    +0.275 A 
ATOM      7  O   UNL     1       5.692  17.652   0.035  0.00  0.00    -0.266 OA
ATOM      8  C   UNL     1       7.012  15.721   0.012  0.00  0.00    +0.050 A 
ATOM      9  C   UNL     1       8.240  16.374   0.004  0.00  0.00    +0.014 A 
ATOM     10  C   UNL     1       9.401  15.630  -0.011  0.00  0.00    +0.001 A 
ATOM     11  C   UNL     1       9.354  14.242  -0.017  0.00  0.00    +0.001 A 
ATOM     12  C   UNL     1       8.147  13.576  -0.008  0.00  0.00    +0.011 A 
ATOM     13  C   UNL     1       6.964  14.307   0.012  0.00  0.00    +0.020 A 
ATOM     14  C   UNL     1       5.635  13.674   0.016  0.00  0.00    +0.155 A 
ATOM     15  N   UNL     1       4.566  14.432   0.030  0.00  0.00    -0.163 NA
BRANCH   5  16
ATOM     16  C   UNL     1       3.312  16.428   0.051  0.00  0.00    +0.182 C 
BRANCH  16  20
ATOM     17  C   UNL     1       2.032  17.145  -3.960  0.00  0.00    +0.000 A 
ATOM     18  C   UNL     1       1.653  15.985  -3.311  0.00  0.00    +0.000 A 
ATOM     19  C   UNL     1       2.068  15.753  -2.013  0.00  0.00    +0.005 A 
ATOM     20  C   UNL     1       2.861  16.681  -1.364  0.00  0.00    -0.026 A 
ATOM     21  C   UNL     1       3.235  17.844  -2.011  0.00  0.00    +0.005 A 
ATOM     22  C   UNL     1       2.825  18.073  -3.311  0.00  0.00    +0.000 A 
ENDBRANCH  16  20
ENDBRANCH   5  16
ENDBRANCH   1  14
BRANCH   3  23
ATOM     23  N   UNL     1       4.168  10.236   0.013  0.00  0.00    -0.233 N 
ATOM     24  C   UNL     1       2.947   9.665   0.022  0.00  0.00    +0.239 C 
ATOM     25  O   UNL     1       1.953  10.359   0.035  0.00  0.00    -0.273 OA
ATOM     26  H   UNL     1       4.963   9.681   0.002  0.00  0.00    +0.173 HD
BRANCH  24  27
ATOM     27  C   UNL     1       2.818   8.164   0.015  0.00  0.00    +0.171 C 
BRANCH  27  28
ATOM     28  S   UNL     1       1.062   7.708   0.030  0.00  0.00    -0.116 S 
BRANCH  28  29
ATOM     29  C   UNL     1       1.079   5.946   0.021  0.00  0.00    +0.009 A 
ATOM     30  C   UNL     1       2.303   5.264   0.006  0.00  0.00    +0.015 A 
ATOM     31  C   UNL     1       2.345   3.906  -0.000  0.00  0.00    +0.009 A 
ATOM     32  C   UNL     1       1.149   3.167   0.008  0.00  0.00    -0.018 A 
ATOM     33  C   UNL     1       1.163   1.762   0.000  0.00  0.00    +0.008 A 
ATOM     34  C   UNL     1      -0.013   1.076   0.008  0.00  0.00    +0.001 A 
ATOM     35  C   UNL     1      -1.235   1.746   0.017  0.00  0.00    +0.001 A 
ATOM     36  C   UNL     1      -1.288   3.105   0.030  0.00  0.00    +0.008 A 
ATOM     37  C   UNL     1      -0.094   3.848   0.023  0.00  0.00    -0.017 A 
ATOM     38  C   UNL     1      -0.112   5.252   0.029  0.00  0.00    +0.023 A 
ENDBRANCH  28  29
ENDBRANCH  27  28
ENDBRANCH  24  27
ENDBRANCH   3  23
TORSDOF 7
