REMARK  Name = ZINC00720108
REMARK  7 active torsions:
REMARK  status: ('A' for Active; 'I' for Inactive)
REMARK    1  A    between atoms: C_1  and  C_2
REMARK    2  A    between atoms: C_2  and  N_3
REMARK    3  A    between atoms: C_5  and  C_33
REMARK    4  A    between atoms: C_11  and  N_15
REMARK    5  A    between atoms: N_18  and  C_21
REMARK    6  A    between atoms: C_21  and  N_23
REMARK    7  A    between atoms: C_24  and  C_26
REMARK                            x       y       z     vdW  Elec       q    Type
REMARK                         _______ _______ _______ _____ _____    ______ ____
ROOT
ATOM      1  N   UNL     1      -3.468  -0.523   3.541  0.00  0.00    -0.325 N 
ATOM      2  C   UNL     1      -4.010   0.790   3.920  0.00  0.00    +0.124 C 
ATOM      3  C   UNL     1      -4.931   1.282   2.797  0.00  0.00    +0.125 C 
ATOM      4  N   UNL     1      -5.867   0.204   2.450  0.00  0.00    -0.309 N 
ATOM      5  C   UNL     1      -5.325  -1.109   2.072  0.00  0.00    +0.125 C 
ATOM      6  C   UNL     1      -4.404  -1.600   3.189  0.00  0.00    +0.124 C 
ENDROOT
BRANCH   1  15
ATOM      7  N   UNL     1       0.707  -0.479   1.161  0.00  0.00    -0.346 N 
ATOM      8  C   UNL     1       2.030  -0.667   1.080  0.00  0.00    +0.105 A 
ATOM      9  C   UNL     1       2.775  -1.121   2.151  0.00  0.00    +0.126 A 
ATOM     10  C   UNL     1       2.091  -1.405   3.425  0.00  0.00    +0.204 A 
ATOM     11  O   UNL     1       2.704  -1.807   4.399  0.00  0.00    -0.286 OA
ATOM     12  C   UNL     1       0.636  -1.185   3.471  0.00  0.00    +0.049 A 
ATOM     13  C   UNL     1      -0.012  -0.716   2.314  0.00  0.00    +0.055 A 
ATOM     14  C   UNL     1      -1.384  -0.499   2.346  0.00  0.00    +0.052 A 
ATOM     15  C   UNL     1      -2.093  -0.741   3.511  0.00  0.00    +0.067 A 
ATOM     16  C   UNL     1      -1.440  -1.202   4.657  0.00  0.00    +0.145 A 
ATOM     17  C   UNL     1      -0.092  -1.430   4.638  0.00  0.00    +0.054 A 
ATOM     18  F   UNL     1      -2.144  -1.434   5.786  0.00  0.00    -0.204 F 
BRANCH   9  19
ATOM     19  C   UNL     1       4.223  -1.315   2.023  0.00  0.00    +0.392 C 
ATOM     20  O   UNL     1       4.781  -1.076   0.960  0.00  0.00    -0.240 OA
ATOM     21  O   UNL     1       4.874  -1.717   2.978  0.00  0.00    -0.240 OA
ENDBRANCH   9  19
BRANCH   7  23
ATOM     22  C   UNL     1      -0.029   1.534  -0.017  0.00  0.00    +0.027 C 
ATOM     23  C   UNL     1      -0.006   0.004  -0.024  0.00  0.00    +0.118 C 
ENDBRANCH   7  23
ENDBRANCH   1  15
BRANCH   4  24
ATOM     24  C   UNL     1      -7.197   0.415   2.479  0.00  0.00    +0.139 C 
ATOM     25  S   UNL     1      -7.816   1.906   3.050  0.00  0.00    -0.018 S 
BRANCH  24  26
ATOM     26  N   UNL     1      -8.042  -0.548   2.059  0.00  0.00    -0.264 N 
ATOM     27  C   UNL     1      -9.365  -0.300   1.988  0.00  0.00    +0.250 C 
ATOM     28  O   UNL     1      -9.796   0.791   2.302  0.00  0.00    -0.270 OA
ATOM     29  H   UNL     1      -7.697  -1.419   1.807  0.00  0.00    +0.157 HD
BRANCH  27  30
ATOM     30  C   UNL     1     -10.290  -1.356   1.527  0.00  0.00    +0.038 A 
ATOM     31  C   UNL     1      -9.798  -2.613   1.170  0.00  0.00    +0.013 A 
ATOM     32  C   UNL     1     -10.667  -3.595   0.741  0.00  0.00    +0.002 A 
ATOM     33  C   UNL     1     -12.024  -3.336   0.663  0.00  0.00    +0.015 A 
ATOM     34  C   UNL     1     -12.519  -2.092   1.016  0.00  0.00    +0.019 A 
ATOM     35  C   UNL     1     -11.661  -1.103   1.452  0.00  0.00    +0.028 A 
ATOM     36 BR   UNL     1     -14.376  -1.749   0.905  0.00  0.00    -0.050 Br
ENDBRANCH  27  30
ENDBRANCH  24  26
ENDBRANCH   4  24
TORSDOF 6
