REMARK  Name = ZINC16798778
REMARK  12 active torsions:
REMARK  status: ('A' for Active; 'I' for Inactive)
REMARK    1  A    between atoms: C_1  and  C_2
REMARK    2  A    between atoms: C_2  and  C_3
REMARK    3  A    between atoms: C_3  and  C_5
REMARK    4  A    between atoms: C_3  and  N_6
REMARK    5  A    between atoms: C_16  and  S_17
REMARK    6  A    between atoms: S_17  and  C_18
REMARK    7  A    between atoms: C_18  and  C_20
REMARK    8  A    between atoms: C_18  and  C_21
REMARK    9  A    between atoms: N_23  and  C_24
REMARK   10  A    between atoms: C_29  and  C_30
REMARK   11  A    between atoms: C_30  and  C_31
REMARK   12  A    between atoms: C_30  and  C_32
REMARK                            x       y       z     vdW  Elec       q    Type
REMARK                         _______ _______ _______ _____ _____    ______ ____
ROOT
ATOM      1  S   UNL     1       2.668   1.254  -0.032  0.00  0.00    -0.075 S 
ENDROOT
BRANCH   1  12
ATOM      2  N   UNL     1      -0.018   1.474  -0.021  0.00  0.00    -0.284 N 
ATOM      3  C   UNL     1      -1.200   2.132  -0.021  0.00  0.00    +0.263 A 
ATOM      4  O   UNL     1      -2.258   1.531  -0.023  0.00  0.00    -0.267 OA
ATOM      5  C   UNL     1      -1.158   3.601  -0.011  0.00  0.00    +0.065 A 
ATOM      6  C   UNL     1      -2.320   4.371  -0.005  0.00  0.00    +0.015 A 
ATOM      7  C   UNL     1      -2.225   5.735  -0.001  0.00  0.00    +0.001 A 
ATOM      8  C   UNL     1      -0.984   6.360  -0.003  0.00  0.00    +0.002 A 
ATOM      9  C   UNL     1       0.171   5.629  -0.010  0.00  0.00    +0.028 A 
ATOM     10  C   UNL     1       0.106   4.233  -0.014  0.00  0.00    +0.079 A 
ATOM     11  N   UNL     1       1.220   3.474  -0.021  0.00  0.00    -0.223 NA
ATOM     12  C   UNL     1       1.160   2.165  -0.024  0.00  0.00    +0.173 A 
BRANCH   2  13
ATOM     13  C   UNL     1      -0.001   0.009  -0.025  0.00  0.00    +0.089 C 
ATOM     14  C   UNL     1      -0.722  -0.506  -1.273  0.00  0.00    +0.031 C 
BRANCH  13  16
ATOM     15  C   UNL     1       0.079  -0.103   2.469  0.00  0.00    +0.006 C 
ATOM     16  C   UNL     1      -0.712  -0.513   1.225  0.00  0.00    +0.021 C 
ENDBRANCH  13  16
ENDBRANCH   2  13
ENDBRANCH   1  12
BRANCH   1  17
ATOM     17  C   UNL     1       3.859   2.618  -0.033  0.00  0.00    +0.137 C 
ATOM     18  C   UNL     1       3.730   3.406  -1.338  0.00  0.00    +0.029 C 
BRANCH  17  19
ATOM     19  C   UNL     1       5.256   2.065   0.084  0.00  0.00    +0.230 C 
ATOM     20  O   UNL     1       5.494   0.935  -0.284  0.00  0.00    -0.274 OA
ATOM     21  N   UNL     1       6.241   2.828   0.599  0.00  0.00    -0.284 N 
ATOM     22  H   UNL     1       6.067   3.753   0.832  0.00  0.00    +0.155 HD
BRANCH  21  23
ATOM     23  C   UNL     1       7.515   2.285   0.796  0.00  0.00    +0.037 A 
ATOM     24  C   UNL     1       8.015   1.342  -0.093  0.00  0.00    +0.023 A 
ATOM     25  C   UNL     1       9.275   0.812   0.102  0.00  0.00    +0.002 A 
ATOM     26  C   UNL     1      10.035   1.210   1.187  0.00  0.00    +0.000 A 
ATOM     27  C   UNL     1       9.538   2.144   2.076  0.00  0.00    +0.006 A 
ATOM     28  C   UNL     1       8.280   2.683   1.884  0.00  0.00    -0.024 A 
BRANCH  28  29
ATOM     29  C   UNL     1       7.739   3.700   2.855  0.00  0.00    +0.015 C 
ATOM     30  C   UNL     1       7.783   3.126   4.273  0.00  0.00    +0.012 C 
ATOM     31  C   UNL     1       8.591   4.969   2.792  0.00  0.00    +0.012 C 
ENDBRANCH  28  29
ENDBRANCH  21  23
ENDBRANCH  17  19
ENDBRANCH   1  17
TORSDOF 7
