REMARK  Name = ZINC24980696
REMARK  7 active torsions:
REMARK  status: ('A' for Active; 'I' for Inactive)
REMARK    1  A    between atoms: C_1  and  C_2
REMARK    2  A    between atoms: C_2  and  C_4
REMARK    3  A    between atoms: C_2  and  N_14
REMARK    4  A    between atoms: N_14  and  C_15
REMARK    5  A    between atoms: C_15  and  C_16
REMARK    6  A    between atoms: N_18  and  C_19
REMARK    7  A    between atoms: N_18  and  C_25
REMARK                            x       y       z     vdW  Elec       q    Type
REMARK                         _______ _______ _______ _____ _____    ______ ____
ROOT
ATOM      1  C   UNL     1      -5.351  -1.104   1.983  0.00  0.00    +0.016 C 
ENDROOT
BRANCH   1   2
ATOM      2  N   UNL     1      -4.171  -0.230   2.010  0.00  0.00    +0.389 N 
ATOM      3  H   UNL     1      -3.928   0.001   3.058  0.00  0.00    -0.084 HD
ATOM      4  H   UNL     1      -4.410   0.702   1.475  0.00  0.00    -0.084 HD
BRANCH   2   6
ATOM      5  C   UNL     1      -3.075  -0.647  -0.140  0.00  0.00    -0.009 C 
ATOM      6  C   UNL     1      -3.019  -0.880   1.372  0.00  0.00    -0.043 C 
BRANCH   6   7
ATOM      7  C   UNL     1      -1.744  -0.296   1.923  0.00  0.00    -0.058 A 
ATOM      8  C   UNL     1      -1.654   1.062   2.164  0.00  0.00    +0.006 A 
ATOM      9  C   UNL     1      -0.485   1.602   2.665  0.00  0.00    +0.049 A 
ATOM     10  C   UNL     1       0.600   0.780   2.934  0.00  0.00    +0.162 A 
ATOM     11  C   UNL     1       0.509  -0.586   2.695  0.00  0.00    +0.162 A 
ATOM     12  C   UNL     1      -0.666  -1.120   2.188  0.00  0.00    +0.051 A 
ATOM     13  O   UNL     1       1.561  -1.410   2.953  0.00  0.00    -0.485 OA
ATOM     14  C   UNL     1       2.842  -0.789   3.105  0.00  0.00    +0.270 C 
ATOM     15  C   UNL     1       2.680   0.425   4.030  0.00  0.00    +0.270 C 
ATOM     16  O   UNL     1       1.745   1.326   3.427  0.00  0.00    -0.485 OA
ENDBRANCH   6   7
ENDBRANCH   2   6
ENDBRANCH   1   2
BRANCH   1  17
ATOM     17  C   UNL     1      -6.511  -0.405   2.645  0.00  0.00    +0.203 C 
ATOM     18  O   UNL     1      -6.395   0.745   3.013  0.00  0.00    -0.277 OA
ATOM     19  N   UNL     1      -7.675  -1.058   2.829  0.00  0.00    -0.270 N 
BRANCH  19  20
ATOM     20  C   UNL     1      -7.776  -2.415   2.503  0.00  0.00    +0.036 A 
ATOM     21  C   UNL     1      -7.723  -2.818   1.176  0.00  0.00    +0.023 A 
ATOM     22  C   UNL     1      -7.819  -4.159   0.858  0.00  0.00    +0.002 A 
ATOM     23  C   UNL     1      -7.976  -5.099   1.860  0.00  0.00    +0.000 A 
ATOM     24  C   UNL     1      -8.033  -4.700   3.183  0.00  0.00    +0.002 A 
ATOM     25  C   UNL     1      -7.934  -3.361   3.508  0.00  0.00    +0.023 A 
ENDBRANCH  19  20
BRANCH  19  26
ATOM     26  C   UNL     1      -8.836  -0.346   3.369  0.00  0.00    +0.081 C 
ATOM     27  C   UNL     1      -9.165   0.849   2.472  0.00  0.00    +0.023 C 
ATOM     28  C   UNL     1     -10.377   1.592   3.036  0.00  0.00    +0.002 C 
ATOM     29  C   UNL     1     -10.060   2.087   4.449  0.00  0.00    +0.000 C 
ATOM     30  C   UNL     1      -9.732   0.891   5.346  0.00  0.00    +0.002 C 
ATOM     31  C   UNL     1      -8.520   0.148   4.782  0.00  0.00    +0.023 C 
ENDBRANCH  19  26
ENDBRANCH   1  17
TORSDOF 6
