REMARK  Name = ZINC23032059
REMARK  9 active torsions:
REMARK  status: ('A' for Active; 'I' for Inactive)
REMARK    1  A    between atoms: C_1  and  C_2
REMARK    2  A    between atoms: C_3  and  C_10
REMARK    3  A    between atoms: C_4  and  C_7
REMARK    4  A    between atoms: C_7  and  C_8
REMARK    5  A    between atoms: C_7  and  C_9
REMARK    6  A    between atoms: C_10  and  O_12
REMARK    7  A    between atoms: O_12  and  C_13
REMARK    8  A    between atoms: C_13  and  C_14
REMARK    9  A    between atoms: N_16  and  C_17
REMARK                            x       y       z     vdW  Elec       q    Type
REMARK                         _______ _______ _______ _____ _____    ______ ____
ROOT
ATOM      1  C   UNL     1       3.590   6.110   0.678  0.00  0.00    +0.255 C 
ATOM      2  O   UNL     1       4.635   5.553   0.415  0.00  0.00    -0.272 OA
ATOM      3  N   UNL     1       2.426   5.437   0.587  0.00  0.00    -0.282 N 
ATOM      4  H   UNL     1       1.473   5.962   0.751  0.00  0.00    +0.155 HD
ENDROOT
BRANCH   3   5
ATOM      5  C   UNL     1       2.429   4.080   0.285  0.00  0.00    +0.045 A 
ATOM      6  C   UNL     1       3.383   3.557  -0.588  0.00  0.00    +0.024 A 
ATOM      7  C   UNL     1       3.389   2.212  -0.890  0.00  0.00    +0.003 A 
ATOM      8  C   UNL     1       2.450   1.358  -0.331  0.00  0.00    +0.012 A 
ATOM      9  C   UNL     1       1.491   1.857   0.542  0.00  0.00    +0.035 A 
ATOM     10  C   UNL     1       1.476   3.230   0.856  0.00  0.00    +0.054 A 
ATOM     11  C   UNL     1       0.457   3.758   1.781  0.00  0.00    +0.196 C 
ATOM     12  O   UNL     1       0.575   4.871   2.255  0.00  0.00    -0.287 OA
ATOM     13  C   UNL     1      -0.711   2.918   2.127  0.00  0.00    +0.033 A 
ATOM     14  C   UNL     1      -1.820   3.471   2.756  0.00  0.00    +0.012 A 
ATOM     15  C   UNL     1      -2.914   2.670   3.055  0.00  0.00    +0.001 A 
ATOM     16  C   UNL     1      -2.900   1.321   2.748  0.00  0.00    +0.001 A 
ATOM     17  C   UNL     1      -1.800   0.754   2.127  0.00  0.00    +0.012 A 
ATOM     18  C   UNL     1      -0.701   1.545   1.809  0.00  0.00    +0.033 A 
ATOM     19  C   UNL     1       0.483   0.958   1.145  0.00  0.00    +0.195 C 
ATOM     20  O   UNL     1       0.623  -0.248   1.092  0.00  0.00    -0.287 OA
ENDBRANCH   3   5
BRANCH   1  21
ATOM     21  C   UNL     1       3.594   7.555   1.107  0.00  0.00    +0.328 C 
BRANCH  21  22
ATOM     22  O   UNL     1       4.959   8.050   1.127  0.00  0.00    -0.452 OA
BRANCH  22  23
ATOM     23  C   UNL     1       5.138   9.335   1.492  0.00  0.00    +0.345 C 
ATOM     24  O   UNL     1       4.180  10.022   1.786  0.00  0.00    -0.245 OA
BRANCH  23  27
ATOM     25  C   UNL     1       6.775  10.847  -0.947  0.00  0.00    +0.070 C 
ATOM     26  C   UNL     1       7.240  10.582   0.462  0.00  0.00    +0.095 A 
ATOM     27  C   UNL     1       6.495   9.905   1.535  0.00  0.00    +0.124 A 
ATOM     28  C   UNL     1       7.380   9.933   2.586  0.00  0.00    +0.154 A 
ATOM     29  O   UNL     1       8.473  10.555   2.140  0.00  0.00    -0.358 OA
ATOM     30  N   UNL     1       8.384  10.905   0.988  0.00  0.00    -0.082 NA
BRANCH  28  31
ATOM     31  C   UNL     1       7.160   9.372   3.967  0.00  0.00    +0.053 C 
ATOM     32  C   UNL     1       8.218   8.305   4.259  0.00  0.00    +0.015 C 
ATOM     33  C   UNL     1       7.273  10.496   4.998  0.00  0.00    +0.015 C 
ENDBRANCH  28  31
ENDBRANCH  23  27
ENDBRANCH  22  23
ENDBRANCH  21  22
ENDBRANCH   1  21
TORSDOF 6
