REMARK  Name = ZINC35842637
REMARK  19 active torsions:
REMARK  status: ('A' for Active; 'I' for Inactive)
REMARK    1  A    between atoms: C_1  and  C_2
REMARK    2  A    between atoms: C_2  and  C_3
REMARK    3  A    between atoms: C_3  and  C_4
REMARK    4  A    between atoms: C_4  and  N_5
REMARK    5  A    between atoms: N_5  and  C_6
REMARK    6  A    between atoms: N_5  and  C_11
REMARK    7  A    between atoms: C_6  and  C_7
REMARK    8  A    between atoms: C_7  and  C_9
REMARK    9  A    between atoms: C_7  and  O_10
REMARK   10  A    between atoms: C_11  and  C_12
REMARK   11  A    between atoms: N_14  and  C_15
REMARK   12  A    between atoms: N_14  and  C_27
REMARK   13  A    between atoms: C_15  and  C_16
REMARK   14  A    between atoms: C_16  and  C_17
REMARK   15  A    between atoms: C_27  and  C_28
REMARK   16  A    between atoms: C_31  and  C_34
REMARK   17  A    between atoms: C_34  and  C_35
REMARK   18  A    between atoms: C_34  and  C_36
REMARK   19  A    between atoms: C_34  and  C_37
REMARK                            x       y       z     vdW  Elec       q    Type
REMARK                         _______ _______ _______ _____ _____    ______ ____
ROOT
ATOM      1  C   UNL     1      -3.958  -4.302   1.143  0.00  0.00    +0.199 C 
ATOM      2  O   UNL     1      -4.886  -3.522   1.157  0.00  0.00    -0.278 OA
ATOM      3  N   UNL     1      -4.091  -5.519   1.706  0.00  0.00    -0.298 N 
ENDROOT
BRANCH   1   4
ATOM      4  C   UNL     1      -2.654  -3.909   0.496  0.00  0.00    +0.019 C 
BRANCH   4   5
ATOM      5  N   UNL     1      -2.815  -2.619  -0.187  0.00  0.00    +0.387 N 
ATOM      6  H   UNL     1      -3.129  -1.925   0.475  0.00  0.00    -0.081 HD
BRANCH   5   7
ATOM      7  C   UNL     1      -1.528  -2.204  -0.759  0.00  0.00    -0.078 C 
BRANCH   7   8
ATOM      8  C   UNL     1      -1.649  -0.781  -1.309  0.00  0.00    -0.019 C 
BRANCH   8  10
ATOM      9  C   UNL     1      -0.429   1.074  -2.454  0.00  0.00    +0.004 C 
ATOM     10  C   UNL     1      -0.308  -0.349  -1.905  0.00  0.00    -0.005 C 
ENDBRANCH   8  10
ENDBRANCH   7   8
ENDBRANCH   5   7
BRANCH   5  11
ATOM     11  C   UNL     1      -3.808  -2.754  -1.262  0.00  0.00    -0.047 C 
BRANCH  11  12
ATOM     12  C   UNL     1      -3.266  -3.694  -2.341  0.00  0.00    +0.095 C 
ATOM     13  C   UNL     1      -4.196  -3.665  -3.555  0.00  0.00    +0.035 C 
BRANCH  12  14
ATOM     14  O   UNL     1      -3.200  -5.025  -1.824  0.00  0.00    -0.394 OA
ATOM     15  H   UNL     1      -4.053  -5.379  -1.539  0.00  0.00    +0.210 HD
ENDBRANCH  12  14
ENDBRANCH  11  12
ENDBRANCH   5  11
ENDBRANCH   4   5
ENDBRANCH   1   4
BRANCH   3  16
ATOM     16  C   UNL     1      -2.970  -6.461   1.688  0.00  0.00    +0.113 C 
BRANCH  16  17
ATOM     17  C   UNL     1      -2.114  -6.259   2.941  0.00  0.00    +0.056 C 
BRANCH  17  18
ATOM     18  C   UNL     1      -0.960  -7.228   2.923  0.00  0.00    -0.021 A 
ATOM     19  C   UNL     1      -0.919  -8.431   3.516  0.00  0.00    +0.087 A 
ATOM     20  N   UNL     1       0.291  -9.025   3.283  0.00  0.00    -0.360 N 
ATOM     21  H   UNL     1       0.555  -9.899   3.610  0.00  0.00    +0.165 HD
ATOM     22  C   UNL     1       1.079  -8.197   2.514  0.00  0.00    +0.047 A 
ATOM     23  C   UNL     1       0.327  -7.038   2.250  0.00  0.00    +0.003 A 
ATOM     24  C   UNL     1       0.876  -6.013   1.478  0.00  0.00    +0.010 A 
ATOM     25  C   UNL     1       2.142  -6.143   0.979  0.00  0.00    +0.001 A 
ATOM     26  C   UNL     1       2.886  -7.286   1.234  0.00  0.00    +0.002 A 
ATOM     27  C   UNL     1       2.367  -8.306   2.001  0.00  0.00    +0.026 A 
ENDBRANCH  17  18
ENDBRANCH  16  17
ENDBRANCH   3  16
BRANCH   3  28
ATOM     28  C   UNL     1      -5.359  -5.900   2.334  0.00  0.00    +0.142 C 
BRANCH  28  29
ATOM     29  C   UNL     1      -6.251  -6.553   1.311  0.00  0.00    -0.030 A 
ATOM     30  C   UNL     1      -7.117  -5.784   0.557  0.00  0.00    +0.005 A 
ATOM     31  C   UNL     1      -7.935  -6.383  -0.382  0.00  0.00    +0.004 A 
ATOM     32  C   UNL     1      -7.888  -7.752  -0.568  0.00  0.00    -0.042 A 
ATOM     33  C   UNL     1      -7.021  -8.521   0.185  0.00  0.00    +0.004 A 
ATOM     34  C   UNL     1      -6.199  -7.922   1.121  0.00  0.00    +0.005 A 
BRANCH  32  35
ATOM     35  C   UNL     1      -8.781  -8.405  -1.591  0.00  0.00    -0.013 C 
ATOM     36  C   UNL     1      -8.472  -7.833  -2.976  0.00  0.00    +0.015 C 
ATOM     37  C   UNL     1      -8.532  -9.915  -1.595  0.00  0.00    +0.015 C 
ATOM     38  C   UNL     1     -10.244  -8.130  -1.240  0.00  0.00    +0.015 C 
ENDBRANCH  32  35
ENDBRANCH  28  29
ENDBRANCH   3  28
TORSDOF 14
