REMARK  Name = ZINC09417036
REMARK  6 active torsions:
REMARK  status: ('A' for Active; 'I' for Inactive)
REMARK    1  A    between atoms: C_1  and  C_2
REMARK    2  A    between atoms: C_3  and  N_15
REMARK    3  A    between atoms: N_6  and  C_9
REMARK    4  A    between atoms: N_7  and  C_8
REMARK    5  A    between atoms: C_19  and  C_22
REMARK    6  A    between atoms: C_25  and  N_28
REMARK                            x       y       z     vdW  Elec       q    Type
REMARK                         _______ _______ _______ _____ _____    ______ ____
ROOT
ATOM      1  N   UNL     1      12.104   1.708  -1.176  0.00  0.00    -0.287 N 
ATOM      2  C   UNL     1      10.928   1.063  -0.885  0.00  0.00    +0.180 C 
ATOM      3  N   UNL     1      10.079   1.590  -0.034  0.00  0.00    -0.127 NA
ATOM      4  N   UNL     1       8.973   1.069   0.313  0.00  0.00    -0.151 NA
ATOM      5  C   UNL     1       8.633  -0.173   0.223  0.00  0.00    +0.081 C 
ATOM      6  C   UNL     1       9.577  -1.224  -0.308  0.00  0.00    +0.135 C 
ATOM      7  S   UNL     1      10.547  -0.481  -1.655  0.00  0.00    -0.082 S 
ATOM      8  H   UNL     1      12.697   1.351  -1.855  0.00  0.00    +0.154 HD
ENDROOT
BRANCH   1  11
ATOM      9  C   UNL     1      12.842   4.363  -2.524  0.00  0.00    +0.067 C 
ATOM     10  C   UNL     1      12.779   4.074  -1.046  0.00  0.00    +0.059 A 
ATOM     11  C   UNL     1      12.449   2.888  -0.488  0.00  0.00    +0.121 A 
ATOM     12  C   UNL     1      12.522   3.057   0.964  0.00  0.00    +0.293 A 
ATOM     13  O   UNL     1      12.297   2.205   1.805  0.00  0.00    -0.264 OA
ATOM     14  N   UNL     1      12.887   4.335   1.193  0.00  0.00    -0.216 N 
ATOM     15  N   UNL     1      13.044   4.970  -0.044  0.00  0.00    -0.282 N 
ATOM     16  C   UNL     1      13.435   6.369  -0.237  0.00  0.00    +0.171 C 
BRANCH  14  17
ATOM     17  C   UNL     1      13.076   4.923   2.448  0.00  0.00    +0.067 A 
ATOM     18  C   UNL     1      14.224   5.661   2.705  0.00  0.00    +0.028 A 
ATOM     19  C   UNL     1      14.404   6.245   3.944  0.00  0.00    +0.002 A 
ATOM     20  C   UNL     1      13.449   6.085   4.931  0.00  0.00    +0.000 A 
ATOM     21  C   UNL     1      12.307   5.346   4.680  0.00  0.00    +0.002 A 
ATOM     22  C   UNL     1      12.118   4.765   3.441  0.00  0.00    +0.028 A 
ENDBRANCH  14  17
ENDBRANCH   1  11
BRANCH   5  23
ATOM     23  C   UNL     1       7.286  -0.577   0.656  0.00  0.00    -0.001 A 
ATOM     24  C   UNL     1       6.394   0.377   1.157  0.00  0.00    +0.011 A 
ATOM     25  C   UNL     1       5.135  -0.006   1.562  0.00  0.00    +0.024 A 
ATOM     26  C   UNL     1       4.750  -1.339   1.474  0.00  0.00    +0.036 A 
ATOM     27  C   UNL     1       5.635  -2.292   0.982  0.00  0.00    +0.024 A 
ATOM     28  C   UNL     1       6.894  -1.917   0.569  0.00  0.00    +0.011 A 
BRANCH  26  29
ATOM     29  N   UNL     1       3.470  -1.724   1.887  0.00  0.00    -0.271 N 
ATOM     30  C   UNL     1       2.505  -0.828   2.533  0.00  0.00    +0.114 C 
ATOM     31  C   UNL     1       1.137  -1.534   2.405  0.00  0.00    +0.029 C 
ATOM     32  C   UNL     1       1.558  -3.018   2.291  0.00  0.00    +0.098 C 
ATOM     33  C   UNL     1       2.967  -2.962   1.743  0.00  0.00    +0.220 C 
ATOM     34  O   UNL     1       3.558  -3.899   1.248  0.00  0.00    -0.275 OA
ENDBRANCH  26  29
ENDBRANCH   5  23
TORSDOF 4
