REMARK  Name = ZINC35987549
REMARK  8 active torsions:
REMARK  status: ('A' for Active; 'I' for Inactive)
REMARK    1  A    between atoms: C_1  and  C_2
REMARK    2  A    between atoms: C_5  and  C_8
REMARK    3  A    between atoms: C_11  and  C_30
REMARK    4  A    between atoms: C_21  and  C_23
REMARK    5  A    between atoms: C_27  and  C_29
REMARK    6  A    between atoms: N_32  and  C_33
REMARK    7  A    between atoms: C_33  and  C_35
REMARK    8  A    between atoms: C_33  and  C_36
REMARK                            x       y       z     vdW  Elec       q    Type
REMARK                         _______ _______ _______ _____ _____    ______ ____
ROOT
ATOM      1  C   UNL     1       0.384  -4.869   0.416  0.00  0.00    +0.249 C 
ATOM      2  O   UNL     1       0.666  -4.835  -0.766  0.00  0.00    -0.270 OA
ATOM      3  N   UNL     1       0.538  -6.013   1.113  0.00  0.00    -0.255 N 
ATOM      4  C   UNL     1       0.194  -6.242   2.534  0.00  0.00    +0.190 C 
ATOM      5  C   UNL     1       0.059  -7.784   2.609  0.00  0.00    +0.194 C 
ATOM      6  O   UNL     1       1.091  -8.229   1.697  0.00  0.00    -0.353 OA
ATOM      7  C   UNL     1       1.076  -7.287   0.613  0.00  0.00    +0.142 C 
ATOM      8  C   UNL     1       0.186  -7.814  -0.514  0.00  0.00    +0.074 C 
ATOM      9  C   UNL     1       0.152  -6.791  -1.654  0.00  0.00    +0.112 C 
ATOM     10  N   UNL     1       1.531  -6.487  -2.058  0.00  0.00    -0.297 N 
ATOM     11  C   UNL     1       2.488  -6.049  -1.033  0.00  0.00    +0.112 C 
ATOM     12  C   UNL     1       2.502  -7.079   0.101  0.00  0.00    +0.074 C 
ATOM     13  C   UNL     1       1.912  -6.607  -3.346  0.00  0.00    +0.247 C 
ATOM     14  O   UNL     1       3.025  -6.257  -3.686  0.00  0.00    -0.270 OA
ENDROOT
BRANCH   1  19
ATOM     15  C   UNL     1      -1.607  -0.149   3.037  0.00  0.00    +0.044 C 
ATOM     16  C   UNL     1      -1.086  -1.385   2.350  0.00  0.00    -0.050 A 
ATOM     17  C   UNL     1      -1.087  -1.458   0.969  0.00  0.00    +0.004 A 
ATOM     18  C   UNL     1      -0.610  -2.586   0.334  0.00  0.00    +0.013 A 
ATOM     19  C   UNL     1      -0.127  -3.656   1.089  0.00  0.00    +0.037 A 
ATOM     20  C   UNL     1      -0.129  -3.576   2.483  0.00  0.00    +0.013 A 
ATOM     21  C   UNL     1      -0.603  -2.440   3.105  0.00  0.00    +0.004 A 
ENDBRANCH   1  19
BRANCH  13  22
ATOM     22  C   UNL     1       0.975  -7.166  -4.344  0.00  0.00    +0.037 A 
ATOM     23  C   UNL     1      -0.297  -6.612  -4.499  0.00  0.00    +0.013 A 
ATOM     24  C   UNL     1      -1.165  -7.138  -5.433  0.00  0.00    +0.001 A 
ATOM     25  C   UNL     1      -0.778  -8.213  -6.214  0.00  0.00    +0.003 A 
ATOM     26  C   UNL     1       0.481  -8.766  -6.066  0.00  0.00    -0.050 A 
ATOM     27  C   UNL     1       1.361  -8.246  -5.140  0.00  0.00    +0.016 A 
ATOM     28  C   UNL     1       0.893  -9.936  -6.921  0.00  0.00    +0.044 C 
ENDBRANCH  13  22
BRANCH   4  29
ATOM     29  C   UNL     1      -1.110  -5.571   2.883  0.00  0.00    +0.236 C 
ATOM     30  O   UNL     1      -1.950  -5.396   2.026  0.00  0.00    -0.274 OA
ATOM     31  N   UNL     1      -1.341  -5.164   4.147  0.00  0.00    -0.307 N 
ATOM     32  H   UNL     1      -0.669  -5.304   4.832  0.00  0.00    +0.149 HD
BRANCH  31  33
ATOM     33  C   UNL     1      -2.608  -4.512   4.486  0.00  0.00    +0.100 C 
ATOM     34  C   UNL     1      -3.665  -5.576   4.790  0.00  0.00    +0.033 C 
BRANCH  33  35
ATOM     35  C   UNL     1      -2.414  -3.636   5.697  0.00  0.00    -0.027 A 
ATOM     36  C   UNL     1      -1.620  -4.069   6.742  0.00  0.00    +0.005 A 
ATOM     37  C   UNL     1      -1.442  -3.266   7.853  0.00  0.00    +0.000 A 
ATOM     38  C   UNL     1      -2.058  -2.030   7.919  0.00  0.00    +0.000 A 
ATOM     39  C   UNL     1      -2.851  -1.597   6.873  0.00  0.00    +0.000 A 
ATOM     40  C   UNL     1      -3.026  -2.398   5.760  0.00  0.00    +0.005 A 
ENDBRANCH  33  35
ENDBRANCH  31  33
ENDBRANCH   4  29
TORSDOF 5
