REMARK  Name = ZINC24211578
REMARK  16 active torsions:
REMARK  status: ('A' for Active; 'I' for Inactive)
REMARK    1  A    between atoms: C_1  and  C_2
REMARK    2  A    between atoms: C_2  and  C_3
REMARK    3  A    between atoms: C_2  and  C_4
REMARK    4  A    between atoms: C_4  and  C_6
REMARK    5  A    between atoms: C_4  and  N_16
REMARK    6  A    between atoms: C_17  and  C_19
REMARK    7  A    between atoms: C_19  and  N_20
REMARK    8  A    between atoms: N_20  and  C_21
REMARK    9  A    between atoms: N_20  and  C_22
REMARK   10  A    between atoms: C_22  and  C_23
REMARK   11  A    between atoms: C_26  and  O_33
REMARK   12  A    between atoms: C_27  and  O_31
REMARK   13  A    between atoms: C_28  and  O_29
REMARK   14  A    between atoms: O_29  and  C_30
REMARK   15  A    between atoms: O_31  and  C_32
REMARK   16  A    between atoms: O_33  and  C_34
REMARK                            x       y       z     vdW  Elec       q    Type
REMARK                         _______ _______ _______ _____ _____    ______ ____
ROOT
ATOM      1  N   UNL     1      -4.594  -0.204  -0.888  0.00  0.00    -0.310 N 
ATOM      2  C   UNL     1      -5.605  -0.897  -1.447  0.00  0.00    +0.197 C 
ATOM      3  O   UNL     1      -5.710  -2.088  -1.243  0.00  0.00    -0.278 OA
ATOM      4  H   UNL     1      -4.499   0.876  -1.073  0.00  0.00    +0.149 HD
ENDROOT
BRANCH   1   5
ATOM      5  C   UNL     1      -3.620  -0.889  -0.034  0.00  0.00    +0.106 C 
BRANCH   5   6
ATOM      6  C   UNL     1      -2.322  -0.124  -0.038  0.00  0.00    -0.023 A 
ATOM      7  C   UNL     1      -2.336   1.258  -0.003  0.00  0.00    +0.009 A 
ATOM      8  C   UNL     1      -1.148   1.964  -0.012  0.00  0.00    +0.050 A 
ATOM      9  C   UNL     1       0.062   1.287  -0.048  0.00  0.00    +0.162 A 
ATOM     10  C   UNL     1       0.076  -0.102  -0.080  0.00  0.00    +0.162 A 
ATOM     11  C   UNL     1      -1.120  -0.804  -0.076  0.00  0.00    +0.055 A 
ATOM     12  O   UNL     1       1.252  -0.787  -0.115  0.00  0.00    -0.485 OA
ATOM     13  C   UNL     1       2.417  -0.046  -0.497  0.00  0.00    +0.270 C 
ATOM     14  C   UNL     1       2.418   1.279   0.278  0.00  0.00    +0.270 C 
ATOM     15  O   UNL     1       1.224   1.995  -0.057  0.00  0.00    -0.485 OA
ENDBRANCH   5   6
BRANCH   5  17
ATOM     16  C   UNL     1      -4.519   0.438   1.883  0.00  0.00    +0.009 C 
ATOM     17  C   UNL     1      -4.162  -0.968   1.395  0.00  0.00    +0.008 C 
ATOM     18  C   UNL     1      -5.412  -1.849   1.419  0.00  0.00    +0.009 C 
ENDBRANCH   5  17
ENDBRANCH   1   5
BRANCH   2  19
ATOM     19  C   UNL     1      -6.607  -0.193  -2.326  0.00  0.00    +0.019 C 
BRANCH  19  20
ATOM     20  N   UNL     1      -7.601  -1.161  -2.808  0.00  0.00    +0.386 N 
ATOM     21  C   UNL     1      -8.413  -1.679  -1.699  0.00  0.00    -0.095 C 
ATOM     22  H   UNL     1      -7.059  -2.007  -3.255  0.00  0.00    -0.081 HD
BRANCH  20  23
ATOM     23  C   UNL     1      -8.450  -0.568  -3.850  0.00  0.00    -0.039 C 
BRANCH  23  24
ATOM     24  C   UNL     1      -9.286  -1.645  -4.491  0.00  0.00    -0.018 A 
ATOM     25  C   UNL     1      -8.909  -2.178  -5.710  0.00  0.00    +0.009 A 
ATOM     26  C   UNL     1      -9.670  -3.170  -6.299  0.00  0.00    +0.050 A 
ATOM     27  C   UNL     1     -10.820  -3.628  -5.675  0.00  0.00    +0.165 A 
ATOM     28  C   UNL     1     -11.205  -3.092  -4.452  0.00  0.00    +0.204 A 
ATOM     29  C   UNL     1     -10.435  -2.098  -3.860  0.00  0.00    +0.167 A 
BRANCH  29  30
ATOM     30  O   UNL     1     -10.807  -1.569  -2.664  0.00  0.00    -0.491 OA
ATOM     31  C   UNL     1     -11.581  -0.368  -2.698  0.00  0.00    +0.277 C 
ENDBRANCH  29  30
BRANCH  28  32
ATOM     32  O   UNL     1     -12.334  -3.538  -3.836  0.00  0.00    -0.488 OA
ATOM     33  C   UNL     1     -13.571  -2.952  -4.245  0.00  0.00    +0.277 C 
ENDBRANCH  28  32
BRANCH  27  34
ATOM     34  O   UNL     1     -11.570  -4.601  -6.258  0.00  0.00    -0.491 OA
ATOM     35  C   UNL     1     -11.114  -5.106  -7.514  0.00  0.00    +0.277 C 
ENDBRANCH  27  34
ENDBRANCH  23  24
ENDBRANCH  20  23
ENDBRANCH  19  20
ENDBRANCH   2  19
TORSDOF 10
