REMARK  Name = ZINC12250502
REMARK  13 active torsions:
REMARK  status: ('A' for Active; 'I' for Inactive)
REMARK    1  A    between atoms: C_1  and  C_2
REMARK    2  A    between atoms: C_4  and  C_39
REMARK    3  A    between atoms: C_5  and  N_9
REMARK    4  A    between atoms: C_6  and  C_8
REMARK    5  A    between atoms: C_10  and  C_12
REMARK    6  A    between atoms: C_13  and  C_38
REMARK    7  A    between atoms: C_15  and  S_26
REMARK    8  A    between atoms: C_16  and  C_24
REMARK    9  A    between atoms: C_17  and  C_19
REMARK   10  A    between atoms: S_26  and  C_27
REMARK   11  A    between atoms: C_27  and  C_28
REMARK   12  A    between atoms: N_30  and  C_31
REMARK   13  A    between atoms: C_31  and  C_32
REMARK                            x       y       z     vdW  Elec       q    Type
REMARK                         _______ _______ _______ _____ _____    ______ ____
ROOT
ATOM      1  C   UNL     1       0.724  -0.103  -0.237  0.00  0.00    +0.047 C 
ATOM      2  C   UNL     1       1.384  -0.837  -1.147  0.00  0.00    +0.015 C 
ATOM      3  N   UNL     1       1.301  -2.203  -1.146  0.00  0.00    -0.312 N 
ATOM      4  C   UNL     1       0.277  -2.832  -0.475  0.00  0.00    +0.080 C 
ATOM      5  C   UNL     1      -0.439  -2.168   0.471  0.00  0.00    +0.072 C 
ATOM      6  C   UNL     1      -0.133  -0.739   0.820  0.00  0.00    +0.134 C 
ATOM      7  C   UNL     1       2.232  -0.146  -2.184  0.00  0.00    +0.061 C 
ATOM      8  H   UNL     1       2.054  -2.799  -1.682  0.00  0.00    +0.152 HD
ENDROOT
BRANCH   6   9
ATOM      9  C   UNL     1      -1.424   0.029   0.939  0.00  0.00    +0.118 A 
ATOM     10  C   UNL     1      -1.851   0.684   2.034  0.00  0.00    +0.045 A 
ATOM     11  C   UNL     1      -3.101   1.258   1.706  0.00  0.00    +0.041 A 
ATOM     12  C   UNL     1      -3.362   0.920   0.430  0.00  0.00    +0.195 A 
ATOM     13  O   UNL     1      -2.340   0.180  -0.031  0.00  0.00    -0.467 OA
ENDBRANCH   6   9
BRANCH   1  15
ATOM     14  N   UNL     1       0.053   2.021  -1.113  0.00  0.00    -0.281 N 
ATOM     15  C   UNL     1       0.835   1.308  -0.278  0.00  0.00    +0.247 C 
ATOM     16  O   UNL     1       1.639   1.876   0.438  0.00  0.00    -0.270 OA
ATOM     17  H   UNL     1      -0.702   1.512  -1.729  0.00  0.00    +0.155 HD
BRANCH  14  22
ATOM     18  C   UNL     1       0.658   7.651  -1.449  0.00  0.00    +0.044 C 
ATOM     19  C   UNL     1       0.498   6.155  -1.360  0.00  0.00    -0.050 A 
ATOM     20  C   UNL     1       0.591   5.382  -2.502  0.00  0.00    +0.008 A 
ATOM     21  C   UNL     1       0.444   4.011  -2.424  0.00  0.00    -0.029 A 
ATOM     22  C   UNL     1       0.203   3.409  -1.196  0.00  0.00    +0.040 A 
ATOM     23  C   UNL     1       0.105   4.189  -0.051  0.00  0.00    -0.029 A 
ATOM     24  C   UNL     1       0.257   5.559  -0.135  0.00  0.00    +0.008 A 
ATOM     25  C   UNL     1      -0.163   3.541   1.283  0.00  0.00    +0.045 C 
ATOM     26  C   UNL     1       0.546   3.168  -3.669  0.00  0.00    +0.045 C 
ENDBRANCH  14  22
ENDBRANCH   1  15
BRANCH   5  27
ATOM     27  C   UNL     1      -1.505  -2.843   1.148  0.00  0.00    +0.098 C 
ATOM     28  N   UNL     1      -2.351  -3.379   1.685  0.00  0.00    -0.191 NA
ENDBRANCH   5  27
BRANCH   4  29
ATOM     29  S   UNL     1      -0.109  -4.511  -0.846  0.00  0.00    -0.100 S 
BRANCH  29  30
ATOM     30  C   UNL     1       1.126  -4.843  -2.126  0.00  0.00    +0.171 C 
BRANCH  30  31
ATOM     31  C   UNL     1       0.982  -6.263  -2.608  0.00  0.00    +0.224 C 
ATOM     32  O   UNL     1       0.128  -6.981  -2.132  0.00  0.00    -0.275 OA
ATOM     33  N   UNL     1       1.802  -6.736  -3.567  0.00  0.00    -0.311 N 
ATOM     34  H   UNL     1       2.576  -6.085  -3.999  0.00  0.00    +0.149 HD
BRANCH  33  35
ATOM     35  C   UNL     1       1.661  -8.117  -4.035  0.00  0.00    +0.139 C 
BRANCH  35  36
ATOM     36  C   UNL     1       2.690  -8.393  -5.102  0.00  0.00    -0.030 A 
ATOM     37  C   UNL     1       2.387  -8.162  -6.431  0.00  0.00    +0.005 A 
ATOM     38  C   UNL     1       3.332  -8.411  -7.408  0.00  0.00    +0.000 A 
ATOM     39  C   UNL     1       4.577  -8.900  -7.058  0.00  0.00    +0.000 A 
ATOM     40  C   UNL     1       4.878  -9.136  -5.729  0.00  0.00    +0.000 A 
ATOM     41  C   UNL     1       3.934  -8.883  -4.751  0.00  0.00    +0.005 A 
ENDBRANCH  35  36
ENDBRANCH  33  35
ENDBRANCH  30  31
ENDBRANCH  29  30
ENDBRANCH   4  29
TORSDOF 9
