REMARK  Name = ZINC09370645
REMARK  13 active torsions:
REMARK  status: ('A' for Active; 'I' for Inactive)
REMARK    1  A    between atoms: C_1  and  C_2
REMARK    2  A    between atoms: C_2  and  C_3
REMARK    3  A    between atoms: C_3  and  O_4
REMARK    4  A    between atoms: O_4  and  C_5
REMARK    5  A    between atoms: C_8  and  C_13
REMARK    6  A    between atoms: C_10  and  O_11
REMARK    7  A    between atoms: O_11  and  C_12
REMARK    8  A    between atoms: C_16  and  C_27
REMARK    9  A    between atoms: C_22  and  N_26
REMARK   10  A    between atoms: C_23  and  C_24
REMARK   11  A    between atoms: C_27  and  S_28
REMARK   12  A    between atoms: S_28  and  C_29
REMARK   13  A    between atoms: C_32  and  C_35
REMARK                            x       y       z     vdW  Elec       q    Type
REMARK                         _______ _______ _______ _____ _____    ______ ____
ROOT
ATOM      1  C   UNL     1      -6.403  -4.585   0.038  0.00  0.00    +0.101 C 
ATOM      2  C   UNL     1      -7.198  -4.179  -1.177  0.00  0.00    +0.050 A 
ATOM      3  C   UNL     1      -7.023  -4.512  -2.464  0.00  0.00    +0.054 A 
ATOM      4  N   UNL     1      -7.991  -3.896  -3.182  0.00  0.00    -0.277 N 
ATOM      5  H   UNL     1      -8.112  -3.955  -4.143  0.00  0.00    +0.189 HD
ATOM      6  N   UNL     1      -8.789  -3.157  -2.295  0.00  0.00    -0.135 NA
ATOM      7  C   UNL     1      -8.319  -3.324  -1.093  0.00  0.00    +0.245 A 
ATOM      8  O   UNL     1      -8.752  -2.817   0.093  0.00  0.00    -0.421 OA
ATOM      9  C   UNL     1      -8.252  -3.362   1.220  0.00  0.00    +0.201 C 
ATOM     10  C   UNL     1      -7.180  -4.182   1.265  0.00  0.00    +0.098 C 
ENDROOT
BRANCH   1  14
ATOM     11  C   UNL     1      -2.617  -2.596   0.013  0.00  0.00    +0.162 A 
ATOM     12  C   UNL     1      -3.790  -1.859   0.022  0.00  0.00    +0.050 A 
ATOM     13  C   UNL     1      -5.013  -2.505   0.030  0.00  0.00    +0.008 A 
ATOM     14  C   UNL     1      -5.068  -3.886   0.029  0.00  0.00    -0.031 A 
ATOM     15  C   UNL     1      -3.901  -4.628   0.020  0.00  0.00    +0.054 A 
ATOM     16  C   UNL     1      -2.673  -3.987   0.006  0.00  0.00    +0.162 A 
BRANCH  16  17
ATOM     17  O   UNL     1      -1.524  -4.715  -0.009  0.00  0.00    -0.491 OA
ATOM     18  C   UNL     1      -1.658  -6.138  -0.015  0.00  0.00    +0.277 C 
ENDBRANCH  16  17
BRANCH  11  19
ATOM     19  O   UNL     1      -1.414  -1.962   0.005  0.00  0.00    -0.488 OA
BRANCH  19  20
ATOM     20  C   UNL     1      -1.433  -0.534   0.013  0.00  0.00    +0.229 C 
BRANCH  20  22
ATOM     21  C   UNL     1      -0.019   1.526   0.010  0.00  0.00    +0.007 C 
ATOM     22  C   UNL     1       0.002  -0.004   0.002  0.00  0.00    +0.038 C 
ENDBRANCH  20  22
ENDBRANCH  19  20
ENDBRANCH  11  19
ENDBRANCH   1  14
BRANCH   9  23
ATOM     23  N   UNL     1      -8.876  -3.062   2.405  0.00  0.00    -0.328 N 
ATOM     24  H   UNL     1      -9.649  -2.476   2.412  0.00  0.00    +0.145 HD
ATOM     25  H   UNL     1      -8.544  -3.436   3.237  0.00  0.00    +0.145 HD
ENDBRANCH   9  23
BRANCH  10  26
ATOM     26  C   UNL     1      -6.763  -4.693   2.536  0.00  0.00    +0.101 C 
ATOM     27  N   UNL     1      -6.432  -5.098   3.545  0.00  0.00    -0.191 NA
ENDBRANCH  10  26
BRANCH   3  28
ATOM     28  C   UNL     1      -5.944  -5.410  -3.013  0.00  0.00    +0.129 C 
BRANCH  28  29
ATOM     29  S   UNL     1      -6.532  -7.126  -3.021  0.00  0.00    -0.119 S 
BRANCH  29  30
ATOM     30  C   UNL     1      -5.176  -8.038  -3.679  0.00  0.00    +0.008 A 
ATOM     31  C   UNL     1      -4.006  -7.382  -4.041  0.00  0.00    +0.015 A 
ATOM     32  C   UNL     1      -2.945  -8.100  -4.558  0.00  0.00    +0.004 A 
ATOM     33  C   UNL     1      -3.047  -9.471  -4.714  0.00  0.00    -0.050 A 
ATOM     34  C   UNL     1      -4.210 -10.127  -4.356  0.00  0.00    +0.004 A 
ATOM     35  C   UNL     1      -5.272  -9.416  -3.833  0.00  0.00    +0.015 A 
ATOM     36  C   UNL     1      -1.887 -10.251  -5.278  0.00  0.00    +0.044 C 
ENDBRANCH  29  30
ENDBRANCH  28  29
ENDBRANCH   3  28
TORSDOF 10
