REMARK  Name = ZINC09747406
REMARK  9 active torsions:
REMARK  status: ('A' for Active; 'I' for Inactive)
REMARK    1  A    between atoms: C_1  and  N_2
REMARK    2  A    between atoms: N_2  and  C_3
REMARK    3  A    between atoms: N_2  and  C_4
REMARK    4  A    between atoms: C_4  and  C_5
REMARK    5  A    between atoms: C_5  and  N_6
REMARK    6  A    between atoms: C_9  and  S_13
REMARK    7  A    between atoms: S_13  and  C_14
REMARK    8  A    between atoms: C_14  and  C_15
REMARK    9  A    between atoms: N_17  and  C_18
REMARK                            x       y       z     vdW  Elec       q    Type
REMARK                         _______ _______ _______ _____ _____    ______ ____
ROOT
ATOM      1  N   UNL     1      -2.752  -2.496  -0.105  0.00  0.00    -0.298 N 
ATOM      2  C   UNL     1      -3.340  -2.833   1.085  0.00  0.00    +0.029 A 
ATOM      3  C   UNL     1      -4.602  -3.299   1.081  0.00  0.00    +0.004 A 
ATOM      4  C   UNL     1      -5.274  -3.439  -0.159  0.00  0.00    +0.108 A 
ATOM      5  N   UNL     1      -4.663  -3.102  -1.285  0.00  0.00    -0.186 NA
ATOM      6  C   UNL     1      -3.418  -2.629  -1.263  0.00  0.00    +0.350 A 
ATOM      7  O   UNL     1      -2.875  -2.317  -2.310  0.00  0.00    -0.244 OA
ATOM      8  C   UNL     1      -5.343  -3.675   2.335  0.00  0.00    +0.039 C 
ATOM      9  C   UNL     1      -4.368  -3.880   3.494  0.00  0.00    +0.005 C 
ATOM     10  C   UNL     1      -3.446  -2.658   3.570  0.00  0.00    +0.006 C 
ATOM     11  C   UNL     1      -2.533  -2.667   2.345  0.00  0.00    +0.054 C 
ENDROOT
BRANCH   1  12
ATOM     12  C   UNL     1      -1.381  -1.979  -0.114  0.00  0.00    +0.108 C 
BRANCH  12  13
ATOM     13  C   UNL     1      -1.409  -0.455   0.020  0.00  0.00    -0.058 C 
BRANCH  13  15
ATOM     14  C   UNL     1      -0.065   1.532   0.018  0.00  0.00    -0.097 C 
ATOM     15  N   UNL     1      -0.035   0.063   0.011  0.00  0.00    +0.377 N 
ATOM     16  C   UNL     1       0.678  -0.418   1.202  0.00  0.00    -0.097 C 
ATOM     17  H   UNL     1       0.441  -0.260  -0.819  0.00  0.00    -0.083 HD
ENDBRANCH  13  15
ENDBRANCH  12  13
ENDBRANCH   1  12
BRANCH   4  18
ATOM     18  S   UNL     1      -6.923  -4.059  -0.202  0.00  0.00    -0.096 S 
BRANCH  18  19
ATOM     19  C   UNL     1      -7.347  -4.056  -1.966  0.00  0.00    +0.171 C 
BRANCH  19  20
ATOM     20  C   UNL     1      -8.751  -4.571  -2.146  0.00  0.00    +0.227 C 
ATOM     21  O   UNL     1      -9.402  -4.908  -1.179  0.00  0.00    -0.275 OA
ATOM     22  N   UNL     1      -9.284  -4.658  -3.381  0.00  0.00    -0.284 N 
ATOM     23  H   UNL     1      -8.789  -4.328  -4.147  0.00  0.00    +0.155 HD
BRANCH  22  24
ATOM     24  C   UNL     1     -10.549  -5.223  -3.557  0.00  0.00    +0.041 A 
ATOM     25  C   UNL     1     -11.527  -5.049  -2.603  0.00  0.00    +0.024 A 
ATOM     26  C   UNL     1     -12.791  -5.608  -2.769  0.00  0.00    +0.002 A 
ATOM     27  C   UNL     1     -13.096  -6.340  -3.876  0.00  0.00    +0.008 A 
ATOM     28  C   UNL     1     -12.126  -6.541  -4.873  0.00  0.00    -0.016 A 
ATOM     29  C   UNL     1     -10.838  -5.973  -4.717  0.00  0.00    +0.003 A 
ATOM     30  C   UNL     1      -9.871  -6.170  -5.716  0.00  0.00    +0.010 A 
ATOM     31  C   UNL     1     -10.185  -6.899  -6.823  0.00  0.00    +0.001 A 
ATOM     32  C   UNL     1     -11.454  -7.454  -6.979  0.00  0.00    +0.001 A 
ATOM     33  C   UNL     1     -12.412  -7.292  -6.026  0.00  0.00    +0.008 A 
ENDBRANCH  22  24
ENDBRANCH  19  20
ENDBRANCH  18  19
ENDBRANCH   4  18
TORSDOF 7
