REMARK  Name = ZINC14467997
REMARK  7 active torsions:
REMARK  status: ('A' for Active; 'I' for Inactive)
REMARK    1  A    between atoms: C_1  and  C_2
REMARK    2  A    between atoms: C_2  and  C_3
REMARK    3  A    between atoms: C_3  and  C_5
REMARK    4  A    between atoms: C_3  and  N_6
REMARK    5  A    between atoms: C_7  and  C_9
REMARK    6  A    between atoms: C_22  and  C_25
REMARK    7  A    between atoms: C_30  and  O_31
REMARK                            x       y       z     vdW  Elec       q    Type
REMARK                         _______ _______ _______ _____ _____    ______ ____
ROOT
ATOM      1  C   UNL     1       0.002  -0.004   0.002  0.00  0.00    +0.037 A 
ATOM      2  C   UNL     1       1.226  -0.679  -0.011  0.00  0.00    +0.015 A 
ATOM      3  C   UNL     1       2.403   0.031  -0.010  0.00  0.00    +0.024 A 
ATOM      4  C   UNL     1       2.389   1.424   0.001  0.00  0.00    +0.031 A 
ATOM      5  C   UNL     1       1.160   2.100   0.002  0.00  0.00    -0.019 A 
ATOM      6  C   UNL     1      -0.017   1.393   0.010  0.00  0.00    +0.019 A 
ATOM      7  C   UNL     1       1.196   3.579  -0.026  0.00  0.00    +0.049 C 
ATOM      8  C   UNL     1       0.094   4.432   0.514  0.00  0.00    -0.023 C 
ATOM      9  C   UNL     1       0.609   5.554   1.001  0.00  0.00    -0.030 C 
ATOM     10  C   UNL     1       2.130   5.547   0.834  0.00  0.00    +0.033 C 
ATOM     11  C   UNL     1       2.430   4.043   0.805  0.00  0.00    +0.029 C 
ATOM     12  C   UNL     1       3.643   3.592   0.012  0.00  0.00    +0.109 C 
ATOM     13  N   UNL     1       3.600   2.114   0.022  0.00  0.00    -0.336 N 
ATOM     14  H   UNL     1       4.432   1.615   0.043  0.00  0.00    +0.147 HD
ENDROOT
BRANCH  12  15
ATOM     15  C   UNL     1       3.561   4.106  -1.402  0.00  0.00    +0.017 A 
ATOM     16  C   UNL     1       2.968   3.334  -2.384  0.00  0.00    +0.029 A 
ATOM     17  C   UNL     1       2.887   3.807  -3.682  0.00  0.00    +0.043 A 
ATOM     18  C   UNL     1       3.408   5.048  -4.002  0.00  0.00    +0.043 A 
ATOM     19  C   UNL     1       4.007   5.821  -3.024  0.00  0.00    +0.084 A 
ATOM     20  C   UNL     1       4.084   5.350  -1.720  0.00  0.00    +0.140 A 
ATOM     21 CL   UNL     1       4.661   7.378  -3.426  0.00  0.00    -0.080 Cl
ATOM     22 CL   UNL     1       2.136   2.839  -4.912  0.00  0.00    -0.083 Cl
BRANCH  20  23
ATOM     23  O   UNL     1       4.672   6.107  -0.757  0.00  0.00    -0.505 OA
ATOM     24  H   UNL     1       5.621   5.952  -0.659  0.00  0.00    +0.292 HD
ENDBRANCH  20  23
ENDBRANCH  12  15
BRANCH   1  26
ATOM     25  N   UNL     1      -1.241  -2.110  -0.000  0.00  0.00    -0.309 N 
ATOM     26  C   UNL     1      -1.263  -0.763   0.007  0.00  0.00    +0.244 C 
ATOM     27  O   UNL     1      -2.326  -0.172   0.018  0.00  0.00    -0.270 OA
ATOM     28  H   UNL     1      -0.393  -2.581  -0.009  0.00  0.00    +0.149 HD
BRANCH  25  29
ATOM     29  C   UNL     1      -2.497  -2.864   0.005  0.00  0.00    +0.070 C 
ATOM     30  C   UNL     1      -3.010  -3.010  -1.429  0.00  0.00    +0.028 C 
BRANCH  29  32
ATOM     31  C   UNL     1      -1.866  -4.108   2.077  0.00  0.00    +0.005 C 
ATOM     32  C   UNL     1      -2.258  -4.250   0.605  0.00  0.00    +0.018 C 
ENDBRANCH  29  32
ENDBRANCH  25  29
ENDBRANCH   1  26
TORSDOF 5
