REMARK  Name = ZINC39466073
REMARK  8 active torsions:
REMARK  status: ('A' for Active; 'I' for Inactive)
REMARK    1  A    between atoms: C_1  and  C_2
REMARK    2  A    between atoms: C_2  and  C_3
REMARK    3  A    between atoms: C_2  and  S_4
REMARK    4  A    between atoms: S_4  and  P_7
REMARK    5  A    between atoms: C_15  and  C_30
REMARK    6  A    between atoms: C_16  and  C_23
REMARK    7  A    between atoms: C_28  and  O_29
REMARK    8  A    between atoms: C_35  and  O_36
REMARK                            x       y       z     vdW  Elec       q    Type
REMARK                         _______ _______ _______ _____ _____    ______ ____
ROOT
ATOM      1  P   UNL     1      -1.503  -2.736   0.180  0.00  0.00    +0.419 P 
ATOM      2  O   UNL     1      -0.777  -3.275  -0.992  0.00  0.00    -0.246 OA
ATOM      3  N   UNL     1      -2.993  -3.441   0.307  0.00  0.00    -0.161 NA
ATOM      4  N   UNL     1      -3.591  -3.400   1.548  0.00  0.00    -0.224 NA
ATOM      5  C   UNL     1      -4.892  -4.083   1.496  0.00  0.00    +0.108 C 
ATOM      6  C   UNL     1      -5.677  -3.740   2.762  0.00  0.00    +0.052 C 
ATOM      7  C   UNL     1      -4.827  -4.016   3.977  0.00  0.00    -0.041 A 
ATOM      8  C   UNL     1      -5.457  -4.152   5.203  0.00  0.00    +0.013 A 
ATOM      9  C   UNL     1      -4.715  -4.407   6.351  0.00  0.00    -0.006 A 
ATOM     10  C   UNL     1      -3.318  -4.525   6.256  0.00  0.00    -0.006 A 
ATOM     11  C   UNL     1      -2.702  -4.386   5.019  0.00  0.00    +0.014 A 
ATOM     12  C   UNL     1      -3.454  -4.132   3.882  0.00  0.00    -0.023 A 
ATOM     13  C   UNL     1      -2.728  -3.993   2.569  0.00  0.00    +0.129 C 
ATOM     14  C   UNL     1      -1.468  -3.150   2.783  0.00  0.00    +0.195 C 
ATOM     15  O   UNL     1      -0.718  -3.121   1.552  0.00  0.00    -0.298 OA
ATOM     16  H   UNL     1      -3.425  -3.862  -0.453  0.00  0.00    +0.152 HD
ENDROOT
BRANCH  10  17
ATOM     17  C   UNL     1      -2.509  -4.795   7.468  0.00  0.00    +0.024 A 
ATOM     18  C   UNL     1      -1.605  -3.842   7.933  0.00  0.00    +0.012 A 
ATOM     19  C   UNL     1      -0.853  -4.099   9.061  0.00  0.00    +0.001 A 
ATOM     20  C   UNL     1      -0.994  -5.301   9.734  0.00  0.00    +0.004 A 
ATOM     21  C   UNL     1      -1.887  -6.253   9.281  0.00  0.00    +0.046 A 
ATOM     22  C   UNL     1      -2.653  -6.006   8.153  0.00  0.00    +0.125 A 
BRANCH  22  23
ATOM     23  O   UNL     1      -3.536  -6.939   7.711  0.00  0.00    -0.506 OA
ATOM     24  H   UNL     1      -3.160  -7.569   7.080  0.00  0.00    +0.292 HD
ENDBRANCH  22  23
ENDBRANCH  10  17
BRANCH   9  25
ATOM     25  C   UNL     1      -5.391  -4.553   7.661  0.00  0.00    +0.024 A 
ATOM     26  C   UNL     1      -6.259  -5.619   7.886  0.00  0.00    +0.012 A 
ATOM     27  C   UNL     1      -6.886  -5.751   9.109  0.00  0.00    +0.001 A 
ATOM     28  C   UNL     1      -6.656  -4.826  10.113  0.00  0.00    +0.004 A 
ATOM     29  C   UNL     1      -5.797  -3.765   9.900  0.00  0.00    +0.046 A 
ATOM     30  C   UNL     1      -5.157  -3.623   8.680  0.00  0.00    +0.125 A 
BRANCH  30  31
ATOM     31  O   UNL     1      -4.308  -2.583   8.472  0.00  0.00    -0.506 OA
ATOM     32  H   UNL     1      -4.736  -1.791   8.118  0.00  0.00    +0.292 HD
ENDBRANCH  30  31
ENDBRANCH   9  25
BRANCH   1  33
ATOM     33  S   UNL     1      -1.700  -0.632   0.015  0.00  0.00    +0.058 S 
ATOM     34  O   UNL     1      -2.359  -0.234   1.209  0.00  0.00    -0.164 OA
ATOM     35  O   UNL     1      -2.308  -0.423  -1.252  0.00  0.00    -0.164 OA
BRANCH  33  37
ATOM     36  C   UNL     1      -0.019   1.526   0.010  0.00  0.00    +0.032 C 
ATOM     37  C   UNL     1       0.002  -0.004   0.002  0.00  0.00    +0.136 C 
ATOM     38  C   UNL     1       0.742  -0.511   1.242  0.00  0.00    +0.032 C 
ENDBRANCH  33  37
ENDBRANCH   1  33
TORSDOF 6
