REMARK  Name = ZINC39352980
REMARK  8 active torsions:
REMARK  status: ('A' for Active; 'I' for Inactive)
REMARK    1  A    between atoms: C_1  and  C_2
REMARK    2  A    between atoms: C_2  and  C_4
REMARK    3  A    between atoms: C_2  and  N_12
REMARK    4  A    between atoms: C_4  and  C_5
REMARK    5  A    between atoms: C_5  and  C_6
REMARK    6  A    between atoms: C_13  and  C_15
REMARK    7  A    between atoms: C_20  and  O_25
REMARK    8  A    between atoms: O_25  and  C_26
REMARK                            x       y       z     vdW  Elec       q    Type
REMARK                         _______ _______ _______ _____ _____    ______ ____
ROOT
ATOM      1  C   UNL     1       0.706  -1.077   3.621  0.00  0.00    +0.190 C 
ATOM      2  C   UNL     1       0.796  -2.584   3.536  0.00  0.00    +0.016 C 
ATOM      3  C   UNL     1       0.188  -3.059   4.647  0.00  0.00    -0.000 A 
ATOM      4  C   UNL     1      -0.052  -4.417   5.146  0.00  0.00    +0.056 A 
ATOM      5  C   UNL     1      -0.704  -4.590   6.322  0.00  0.00    +0.129 A 
ATOM      6  C   UNL     1      -1.165  -3.507   7.091  0.00  0.00    +0.048 A 
ATOM      7  C   UNL     1      -0.991  -2.222   6.715  0.00  0.00    +0.029 A 
ATOM      8  C   UNL     1      -0.297  -1.919   5.458  0.00  0.00    +0.043 A 
ATOM      9  N   UNL     1      -0.001  -0.784   4.873  0.00  0.00    -0.370 N 
ATOM     10  H   UNL     1      -0.213   0.100   5.210  0.00  0.00    +0.161 HD
ENDROOT
BRANCH   1  12
ATOM     11  N   UNL     1       0.538  -0.372   1.256  0.00  0.00    -0.311 N 
ATOM     12  C   UNL     1      -0.070  -0.536   2.447  0.00  0.00    +0.240 C 
ATOM     13  O   UNL     1      -1.241  -0.249   2.576  0.00  0.00    -0.273 OA
ATOM     14  H   UNL     1       1.474  -0.601   1.153  0.00  0.00    +0.149 HD
BRANCH  11  16
ATOM     15  C   UNL     1      -0.213   1.683   0.163  0.00  0.00    +0.028 C 
ATOM     16  C   UNL     1      -0.217   0.154   0.115  0.00  0.00    +0.070 C 
BRANCH  16  17
ATOM     17  C   UNL     1       0.434  -0.317  -1.187  0.00  0.00    +0.026 C 
BRANCH  17  18
ATOM     18  C   UNL     1       0.319  -1.839  -1.293  0.00  0.00    +0.037 C 
BRANCH  18  19
ATOM     19  C   UNL     1       0.959  -2.303  -2.576  0.00  0.00    -0.047 A 
ATOM     20  C   UNL     1       0.206  -2.392  -3.732  0.00  0.00    +0.003 A 
ATOM     21  C   UNL     1       0.794  -2.818  -4.908  0.00  0.00    +0.000 A 
ATOM     22  C   UNL     1       2.134  -3.154  -4.929  0.00  0.00    +0.000 A 
ATOM     23  C   UNL     1       2.888  -3.064  -3.774  0.00  0.00    +0.000 A 
ATOM     24  C   UNL     1       2.301  -2.634  -2.598  0.00  0.00    +0.003 A 
ENDBRANCH  18  19
ENDBRANCH  17  18
ENDBRANCH  16  17
ENDBRANCH  11  16
ENDBRANCH   1  12
BRANCH   5  25
ATOM     25  O   UNL     1      -0.921  -5.854   6.772  0.00  0.00    -0.456 OA
BRANCH  25  26
ATOM     26  C   UNL     1      -2.203  -6.305   6.816  0.00  0.00    +0.132 A 
ATOM     27  C   UNL     1      -2.486  -7.535   7.391  0.00  0.00    +0.050 A 
ATOM     28  C   UNL     1      -3.788  -7.996   7.436  0.00  0.00    +0.053 A 
ATOM     29  C   UNL     1      -4.814  -7.230   6.907  0.00  0.00    +0.166 A 
ATOM     30  C   UNL     1      -4.533  -5.994   6.330  0.00  0.00    +0.170 A 
ATOM     31  C   UNL     1      -3.228  -5.532   6.290  0.00  0.00    +0.095 A 
ATOM     32  O   UNL     1      -5.701  -5.443   5.888  0.00  0.00    -0.452 OA
ATOM     33  C   UNL     1      -6.643  -6.530   5.833  0.00  0.00    +0.466 C 
ATOM     34  O   UNL     1      -6.160  -7.452   6.827  0.00  0.00    -0.453 OA
ENDBRANCH  25  26
ENDBRANCH   5  25
TORSDOF 7
