REMARK  Name = ZINC09271973
REMARK  12 active torsions:
REMARK  status: ('A' for Active; 'I' for Inactive)
REMARK    1  A    between atoms: C_1  and  C_2
REMARK    2  A    between atoms: C_2  and  C_3
REMARK    3  A    between atoms: C_2  and  C_4
REMARK    4  A    between atoms: C_7  and  C_10
REMARK    5  A    between atoms: C_12  and  N_33
REMARK    6  A    between atoms: C_14  and  C_31
REMARK    7  A    between atoms: C_14  and  C_32
REMARK    8  A    between atoms: C_15  and  N_28
REMARK    9  A    between atoms: C_17  and  C_19
REMARK   10  A    between atoms: C_22  and  C_25
REMARK   11  A    between atoms: C_25  and  C_26
REMARK   12  A    between atoms: C_25  and  C_27
REMARK                            x       y       z     vdW  Elec       q    Type
REMARK                         _______ _______ _______ _____ _____    ______ ____
ROOT
ATOM      1  C   UNL     1      -1.000   0.214  -1.418  0.00  0.00    -0.010 C 
ATOM      2  C   UNL     1      -0.293   1.032  -2.501  0.00  0.00    +0.168 C 
ATOM      3  C   UNL     1       0.206   2.346  -1.896  0.00  0.00    +0.017 C 
ATOM      4  C   UNL     1       1.140   2.037  -0.723  0.00  0.00    +0.168 C 
ATOM      5  C   UNL     1       0.392   1.190   0.309  0.00  0.00    -0.010 C 
ATOM      6  C   UNL     1      -0.986   3.166  -1.398  0.00  0.00    +0.015 C 
ATOM      7  C   UNL     1       0.967   3.142  -2.959  0.00  0.00    +0.015 C 
ATOM      8  N   UNL     1      -0.061  -0.068  -0.315  0.00  0.00    +0.391 N 
ATOM      9  H   UNL     1       0.751  -0.575  -0.684  0.00  0.00    -0.084 HD
ATOM     10  H   UNL     1      -0.533  -0.645   0.391  0.00  0.00    -0.084 HD
ENDROOT
BRANCH   1  14
ATOM     11  C   UNL     1      -4.348   2.411   0.070  0.00  0.00    -0.045 A 
ATOM     12  C   UNL     1      -4.224   2.174  -1.286  0.00  0.00    +0.004 A 
ATOM     13  C   UNL     1      -3.141   1.463  -1.768  0.00  0.00    +0.002 A 
ATOM     14  C   UNL     1      -2.181   0.989  -0.893  0.00  0.00    -0.059 A 
ATOM     15  C   UNL     1      -2.307   1.222   0.464  0.00  0.00    +0.002 A 
ATOM     16  C   UNL     1      -3.388   1.938   0.945  0.00  0.00    +0.004 A 
BRANCH  11  18
ATOM     17  C   UNL     1      -6.318   2.313   1.572  0.00  0.00    +0.012 C 
ATOM     18  C   UNL     1      -5.529   3.186   0.595  0.00  0.00    +0.013 C 
ATOM     19  C   UNL     1      -5.035   4.442   1.317  0.00  0.00    +0.012 C 
ENDBRANCH  11  18
ENDBRANCH   1  14
BRANCH   5  20
ATOM     20  C   UNL     1       1.314   0.866   1.456  0.00  0.00    -0.059 A 
ATOM     21  C   UNL     1       2.231  -0.162   1.338  0.00  0.00    +0.002 A 
ATOM     22  C   UNL     1       3.079  -0.456   2.389  0.00  0.00    +0.004 A 
ATOM     23  C   UNL     1       3.004   0.271   3.562  0.00  0.00    -0.045 A 
ATOM     24  C   UNL     1       2.084   1.295   3.683  0.00  0.00    +0.004 A 
ATOM     25  C   UNL     1       1.238   1.593   2.630  0.00  0.00    +0.002 A 
BRANCH  23  26
ATOM     26  C   UNL     1       3.925  -0.054   4.710  0.00  0.00    +0.013 C 
ATOM     27  C   UNL     1       3.695  -1.500   5.155  0.00  0.00    +0.012 C 
ATOM     28  C   UNL     1       5.378   0.117   4.262  0.00  0.00    +0.012 C 
ENDBRANCH  23  26
ENDBRANCH   5  20
BRANCH   4  29
ATOM     29  N   UNL     1       2.308   1.297  -1.209  0.00  0.00    +0.025 N 
ATOM     30  O   UNL     1       2.160   0.222  -1.763  0.00  0.00    -0.131 OA
ATOM     31  O   UNL     1       3.426   1.757  -1.059  0.00  0.00    -0.131 OA
ENDBRANCH   4  29
BRANCH   2  32
ATOM     32  N   UNL     1      -1.232   1.319  -3.588  0.00  0.00    +0.025 N 
ATOM     33  O   UNL     1      -1.831   0.409  -4.132  0.00  0.00    -0.131 OA
ATOM     34  O   UNL     1      -1.413   2.469  -3.948  0.00  0.00    -0.131 OA
ENDBRANCH   2  32
TORSDOF 6
