REMARK  Name = ZINC09083446
REMARK  13 active torsions:
REMARK  status: ('A' for Active; 'I' for Inactive)
REMARK    1  A    between atoms: C_1  and  C_2
REMARK    2  A    between atoms: C_2  and  C_4
REMARK    3  A    between atoms: C_2  and  O_31
REMARK    4  A    between atoms: C_4  and  C_6
REMARK    5  A    between atoms: C_4  and  N_19
REMARK    6  A    between atoms: C_6  and  O_8
REMARK    7  A    between atoms: O_8  and  C_9
REMARK    8  A    between atoms: C_9  and  C_10
REMARK    9  A    between atoms: N_15  and  C_16
REMARK   10  A    between atoms: C_16  and  C_17
REMARK   11  A    between atoms: C_16  and  C_18
REMARK   12  A    between atoms: N_19  and  S_20
REMARK   13  A    between atoms: S_20  and  C_23
REMARK                            x       y       z     vdW  Elec       q    Type
REMARK                         _______ _______ _______ _____ _____    ______ ____
ROOT
ATOM      1  C   UNL     1       0.795  -0.582   1.206  0.00  0.00    +0.213 C 
ENDROOT
BRANCH   1   3
ATOM      2  C   UNL     1      -0.334   1.329   0.061  0.00  0.00    +0.040 C 
ATOM      3  C   UNL     1      -0.078  -0.178   0.017  0.00  0.00    +0.141 C 
BRANCH   3   4
ATOM      4  O   UNL     1       0.592  -0.512  -1.201  0.00  0.00    -0.390 OA
ATOM      5  H   UNL     1       0.787  -1.454  -1.297  0.00  0.00    +0.210 HD
ENDBRANCH   3   4
ENDBRANCH   1   3
BRANCH   1   6
ATOM      6  C   UNL     1       0.929  -2.083   1.245  0.00  0.00    +0.329 C 
ATOM      7  O   UNL     1       0.545  -2.699   2.211  0.00  0.00    -0.249 OA
BRANCH   6   8
ATOM      8  O   UNL     1       1.474  -2.735   0.206  0.00  0.00    -0.454 OA
BRANCH   8   9
ATOM      9  C   UNL     1       1.568  -4.157   0.310  0.00  0.00    +0.328 C 
BRANCH   9  10
ATOM     10  C   UNL     1       2.201  -4.712  -0.940  0.00  0.00    +0.258 C 
ATOM     11  O   UNL     1       2.538  -3.963  -1.832  0.00  0.00    -0.272 OA
ATOM     12  N   UNL     1       2.393  -6.040  -1.066  0.00  0.00    -0.237 N 
ATOM     13  C   UNL     1       2.959  -6.536  -2.184  0.00  0.00    +0.306 C 
ATOM     14  O   UNL     1       3.296  -5.785  -3.079  0.00  0.00    -0.252 OA
ATOM     15  N   UNL     1       3.151  -7.864  -2.310  0.00  0.00    -0.297 N 
ATOM     16  H   UNL     1       2.124  -6.639  -0.352  0.00  0.00    +0.159 HD
ATOM     17  H   UNL     1       2.881  -8.463  -1.596  0.00  0.00    +0.151 HD
BRANCH  15  18
ATOM     18  C   UNL     1       3.766  -8.403  -3.526  0.00  0.00    +0.068 C 
ATOM     19  C   UNL     1       5.289  -8.344  -3.396  0.00  0.00    +0.027 C 
ATOM     20  C   UNL     1       3.326  -9.856  -3.719  0.00  0.00    +0.027 C 
ENDBRANCH  15  18
ENDBRANCH   9  10
ENDBRANCH   8   9
ENDBRANCH   6   8
ENDBRANCH   1   6
BRANCH   1  21
ATOM     21  N   UNL     1       0.175  -0.115   2.448  0.00  0.00    -0.174 NA
ATOM     22  H   UNL     1      -0.791  -0.098   2.531  0.00  0.00    +0.149 HD
BRANCH  21  23
ATOM     23  S   UNL     1       1.124   0.384   3.711  0.00  0.00    +0.059 S 
ATOM     24  O   UNL     1       0.240   0.794   4.745  0.00  0.00    -0.153 OA
ATOM     25  O   UNL     1       2.106  -0.624   3.904  0.00  0.00    -0.153 OA
BRANCH  23  26
ATOM     26  C   UNL     1       1.982   1.828   3.179  0.00  0.00    +0.107 A 
ATOM     27  C   UNL     1       3.177   1.709   2.494  0.00  0.00    +0.030 A 
ATOM     28  C   UNL     1       3.851   2.841   2.077  0.00  0.00    +0.023 A 
ATOM     29  C   UNL     1       3.330   4.094   2.344  0.00  0.00    +0.059 A 
ATOM     30  C   UNL     1       2.132   4.214   3.028  0.00  0.00    +0.061 A 
ATOM     31  C   UNL     1       1.456   3.079   3.441  0.00  0.00    +0.050 A 
ATOM     32 CL   UNL     1       1.477   5.786   3.364  0.00  0.00    -0.082 Cl
ATOM     33 CL   UNL     1       4.176   5.516   1.820  0.00  0.00    -0.082 Cl
ENDBRANCH  23  26
ENDBRANCH  21  23
ENDBRANCH   1  21
TORSDOF 10
