REMARK  Name = ZINC13831095
REMARK  4 active torsions:
REMARK  status: ('A' for Active; 'I' for Inactive)
REMARK    1  A    between atoms: C_6  and  C_7
REMARK    2  A    between atoms: C_10  and  C_24
REMARK    3  A    between atoms: C_13  and  C_15
REMARK    4  A    between atoms: C_29  and  O_30
REMARK                            x       y       z     vdW  Elec       q    Type
REMARK                         _______ _______ _______ _____ _____    ______ ____
ROOT
ATOM      1  C   UNL     1      -1.293  -0.775   0.010  0.00  0.00    +0.081 C 
ATOM      2  N   UNL     1      -1.084  -2.063   0.680  0.00  0.00    +0.401 N 
ATOM      3  C   UNL     1      -2.383  -2.738   0.834  0.00  0.00    -0.028 C 
ATOM      4  C   UNL     1      -3.215  -1.952   1.852  0.00  0.00    +0.044 C 
ATOM      5  C   UNL     1      -3.171  -0.488   1.509  0.00  0.00    +0.040 C 
ATOM      6  N   UNL     1      -2.312   0.008   0.699  0.00  0.00    -0.299 NA
ATOM      7  H   UNL     1      -0.469  -2.637   0.124  0.00  0.00    -0.081 HD
ATOM      8  H   UNL     1      -0.674  -1.908   1.589  0.00  0.00    -0.081 HD
ENDROOT
BRANCH   5   9
ATOM      9  C   UNL     1      -4.157   0.414   2.133  0.00  0.00    -0.001 A 
ATOM     10  C   UNL     1      -5.103  -0.094   3.027  0.00  0.00    +0.013 A 
ATOM     11  C   UNL     1      -6.023   0.751   3.609  0.00  0.00    +0.050 A 
ATOM     12  C   UNL     1      -6.014   2.106   3.311  0.00  0.00    +0.166 A 
ATOM     13  C   UNL     1      -5.072   2.620   2.419  0.00  0.00    +0.167 A 
ATOM     14  C   UNL     1      -4.143   1.779   1.836  0.00  0.00    +0.059 A 
ATOM     15  O   UNL     1      -5.274   3.965   2.298  0.00  0.00    -0.453 OA
ATOM     16  C   UNL     1      -6.601   4.200   2.804  0.00  0.00    +0.466 C 
ATOM     17  O   UNL     1      -6.803   3.130   3.746  0.00  0.00    -0.453 OA
ENDBRANCH   5   9
BRANCH   1  23
ATOM     18  C   UNL     1      -0.017   1.378   0.010  0.00  0.00    +0.006 A 
ATOM     19  C   UNL     1       1.170   2.086   0.002  0.00  0.00    +0.040 A 
ATOM     20  C   UNL     1       2.379   1.411  -0.013  0.00  0.00    +0.137 A 
ATOM     21  C   UNL     1       2.397   0.026  -0.021  0.00  0.00    +0.053 A 
ATOM     22  C   UNL     1       1.208  -0.680  -0.013  0.00  0.00    +0.022 A 
ATOM     23  C   UNL     1       0.002  -0.004   0.002  0.00  0.00    -0.039 A 
ATOM     24 BR   UNL     1       4.046  -0.899  -0.042  0.00  0.00    -0.047 Br
ATOM     25  F   UNL     1       3.539   2.103  -0.021  0.00  0.00    -0.204 F 
ENDBRANCH   1  23
BRANCH   3  26
ATOM     26  C   UNL     1      -2.170  -4.145   1.329  0.00  0.00    -0.018 A 
ATOM     27  C   UNL     1      -1.031  -4.460   2.046  0.00  0.00    +0.025 A 
ATOM     28  C   UNL     1      -0.834  -5.752   2.500  0.00  0.00    +0.041 A 
ATOM     29  C   UNL     1      -1.777  -6.731   2.238  0.00  0.00    +0.023 A 
ATOM     30  C   UNL     1      -2.916  -6.419   1.522  0.00  0.00    +0.047 A 
ATOM     31  C   UNL     1      -3.118  -5.123   1.070  0.00  0.00    +0.119 A 
ATOM     32 CL   UNL     1       0.597  -6.146   3.400  0.00  0.00    -0.084 Cl
BRANCH  31  33
ATOM     33  O   UNL     1      -4.242  -4.814   0.370  0.00  0.00    -0.507 OA
ATOM     34  H   UNL     1      -4.153  -4.926  -0.586  0.00  0.00    +0.292 HD
ENDBRANCH  31  33
ENDBRANCH   3  26
TORSDOF 4
