REMARK  Name = ZINC36001570
REMARK  12 active torsions:
REMARK  status: ('A' for Active; 'I' for Inactive)
REMARK    1  A    between atoms: C_1  and  C_2
REMARK    2  A    between atoms: C_2  and  N_3
REMARK    3  A    between atoms: C_4  and  C_22
REMARK    4  A    between atoms: C_5  and  C_17
REMARK    5  A    between atoms: C_6  and  C_11
REMARK    6  A    between atoms: C_17  and  O_19
REMARK    7  A    between atoms: O_19  and  C_20
REMARK    8  A    between atoms: C_20  and  C_21
REMARK    9  A    between atoms: C_22  and  N_23
REMARK   10  A    between atoms: N_26  and  S_29
REMARK   11  A    between atoms: S_29  and  C_32
REMARK   12  A    between atoms: C_35  and  C_38
REMARK                            x       y       z     vdW  Elec       q    Type
REMARK                         _______ _______ _______ _____ _____    ______ ____
ROOT
ATOM      1  N   UNL     1       0.743  -0.445  -1.190  0.00  0.00    -0.258 N 
ATOM      2  C   UNL     1      -0.033  -0.577  -2.307  0.00  0.00    +0.041 C 
ATOM      3  C   UNL     1       0.484  -1.045  -3.463  0.00  0.00    +0.080 C 
ATOM      4  C   UNL     1       1.953  -1.418  -3.479  0.00  0.00    +0.144 C 
ATOM      5  N   UNL     1       2.701  -1.237  -2.224  0.00  0.00    -0.288 N 
ATOM      6  C   UNL     1       2.045  -0.754  -1.150  0.00  0.00    +0.307 C 
ATOM      7  O   UNL     1       2.654  -0.598  -0.110  0.00  0.00    -0.252 OA
ATOM      8  H   UNL     1       3.644  -1.458  -2.171  0.00  0.00    +0.151 HD
ENDROOT
BRANCH   4   9
ATOM      9  C   UNL     1       2.060  -2.867  -3.879  0.00  0.00    -0.022 A 
ATOM     10  C   UNL     1       1.828  -3.860  -2.946  0.00  0.00    +0.006 A 
ATOM     11  C   UNL     1       1.926  -5.189  -3.313  0.00  0.00    +0.000 A 
ATOM     12  C   UNL     1       2.256  -5.525  -4.612  0.00  0.00    +0.000 A 
ATOM     13  C   UNL     1       2.486  -4.532  -5.546  0.00  0.00    +0.000 A 
ATOM     14  C   UNL     1       2.384  -3.203  -5.180  0.00  0.00    +0.006 A 
ENDBRANCH   4   9
BRANCH   1  16
ATOM     15  C   UNL     1       0.230   1.595   0.057  0.00  0.00    +0.025 C 
ATOM     16  C   UNL     1       0.116   0.070   0.030  0.00  0.00    +0.111 C 
ENDBRANCH   1  16
BRANCH   3  17
ATOM     17  C   UNL     1      -0.318  -1.183  -4.620  0.00  0.00    +0.339 C 
ATOM     18  O   UNL     1      -0.763  -2.274  -4.925  0.00  0.00    -0.245 OA
BRANCH  17  19
ATOM     19  O   UNL     1      -0.591  -0.105  -5.385  0.00  0.00    -0.462 OA
BRANCH  19  20
ATOM     20  C   UNL     1      -1.407  -0.318  -6.538  0.00  0.00    +0.229 C 
ATOM     21  C   UNL     1      -1.605   1.008  -7.274  0.00  0.00    +0.048 C 
ENDBRANCH  19  20
ENDBRANCH  17  19
ENDBRANCH   3  17
BRANCH   2  22
ATOM     22  C   UNL     1      -1.489  -0.194  -2.247  0.00  0.00    +0.136 C 
BRANCH  22  23
ATOM     23  N   UNL     1      -2.202  -1.119  -1.355  0.00  0.00    -0.294 NA
ATOM     24  C   UNL     1      -2.213  -2.480  -1.908  0.00  0.00    +0.102 C 
ATOM     25  C   UNL     1      -2.802  -3.443  -0.872  0.00  0.00    +0.125 C 
ATOM     26  N   UNL     1      -4.116  -2.932  -0.452  0.00  0.00    -0.174 NA
ATOM     27  C   UNL     1      -4.209  -1.531  -0.014  0.00  0.00    +0.125 C 
ATOM     28  C   UNL     1      -3.565  -0.642  -1.084  0.00  0.00    +0.102 C 
BRANCH  26  29
ATOM     29  S   UNL     1      -5.453  -3.908  -0.470  0.00  0.00    +0.061 S 
ATOM     30  O   UNL     1      -6.581  -3.049  -0.570  0.00  0.00    -0.153 OA
ATOM     31  O   UNL     1      -5.193  -4.936  -1.416  0.00  0.00    -0.153 OA
BRANCH  29  32
ATOM     32  C   UNL     1      -5.552  -4.687   1.107  0.00  0.00    +0.105 A 
ATOM     33  C   UNL     1      -4.918  -5.897   1.321  0.00  0.00    +0.029 A 
ATOM     34  C   UNL     1      -4.996  -6.508   2.558  0.00  0.00    +0.005 A 
ATOM     35  C   UNL     1      -5.706  -5.910   3.582  0.00  0.00    -0.050 A 
ATOM     36  C   UNL     1      -6.339  -4.699   3.368  0.00  0.00    +0.005 A 
ATOM     37  C   UNL     1      -6.258  -4.086   2.132  0.00  0.00    +0.029 A 
ATOM     38  C   UNL     1      -5.791  -6.577   4.930  0.00  0.00    +0.044 C 
ENDBRANCH  29  32
ENDBRANCH  26  29
ENDBRANCH  22  23
ENDBRANCH   2  22
TORSDOF 9
