REMARK  Name = ZINC39195370
REMARK  6 active torsions:
REMARK  status: ('A' for Active; 'I' for Inactive)
REMARK    1  A    between atoms: C_1  and  C_2
REMARK    2  A    between atoms: C_5  and  S_8
REMARK    3  A    between atoms: S_8  and  N_11
REMARK    4  A    between atoms: C_13  and  C_20
REMARK    5  A    between atoms: C_21  and  C_22
REMARK    6  A    between atoms: C_27  and  N_30
REMARK                            x       y       z     vdW  Elec       q    Type
REMARK                         _______ _______ _______ _____ _____    ______ ____
ROOT
ATOM      1  N   UNL     1       1.655  -4.989  -0.029  0.00  0.00    -0.218 N 
ATOM      2  C   UNL     1       2.266  -5.673   0.969  0.00  0.00    +0.121 A 
ATOM      3  C   UNL     1       3.574  -5.897   0.640  0.00  0.00    +0.002 A 
ATOM      4  C   UNL     1       3.780  -5.290  -0.688  0.00  0.00    +0.009 A 
ATOM      5  C   UNL     1       2.541  -4.742  -1.058  0.00  0.00    +0.073 A 
ATOM      6  C   UNL     1       2.420  -4.097  -2.284  0.00  0.00    +0.028 A 
ATOM      7  C   UNL     1       3.509  -4.005  -3.123  0.00  0.00    +0.002 A 
ATOM      8  C   UNL     1       4.731  -4.550  -2.758  0.00  0.00    +0.001 A 
ATOM      9  C   UNL     1       4.873  -5.185  -1.544  0.00  0.00    +0.010 A 
ENDROOT
BRANCH   1  10
ATOM     10  S   UNL     1       0.066  -4.521  -0.019  0.00  0.00    +0.084 S 
ATOM     11  O   UNL     1      -0.474  -4.946   1.224  0.00  0.00    -0.148 OA
ATOM     12  O   UNL     1      -0.484  -4.923  -1.266  0.00  0.00    -0.148 OA
BRANCH  10  17
ATOM     13  C   UNL     1      -0.020   1.512   0.038  0.00  0.00    +0.044 C 
ATOM     14  C   UNL     1       0.002   0.005   0.023  0.00  0.00    -0.050 A 
ATOM     15  C   UNL     1       0.008  -0.675  -1.180  0.00  0.00    +0.005 A 
ATOM     16  C   UNL     1       0.028  -2.057  -1.193  0.00  0.00    +0.029 A 
ATOM     17  C   UNL     1       0.042  -2.759  -0.003  0.00  0.00    +0.111 A 
ATOM     18  C   UNL     1       0.037  -2.079   1.201  0.00  0.00    +0.029 A 
ATOM     19  C   UNL     1       0.021  -0.697   1.214  0.00  0.00    +0.005 A 
ENDBRANCH  10  17
ENDBRANCH   1  10
BRANCH   3  20
ATOM     20  C   UNL     1       4.572  -6.601   1.447  0.00  0.00    +0.015 C 
ATOM     21  C   UNL     1       4.231  -7.108   2.656  0.00  0.00    +0.068 C 
BRANCH  21  22
ATOM     22  C   UNL     1       5.195  -7.788   3.436  0.00  0.00    +0.239 C 
ATOM     23  O   UNL     1       6.305  -8.002   2.982  0.00  0.00    -0.271 OA
ATOM     24  N   UNL     1       4.887  -8.199   4.682  0.00  0.00    -0.298 N 
ATOM     25  C   UNL     1       5.911  -8.800   5.547  0.00  0.00    +0.106 C 
ATOM     26  C   UNL     1       5.940  -8.041   6.878  0.00  0.00    +0.004 C 
ATOM     27  C   UNL     1       4.534  -8.028   7.483  0.00  0.00    -0.066 C 
ATOM     28  C   UNL     1       3.575  -7.304   6.535  0.00  0.00    +0.004 C 
ATOM     29  C   UNL     1       3.521  -8.049   5.203  0.00  0.00    +0.106 C 
BRANCH  27  30
ATOM     30  N   UNL     1       4.565  -7.330   8.775  0.00  0.00    +0.382 N 
ATOM     31  C   UNL     1       5.490  -8.020   9.681  0.00  0.00    -0.078 C 
ATOM     32  C   UNL     1       5.588  -7.251  11.001  0.00  0.00    -0.019 C 
ATOM     33  C   UNL     1       4.201  -7.176  11.645  0.00  0.00    -0.004 C 
ATOM     34  C   UNL     1       3.226  -6.521  10.662  0.00  0.00    -0.019 C 
ATOM     35  C   UNL     1       3.216  -7.317   9.355  0.00  0.00    -0.078 C 
ATOM     36  H   UNL     1       4.879  -6.381   8.636  0.00  0.00    -0.081 HD
ENDBRANCH  27  30
ENDBRANCH  21  22
ENDBRANCH   3  20
TORSDOF 5
