REMARK  Name = ZINC00986546
REMARK  7 active torsions:
REMARK  status: ('A' for Active; 'I' for Inactive)
REMARK    1  A    between atoms: C_1  and  C_2
REMARK    2  A    between atoms: C_2  and  C_3
REMARK    3  A    between atoms: C_2  and  C_4
REMARK    4  A    between atoms: C_16  and  C_18
REMARK    5  A    between atoms: C_28  and  C_31
REMARK    6  A    between atoms: C_34  and  O_37
REMARK    7  A    between atoms: O_37  and  C_38
REMARK                            x       y       z     vdW  Elec       q    Type
REMARK                         _______ _______ _______ _____ _____    ______ ____
ROOT
ATOM      1  C   UNL     1       6.042   8.533  -1.559  0.00  0.00    +0.223 C 
ATOM      2  O   UNL     1       5.962   8.918  -2.707  0.00  0.00    -0.275 OA
ATOM      3  N   UNL     1       6.256   7.228  -1.300  0.00  0.00    -0.258 N 
ATOM      4  C   UNL     1       6.517   6.351  -2.353  0.00  0.00    +0.058 A 
ATOM      5  C   UNL     1       7.661   6.466  -3.126  0.00  0.00    +0.025 A 
ATOM      6  C   UNL     1       7.899   5.544  -4.130  0.00  0.00    +0.002 A 
ATOM      7  C   UNL     1       7.007   4.512  -4.359  0.00  0.00    +0.002 A 
ATOM      8  C   UNL     1       5.854   4.404  -3.600  0.00  0.00    +0.025 A 
ATOM      9  C   UNL     1       5.604   5.340  -2.611  0.00  0.00    +0.053 A 
ATOM     10  N   UNL     1       4.415   5.360  -1.892  0.00  0.00    -0.316 N 
ATOM     11  C   UNL     1       4.313   5.181  -0.551  0.00  0.00    +0.017 C 
ATOM     12  C   UNL     1       5.093   5.786   0.362  0.00  0.00    +0.037 C 
ATOM     13  C   UNL     1       6.212   6.756   0.068  0.00  0.00    +0.147 C 
ATOM     14  C   UNL     1       4.902   5.532   1.741  0.00  0.00    +0.163 C 
ATOM     15  O   UNL     1       5.609   6.105   2.546  0.00  0.00    -0.292 OA
ATOM     16  C   UNL     1       3.859   4.580   2.243  0.00  0.00    +0.088 C 
ATOM     17  C   UNL     1       3.614   3.514   1.169  0.00  0.00    +0.032 C 
ATOM     18  C   UNL     1       3.209   4.233  -0.117  0.00  0.00    +0.059 C 
ATOM     19  H   UNL     1       3.595   5.514  -2.387  0.00  0.00    +0.152 HD
ENDROOT
BRANCH  13  20
ATOM     20  C   UNL     1       7.522   6.082   0.380  0.00  0.00    -0.019 A 
ATOM     21  C   UNL     1       7.928   4.985  -0.358  0.00  0.00    +0.006 A 
ATOM     22  C   UNL     1       9.132   4.368  -0.077  0.00  0.00    +0.003 A 
ATOM     23  C   UNL     1       9.928   4.840   0.950  0.00  0.00    +0.038 A 
ATOM     24  C   UNL     1       9.521   5.935   1.693  0.00  0.00    +0.124 A 
ATOM     25  C   UNL     1       8.316   6.556   1.406  0.00  0.00    +0.044 A 
ATOM     26  F   UNL     1      10.298   6.397   2.697  0.00  0.00    -0.205 F 
ENDBRANCH  13  20
BRANCH  17  27
ATOM     27  C   UNL     1       2.507   2.591   1.608  0.00  0.00    -0.043 A 
ATOM     28  C   UNL     1       2.753   1.238   1.756  0.00  0.00    +0.007 A 
ATOM     29  C   UNL     1       1.740   0.390   2.158  0.00  0.00    +0.046 A 
ATOM     30  C   UNL     1       0.472   0.895   2.408  0.00  0.00    +0.120 A 
ATOM     31  C   UNL     1       0.229   2.253   2.265  0.00  0.00    +0.046 A 
ATOM     32  C   UNL     1       1.246   3.097   1.862  0.00  0.00    +0.007 A 
BRANCH  30  33
ATOM     33  O   UNL     1      -0.527   0.062   2.799  0.00  0.00    -0.495 OA
ATOM     34  C   UNL     1      -1.807   0.652   3.039  0.00  0.00    +0.277 C 
ENDBRANCH  30  33
ENDBRANCH  17  27
BRANCH   1  36
ATOM     35  C   UNL     1       5.964  10.941  -0.972  0.00  0.00    +0.017 C 
ATOM     36  C   UNL     1       5.901   9.514  -0.424  0.00  0.00    +0.069 C 
ATOM     37  C   UNL     1       4.559   9.295   0.276  0.00  0.00    +0.017 C 
ENDBRANCH   1  36
TORSDOF 4
