REMARK  Name = ZINC12713107
REMARK  13 active torsions:
REMARK  status: ('A' for Active; 'I' for Inactive)
REMARK    1  A    between atoms: C_1  and  C_2
REMARK    2  A    between atoms: C_5  and  N_9
REMARK    3  A    between atoms: C_6  and  C_8
REMARK    4  A    between atoms: N_9  and  C_10
REMARK    5  A    between atoms: C_10  and  C_12
REMARK    6  A    between atoms: C_10  and  C_19
REMARK    7  A    between atoms: N_21  and  C_22
REMARK    8  A    between atoms: C_22  and  C_23
REMARK    9  A    between atoms: C_23  and  C_24
REMARK   10  A    between atoms: C_24  and  C_25
REMARK   11  A    between atoms: C_24  and  C_26
REMARK   12  A    between atoms: C_27  and  C_29
REMARK   13  A    between atoms: C_29  and  N_30
REMARK                            x       y       z     vdW  Elec       q    Type
REMARK                         _______ _______ _______ _____ _____    ______ ____
ROOT
ATOM      1  N   UNL     1      -5.038   2.795  -1.491  0.00  0.00    -0.254 N 
ATOM      2  C   UNL     1      -3.722   2.607  -1.270  0.00  0.00    +0.242 C 
ATOM      3  O   UNL     1      -2.912   2.966  -2.099  0.00  0.00    -0.273 OA
ENDROOT
BRANCH   1   8
ATOM      4  C   UNL     1      -8.828   1.117   2.383  0.00  0.00    +0.044 C 
ATOM      5  C   UNL     1      -7.822   1.562   1.354  0.00  0.00    -0.050 A 
ATOM      6  C   UNL     1      -7.226   2.805   1.465  0.00  0.00    +0.005 A 
ATOM      7  C   UNL     1      -6.299   3.215   0.527  0.00  0.00    +0.024 A 
ATOM      8  C   UNL     1      -5.973   2.381  -0.535  0.00  0.00    +0.040 A 
ATOM      9  C   UNL     1      -6.573   1.133  -0.644  0.00  0.00    -0.029 A 
ATOM     10  C   UNL     1      -7.496   0.728   0.301  0.00  0.00    +0.008 A 
ATOM     11  C   UNL     1      -6.219   0.223  -1.792  0.00  0.00    +0.045 C 
ENDBRANCH   1   8
BRANCH   1  12
ATOM     12  C   UNL     1      -5.490   3.432  -2.730  0.00  0.00    +0.197 C 
BRANCH  12  13
ATOM     13  C   UNL     1      -6.996   3.401  -2.791  0.00  0.00    -0.018 A 
ATOM     14  C   UNL     1      -7.740   4.048  -1.822  0.00  0.00    +0.009 A 
ATOM     15  C   UNL     1      -9.120   4.024  -1.880  0.00  0.00    +0.038 A 
ATOM     16  C   UNL     1      -9.758   3.342  -2.902  0.00  0.00    +0.123 A 
ATOM     17  C   UNL     1      -9.012   2.690  -3.869  0.00  0.00    +0.038 A 
ATOM     18  C   UNL     1      -7.632   2.720  -3.812  0.00  0.00    +0.009 A 
ATOM     19  F   UNL     1     -11.108   3.313  -2.956  0.00  0.00    -0.205 F 
ENDBRANCH  12  13
BRANCH  12  20
ATOM     20  C   UNL     1      -5.016   4.862  -2.761  0.00  0.00    +0.238 C 
ATOM     21  O   UNL     1      -4.365   5.305  -1.839  0.00  0.00    -0.273 OA
ATOM     22  N   UNL     1      -5.316   5.649  -3.814  0.00  0.00    -0.313 N 
ATOM     23  H   UNL     1      -5.837   5.294  -4.551  0.00  0.00    +0.149 HD
BRANCH  22  24
ATOM     24  C   UNL     1      -4.855   7.039  -3.845  0.00  0.00    +0.104 C 
BRANCH  24  25
ATOM     25  C   UNL     1      -5.327   7.704  -5.139  0.00  0.00    +0.022 C 
BRANCH  25  26
ATOM     26  C   UNL     1      -4.846   9.156  -5.171  0.00  0.00    -0.016 C 
ATOM     27  C   UNL     1      -3.317   9.185  -5.235  0.00  0.00    +0.007 C 
ATOM     28  C   UNL     1      -5.421   9.857  -6.403  0.00  0.00    +0.007 C 
ENDBRANCH  25  26
ENDBRANCH  24  25
ENDBRANCH  22  24
ENDBRANCH  12  20
ENDBRANCH   1  12
BRANCH   2  29
ATOM     29  C   UNL     1      -3.257   1.952   0.004  0.00  0.00    +0.242 C 
BRANCH  29  30
ATOM     30  N   UNL     1      -1.795   1.864   0.003  0.00  0.00    -0.235 N 
ATOM     31  C   UNL     1      -1.033   0.829  -0.483  0.00  0.00    +0.090 A 
ATOM     32  C   UNL     1      -1.329  -0.385  -1.094  0.00  0.00    +0.029 A 
ATOM     33  C   UNL     1      -0.316  -1.222  -1.470  0.00  0.00    +0.002 A 
ATOM     34  C   UNL     1       1.010  -0.867  -1.257  0.00  0.00    +0.002 A 
ATOM     35  C   UNL     1       1.327   0.321  -0.665  0.00  0.00    +0.032 A 
ATOM     36  C   UNL     1       0.307   1.194  -0.266  0.00  0.00    +0.113 A 
ATOM     37  N   UNL     1       0.309   2.404   0.329  0.00  0.00    -0.129 NA
ATOM     38  N   UNL     1      -0.896   2.821   0.498  0.00  0.00    -0.064 NA
ENDBRANCH  29  30
ENDBRANCH   2  29
TORSDOF 9
