REMARK  Name = ZINC39965523
REMARK  10 active torsions:
REMARK  status: ('A' for Active; 'I' for Inactive)
REMARK    1  A    between atoms: C_1  and  C_2
REMARK    2  A    between atoms: C_2  and  N_3
REMARK    3  A    between atoms: C_4  and  C_26
REMARK    4  A    between atoms: C_7  and  S_8
REMARK    5  A    between atoms: S_8  and  C_9
REMARK    6  A    between atoms: C_9  and  C_10
REMARK    7  A    between atoms: N_12  and  C_13
REMARK    8  A    between atoms: C_14  and  C_22
REMARK    9  A    between atoms: C_22  and  O_24
REMARK   10  A    between atoms: O_24  and  C_25
REMARK                            x       y       z     vdW  Elec       q    Type
REMARK                         _______ _______ _______ _____ _____    ______ ____
ROOT
ATOM      1  C   UNL     1       4.829  -0.742  -1.042  0.00  0.00    +0.173 C 
ENDROOT
BRANCH   1   2
ATOM      2  C   UNL     1       5.999  -0.505  -0.121  0.00  0.00    +0.228 C 
ATOM      3  O   UNL     1       5.812  -0.083   1.000  0.00  0.00    -0.275 OA
ATOM      4  N   UNL     1       7.252  -0.761  -0.545  0.00  0.00    -0.279 N 
ATOM      5  H   UNL     1       7.402  -1.098  -1.442  0.00  0.00    +0.155 HD
BRANCH   4   6
ATOM      6  C   UNL     1       8.328  -0.543   0.302  0.00  0.00    +0.086 A 
ATOM      7  C   UNL     1       9.675  -0.743   0.039  0.00  0.00    +0.091 A 
ATOM      8  C   UNL     1      10.612  -0.434   1.105  0.00  0.00    -0.021 A 
ATOM      9  C   UNL     1      10.032   0.016   2.238  0.00  0.00    -0.004 A 
ATOM     10  S   UNL     1       8.300   0.032   1.880  0.00  0.00    -0.077 S 
ATOM     11  C   UNL     1      10.723   0.414   3.506  0.00  0.00    +0.043 C 
ATOM     12  C   UNL     1      12.161  -0.122   3.460  0.00  0.00    +0.005 C 
ATOM     13  C   UNL     1      12.780   0.235   2.105  0.00  0.00    +0.005 C 
ATOM     14  C   UNL     1      12.122  -0.590   0.998  0.00  0.00    +0.037 C 
BRANCH   7  15
ATOM     15  C   UNL     1      10.133  -1.244  -1.259  0.00  0.00    +0.342 C 
ATOM     16  O   UNL     1      10.401  -0.463  -2.152  0.00  0.00    -0.245 OA
BRANCH  15  17
ATOM     17  O   UNL     1      10.257  -2.571  -1.464  0.00  0.00    -0.464 OA
ATOM     18  C   UNL     1      10.708  -2.990  -2.753  0.00  0.00    +0.280 C 
ENDBRANCH  15  17
ENDBRANCH   7  15
ENDBRANCH   4   6
ENDBRANCH   1   2
BRANCH   1  19
ATOM     19  S   UNL     1       3.289  -0.306  -0.188  0.00  0.00    -0.077 S 
BRANCH  19  24
ATOM     20  N   UNL     1       0.689  -0.462  -1.208  0.00  0.00    -0.302 N 
ATOM     21  C   UNL     1       0.112  -0.840  -2.399  0.00  0.00    +0.165 A 
ATOM     22  N   UNL     1       1.085  -1.212  -3.198  0.00  0.00    -0.128 NA
ATOM     23  N   UNL     1       2.215  -1.095  -2.597  0.00  0.00    -0.122 NA
ATOM     24  C   UNL     1       2.034  -0.635  -1.379  0.00  0.00    +0.192 A 
BRANCH  21  25
ATOM     25  C   UNL     1      -1.331  -0.829  -2.719  0.00  0.00    +0.023 A 
ATOM     26  C   UNL     1      -1.819  -1.596  -3.777  0.00  0.00    +0.015 A 
ATOM     27  C   UNL     1      -3.166  -1.585  -4.074  0.00  0.00    +0.050 A 
ATOM     28  C   UNL     1      -4.040  -0.812  -3.322  0.00  0.00    +0.166 A 
ATOM     29  C   UNL     1      -3.558  -0.043  -2.264  0.00  0.00    +0.167 A 
ATOM     30  C   UNL     1      -2.210  -0.055  -1.959  0.00  0.00    +0.061 A 
ATOM     31  O   UNL     1      -4.608   0.616  -1.692  0.00  0.00    -0.453 OA
ATOM     32  C   UNL     1      -5.670   0.564  -2.663  0.00  0.00    +0.466 C 
ATOM     33  O   UNL     1      -5.390  -0.633  -3.412  0.00  0.00    -0.453 OA
ENDBRANCH  21  25
BRANCH  20  35
ATOM     34  C   UNL     1      -0.023   1.558  -0.029  0.00  0.00    +0.027 C 
ATOM     35  C   UNL     1       0.005   0.029  -0.009  0.00  0.00    +0.122 C 
ENDBRANCH  20  35
ENDBRANCH  19  24
ENDBRANCH   1  19
TORSDOF 8
