REMARK  Name = ZINC22742317
REMARK  6 active torsions:
REMARK  status: ('A' for Active; 'I' for Inactive)
REMARK    1  A    between atoms: C_1  and  C_2
REMARK    2  A    between atoms: C_4  and  C_35
REMARK    3  A    between atoms: N_13  and  N_14
REMARK    4  A    between atoms: C_15  and  C_16
REMARK    5  A    between atoms: C_25  and  O_26
REMARK    6  A    between atoms: N_27  and  C_28
REMARK                            x       y       z     vdW  Elec       q    Type
REMARK                         _______ _______ _______ _____ _____    ______ ____
ROOT
ATOM      1  C   UNL     1     -12.598   1.956  -4.213  0.00  0.00    +0.067 C 
ATOM      2  C   UNL     1     -11.159   1.696  -3.850  0.00  0.00    +0.061 A 
ATOM      3  C   UNL     1     -10.434   0.536  -4.149  0.00  0.00    +0.048 A 
ATOM      4  C   UNL     1      -9.182   0.688  -3.663  0.00  0.00    +0.045 A 
ATOM      5  N   UNL     1      -9.119   1.908  -3.066  0.00  0.00    -0.202 N 
ATOM      6  N   UNL     1     -10.373   2.517  -3.203  0.00  0.00    -0.169 NA
ATOM      7  C   UNL     1      -8.005   2.457  -2.436  0.00  0.00    +0.257 A 
ATOM      8  N   UNL     1      -8.077   3.667  -1.895  0.00  0.00    -0.177 NA
ATOM      9  C   UNL     1      -7.014   4.192  -1.292  0.00  0.00    +0.226 A 
ATOM     10  N   UNL     1      -5.878   3.504  -1.232  0.00  0.00    -0.179 NA
ATOM     11  C   UNL     1      -5.806   2.292  -1.774  0.00  0.00    +0.241 A 
ATOM     12  N   UNL     1      -6.870   1.771  -2.381  0.00  0.00    -0.176 NA
ATOM     13  N   UNL     1      -4.627   1.577  -1.712  0.00  0.00    -0.205 N 
ATOM     14  N   UNL     1      -7.090   5.451  -0.730  0.00  0.00    -0.283 N 
ATOM     15  C   UNL     1      -8.060  -0.313  -3.763  0.00  0.00    +0.066 C 
ATOM     16  H   UNL     1      -4.534   0.623  -2.251  0.00  0.00    +0.177 HD
ATOM     17  H   UNL     1      -6.186   5.926  -0.320  0.00  0.00    +0.155 HD
ENDROOT
BRANCH  14  18
ATOM     18  C   UNL     1      -8.316   6.123  -0.682  0.00  0.00    +0.034 A 
ATOM     19  C   UNL     1      -9.495   5.409  -0.508  0.00  0.00    +0.025 A 
ATOM     20  C   UNL     1     -10.703   6.075  -0.457  0.00  0.00    +0.022 A 
ATOM     21  C   UNL     1     -10.742   7.452  -0.589  0.00  0.00    +0.041 A 
ATOM     22  C   UNL     1      -9.569   8.166  -0.768  0.00  0.00    +0.022 A 
ATOM     23  C   UNL     1      -8.358   7.505  -0.815  0.00  0.00    +0.025 A 
ATOM     24 CL   UNL     1     -12.263   8.286  -0.530  0.00  0.00    -0.084 Cl
ENDBRANCH  14  18
BRANCH  13  25
ATOM     25  N   UNL     1      -3.549   2.067  -0.963  0.00  0.00    -0.187 NA
ATOM     26  C   UNL     1      -2.470   1.355  -0.836  0.00  0.00    +0.142 C 
BRANCH  26  27
ATOM     27  C   UNL     1      -1.384   1.816   0.042  0.00  0.00    +0.044 A 
ATOM     28  C   UNL     1      -0.206   0.982   0.274  0.00  0.00    -0.006 A 
ATOM     29  C   UNL     1      -0.071  -0.275  -0.328  0.00  0.00    +0.009 A 
ATOM     30  C   UNL     1       1.046  -1.019  -0.090  0.00  0.00    +0.001 A 
ATOM     31  C   UNL     1       2.057  -0.545   0.744  0.00  0.00    +0.001 A 
ATOM     32  C   UNL     1       1.957   0.672   1.344  0.00  0.00    +0.008 A 
ATOM     33  C   UNL     1       0.819   1.466   1.122  0.00  0.00    -0.017 A 
ATOM     34  C   UNL     1       0.682   2.729   1.725  0.00  0.00    +0.012 A 
ATOM     35  C   UNL     1      -0.423   3.490   1.501  0.00  0.00    +0.046 A 
ATOM     36  C   UNL     1      -1.458   3.056   0.675  0.00  0.00    +0.126 A 
BRANCH  36  37
ATOM     37  O   UNL     1      -2.543   3.849   0.481  0.00  0.00    -0.506 OA
ATOM     38  H   UNL     1      -2.605   4.828   0.978  0.00  0.00    +0.292 HD
ENDBRANCH  36  37
ENDBRANCH  26  27
ENDBRANCH  13  25
TORSDOF 4
