REMARK  Name = ZINC50102042
REMARK  5 active torsions:
REMARK  status: ('A' for Active; 'I' for Inactive)
REMARK    1  A    between atoms: C_1  and  C_2
REMARK    2  A    between atoms: N_7  and  S_8
REMARK    3  A    between atoms: S_8  and  C_11
REMARK    4  A    between atoms: C_11  and  C_12
REMARK    5  A    between atoms: C_17  and  N_18
REMARK                            x       y       z     vdW  Elec       q    Type
REMARK                         _______ _______ _______ _____ _____    ______ ____
ROOT
ATOM      1  S   UNL     1       0.075  -4.553   1.809  0.00  0.00    +0.076 S 
ATOM      2  O   UNL     1      -1.159  -4.811   1.154  0.00  0.00    -0.151 OA
ATOM      3  O   UNL     1       1.310  -4.776   1.143  0.00  0.00    -0.151 OA
ENDROOT
BRANCH   1  10
ATOM      4  C   UNL     1      -0.018   1.503   0.010  0.00  0.00    +0.064 C 
ATOM      5  C   UNL     1       0.002  -0.004   0.002  0.00  0.00    +0.022 A 
ATOM      6  C   UNL     1       0.006  -0.662  -1.157  0.00  0.00    +0.069 A 
ATOM      7  S   UNL     1       0.032  -2.365  -0.622  0.00  0.00    -0.057 S 
ATOM      8  C   UNL     1       0.036  -2.068   1.139  0.00  0.00    +0.191 A 
ATOM      9  N   UNL     1       0.023  -0.690   1.181  0.00  0.00    -0.336 N 
ATOM     10  N   UNL     1       0.053  -2.928   2.127  0.00  0.00    -0.108 NA
ATOM     11  H   UNL     1       0.024  -0.220   2.029  0.00  0.00    +0.168 HD
ENDBRANCH   1  10
BRANCH   1  12
ATOM     12  C   UNL     1       0.093  -5.347   3.440  0.00  0.00    +0.230 C 
BRANCH  12  13
ATOM     13  C   UNL     1       0.114  -6.845   3.270  0.00  0.00    -0.004 A 
ATOM     14  C   UNL     1      -1.072  -7.548   3.192  0.00  0.00    +0.007 A 
ATOM     15  C   UNL     1      -1.054  -8.921   3.036  0.00  0.00    +0.000 A 
ATOM     16  C   UNL     1       0.150  -9.596   2.958  0.00  0.00    +0.002 A 
ATOM     17  C   UNL     1       1.340  -8.899   3.035  0.00  0.00    +0.023 A 
ATOM     18  C   UNL     1       1.326  -7.518   3.186  0.00  0.00    +0.029 A 
BRANCH  18  19
ATOM     19  N   UNL     1       2.527  -6.809   3.259  0.00  0.00    -0.358 N 
ATOM     20  H   UNL     1       2.516  -5.846   3.369  0.00  0.00    +0.142 HD
ATOM     21  H   UNL     1       3.373  -7.281   3.200  0.00  0.00    +0.142 HD
ENDBRANCH  18  19
ENDBRANCH  12  13
ENDBRANCH   1  12
TORSDOF 4
