REMARK  Name = ZINC42175839
REMARK  5 active torsions:
REMARK  status: ('A' for Active; 'I' for Inactive)
REMARK    1  A    between atoms: C_1  and  C_2
REMARK    2  A    between atoms: C_2  and  C_3
REMARK    3  A    between atoms: C_6  and  C_9
REMARK    4  A    between atoms: C_6  and  N_24
REMARK    5  A    between atoms: C_11  and  C_14
REMARK                            x       y       z     vdW  Elec       q    Type
REMARK                         _______ _______ _______ _____ _____    ______ ____
ROOT
ATOM      1  C   UNL     1      -1.433  -0.534   0.013  0.00  0.00    -0.011 C 
ATOM      2  C   UNL     1      -2.135  -0.131  -1.286  0.00  0.00    +0.002 C 
ATOM      3  C   UNL     1      -3.571  -0.661  -1.275  0.00  0.00    -0.005 C 
ATOM      4  C   UNL     1      -3.551  -2.186  -1.157  0.00  0.00    -0.006 C 
ATOM      5  C   UNL     1      -2.849  -2.589   0.141  0.00  0.00    -0.005 C 
ATOM      6  C   UNL     1      -1.413  -2.059   0.130  0.00  0.00    +0.002 C 
ENDROOT
BRANCH   4   7
ATOM      7  C   UNL     1      -4.964  -2.708  -1.147  0.00  0.00    +0.161 A 
ATOM      8  N   UNL     1      -5.485  -3.562  -2.035  0.00  0.00    -0.197 NA
ATOM      9  C   UNL     1      -6.731  -3.810  -1.740  0.00  0.00    +0.231 A 
ATOM     10  O   UNL     1      -7.049  -3.114  -0.642  0.00  0.00    -0.338 OA
ATOM     11  N   UNL     1      -5.877  -2.405  -0.268  0.00  0.00    -0.063 NA
BRANCH   9  12
ATOM     12  C   UNL     1      -7.654  -4.723  -2.505  0.00  0.00    +0.081 C 
ATOM     13  C   UNL     1      -8.915  -3.955  -2.962  0.00  0.00    +0.016 C 
ATOM     14  C   UNL     1     -10.100  -4.692  -2.264  0.00  0.00    -0.010 C 
ATOM     15  C   UNL     1     -10.203  -6.058  -3.010  0.00  0.00    +0.004 C 
ATOM     16  C   UNL     1      -8.944  -6.839  -2.569  0.00  0.00    +0.004 C 
ATOM     17  C   UNL     1      -8.193  -5.854  -1.575  0.00  0.00    +0.001 C 
ATOM     18  C   UNL     1      -9.420  -5.123  -0.917  0.00  0.00    +0.008 C 
ENDBRANCH   9  12
ENDBRANCH   4   7
BRANCH   4  19
ATOM     19  N   UNL     1      -2.827  -2.756  -2.302  0.00  0.00    +0.387 N 
ATOM     20  H   UNL     1      -1.881  -2.407  -2.309  0.00  0.00    -0.089 HD
ATOM     21  H   UNL     1      -2.814  -3.762  -2.225  0.00  0.00    -0.089 HD
ATOM     22  H   UNL     1      -3.290  -2.490  -3.158  0.00  0.00    -0.089 HD
ENDBRANCH   4  19
BRANCH   1  24
ATOM     23  C   UNL     1      -0.019   1.526   0.010  0.00  0.00    +0.004 C 
ATOM     24  C   UNL     1       0.002  -0.004   0.002  0.00  0.00    -0.000 C 
ENDBRANCH   1  24
TORSDOF 4
