REMARK  Name = ZINC02286415
REMARK  6 active torsions:
REMARK  status: ('A' for Active; 'I' for Inactive)
REMARK    1  A    between atoms: C_1  and  O_2
REMARK    2  A    between atoms: O_2  and  C_3
REMARK    3  A    between atoms: C_6  and  C_19
REMARK    4  A    between atoms: C_8  and  C_9
REMARK    5  A    between atoms: C_9  and  N_10
REMARK    6  A    between atoms: N_30  and  C_31
REMARK                            x       y       z     vdW  Elec       q    Type
REMARK                         _______ _______ _______ _____ _____    ______ ____
ROOT
ATOM      1  C   UNL     1       2.570  -2.502   4.266  0.00  0.00    +0.198 C 
ATOM      2  N   UNL     1       3.089  -3.799   3.817  0.00  0.00    -0.321 N 
ATOM      3  C   UNL     1       4.285  -3.832   3.108  0.00  0.00    +0.041 A 
ATOM      4  C   UNL     1       4.555  -4.822   2.179  0.00  0.00    +0.024 A 
ATOM      5  C   UNL     1       5.763  -4.820   1.508  0.00  0.00    +0.002 A 
ATOM      6  C   UNL     1       6.705  -3.835   1.757  0.00  0.00    +0.001 A 
ATOM      7  C   UNL     1       6.451  -2.839   2.677  0.00  0.00    +0.015 A 
ATOM      8  C   UNL     1       5.236  -2.826   3.357  0.00  0.00    +0.058 A 
ATOM      9  C   UNL     1       4.907  -1.770   4.331  0.00  0.00    +0.254 C 
ATOM     10  O   UNL     1       5.760  -0.983   4.693  0.00  0.00    -0.270 OA
ATOM     11  N   UNL     1       3.655  -1.686   4.814  0.00  0.00    -0.244 N 
ATOM     12  H   UNL     1       2.607  -4.617   4.010  0.00  0.00    +0.148 HD
ENDROOT
BRANCH  11  13
ATOM     13  C   UNL     1       3.385  -0.798   5.861  0.00  0.00    +0.039 A 
ATOM     14  C   UNL     1       2.857  -1.271   7.055  0.00  0.00    +0.026 A 
ATOM     15  C   UNL     1       2.592  -0.393   8.088  0.00  0.00    +0.040 A 
ATOM     16  C   UNL     1       2.853   0.958   7.933  0.00  0.00    +0.124 A 
ATOM     17  C   UNL     1       3.380   1.432   6.743  0.00  0.00    +0.040 A 
ATOM     18  C   UNL     1       3.652   0.556   5.710  0.00  0.00    +0.026 A 
ATOM     19  F   UNL     1       2.593   1.816   8.944  0.00  0.00    -0.205 F 
ENDBRANCH  11  13
BRANCH   1  23
ATOM     20  C   UNL     1       0.801  -0.462   0.954  0.00  0.00    +0.125 A 
ATOM     21  C   UNL     1       1.372   0.262   1.991  0.00  0.00    +0.046 A 
ATOM     22  C   UNL     1       1.944  -0.400   3.060  0.00  0.00    +0.010 A 
ATOM     23  C   UNL     1       1.946  -1.782   3.098  0.00  0.00    -0.008 A 
ATOM     24  C   UNL     1       1.378  -2.505   2.066  0.00  0.00    +0.016 A 
ATOM     25  C   UNL     1       0.800  -1.848   0.996  0.00  0.00    +0.016 A 
BRANCH  20  27
ATOM     26  C   UNL     1       0.275   1.615  -0.077  0.00  0.00    +0.277 C 
ATOM     27  O   UNL     1       0.238   0.187  -0.099  0.00  0.00    -0.495 OA
ENDBRANCH  20  27
BRANCH  25  28
ATOM     28  C   UNL     1       0.175  -2.637  -0.125  0.00  0.00    +0.184 C 
BRANCH  28  29
ATOM     29  N   UNL     1      -1.279  -2.668   0.050  0.00  0.00    -0.239 N 
ATOM     30  C   UNL     1      -2.003  -3.603   0.750  0.00  0.00    +0.089 A 
ATOM     31  C   UNL     1      -1.667  -4.743   1.473  0.00  0.00    +0.029 A 
ATOM     32  C   UNL     1      -2.649  -5.483   2.070  0.00  0.00    +0.002 A 
ATOM     33  C   UNL     1      -3.982  -5.107   1.961  0.00  0.00    +0.002 A 
ATOM     34  C   UNL     1      -4.338  -3.993   1.258  0.00  0.00    +0.032 A 
ATOM     35  C   UNL     1      -3.350  -3.217   0.637  0.00  0.00    +0.113 A 
ATOM     36  N   UNL     1      -3.393  -2.093  -0.107  0.00  0.00    -0.129 NA
ATOM     37  N   UNL     1      -2.205  -1.745  -0.458  0.00  0.00    -0.064 NA
ENDBRANCH  28  29
ENDBRANCH  25  28
ENDBRANCH   1  23
TORSDOF 5
