REMARK  Name = ZINC18093961
REMARK  5 active torsions:
REMARK  status: ('A' for Active; 'I' for Inactive)
REMARK    1  A    between atoms: C_1  and  C_2
REMARK    2  A    between atoms: C_5  and  N_8
REMARK    3  A    between atoms: C_9  and  C_11
REMARK    4  A    between atoms: C_12  and  C_25
REMARK    5  A    between atoms: C_17  and  C_19
REMARK                            x       y       z     vdW  Elec       q    Type
REMARK                         _______ _______ _______ _____ _____    ______ ____
ROOT
ATOM      1  C   UNL     1      -2.396   0.567  -0.871  0.00  0.00    +0.061 C 
ATOM      2  C   UNL     1      -3.338   0.928   0.048  0.00  0.00    +0.050 C 
ATOM      3  N   UNL     1      -4.249   0.012   0.518  0.00  0.00    -0.296 N 
ATOM      4  C   UNL     1      -4.275  -1.270   0.132  0.00  0.00    +0.135 C 
ATOM      5  S   UNL     1      -5.458  -2.310   0.802  0.00  0.00    -0.019 S 
ATOM      6  N   UNL     1      -3.403  -1.771  -0.764  0.00  0.00    -0.315 N 
ATOM      7  C   UNL     1      -2.386  -0.874  -1.339  0.00  0.00    +0.139 C 
ATOM      8  H   UNL     1      -5.009   0.319   1.251  0.00  0.00    +0.154 HD
ATOM      9  H   UNL     1      -3.441  -2.827  -1.069  0.00  0.00    +0.149 HD
ENDROOT
BRANCH   7  10
ATOM     10  C   UNL     1      -1.030  -1.453  -1.030  0.00  0.00    -0.023 A 
ATOM     11  C   UNL     1      -0.692  -1.765   0.274  0.00  0.00    +0.006 A 
ATOM     12  C   UNL     1       0.551  -2.300   0.556  0.00  0.00    +0.000 A 
ATOM     13  C   UNL     1       1.460  -2.515  -0.464  0.00  0.00    +0.000 A 
ATOM     14  C   UNL     1       1.123  -2.199  -1.767  0.00  0.00    +0.000 A 
ATOM     15  C   UNL     1      -0.121  -1.667  -2.050  0.00  0.00    +0.006 A 
ENDBRANCH   7  10
BRANCH   2  16
ATOM     16  C   UNL     1      -3.383   2.320   0.539  0.00  0.00    -0.003 A 
ATOM     17  C   UNL     1      -2.330   2.830   1.301  0.00  0.00    +0.010 A 
ATOM     18  C   UNL     1      -2.377   4.133   1.752  0.00  0.00    +0.001 A 
ATOM     19  C   UNL     1      -3.469   4.931   1.460  0.00  0.00    +0.000 A 
ATOM     20  C   UNL     1      -4.519   4.430   0.709  0.00  0.00    +0.001 A 
ATOM     21  C   UNL     1      -4.482   3.131   0.247  0.00  0.00    +0.010 A 
ENDBRANCH   2  16
BRANCH   1  23
ATOM     22  N   UNL     1      -1.800   2.324  -2.377  0.00  0.00    -0.282 N 
ATOM     23  C   UNL     1      -1.461   1.501  -1.365  0.00  0.00    +0.248 C 
ATOM     24  O   UNL     1      -0.347   1.564  -0.876  0.00  0.00    -0.270 OA
ATOM     25  H   UNL     1      -2.836   2.344  -2.746  0.00  0.00    +0.155 HD
BRANCH  22  30
ATOM     26  C   UNL     1       2.114   5.687  -4.732  0.00  0.00    +0.044 C 
ATOM     27  C   UNL     1       1.074   4.794  -4.106  0.00  0.00    -0.050 A 
ATOM     28  C   UNL     1       0.029   4.309  -4.872  0.00  0.00    +0.005 A 
ATOM     29  C   UNL     1      -0.925   3.490  -4.302  0.00  0.00    +0.023 A 
ATOM     30  C   UNL     1      -0.835   3.153  -2.957  0.00  0.00    +0.034 A 
ATOM     31  C   UNL     1       0.212   3.645  -2.190  0.00  0.00    +0.023 A 
ATOM     32  C   UNL     1       1.167   4.460  -2.767  0.00  0.00    +0.005 A 
ENDBRANCH  22  30
ENDBRANCH   1  23
TORSDOF 4
