REMARK  Name = ZINC05518850
REMARK  5 active torsions:
REMARK  status: ('A' for Active; 'I' for Inactive)
REMARK    1  A    between atoms: C_2  and  C_3
REMARK    2  A    between atoms: C_10  and  C_12
REMARK    3  A    between atoms: C_13  and  C_14
REMARK    4  A    between atoms: C_17  and  C_20
REMARK    5  A    between atoms: C_24  and  C_29
REMARK                            x       y       z     vdW  Elec       q    Type
REMARK                         _______ _______ _______ _____ _____    ______ ____
ROOT
ATOM      1  C   UNL     1       0.249   8.584   1.175  0.00  0.00    -0.025 A 
ATOM      2  C   UNL     1       0.679   7.276   0.923  0.00  0.00    +0.008 A 
ATOM      3  C   UNL     1       2.004   6.961   1.022  0.00  0.00    +0.012 A 
ATOM      4  C   UNL     1       2.930   7.943   1.385  0.00  0.00    +0.017 A 
ATOM      5  C   UNL     1       2.502   9.249   1.642  0.00  0.00    +0.012 A 
ATOM      6  C   UNL     1       1.178   9.567   1.538  0.00  0.00    +0.008 A 
ENDROOT
BRANCH   4   7
ATOM      7  C   UNL     1       4.362   7.600   1.498  0.00  0.00    +0.136 A 
ATOM      8  C   UNL     1       4.888   6.371   1.279  0.00  0.00    +0.058 A 
ATOM      9  C   UNL     1       6.330   6.501   1.502  0.00  0.00    +0.021 A 
ATOM     10  C   UNL     1       7.405   5.617   1.435  0.00  0.00    +0.023 A 
ATOM     11  C   UNL     1       8.686   6.075   1.722  0.00  0.00    +0.013 A 
ATOM     12  C   UNL     1       8.888   7.415   2.074  0.00  0.00    +0.015 A 
ATOM     13  C   UNL     1       7.828   8.289   2.140  0.00  0.00    +0.047 A 
ATOM     14  C   UNL     1       6.540   7.848   1.856  0.00  0.00    +0.136 A 
ATOM     15  O   UNL     1       5.340   8.462   1.841  0.00  0.00    -0.455 OA
BRANCH  11  16
ATOM     16  C   UNL     1       9.836   5.146   1.655  0.00  0.00    +0.094 C 
ATOM     17  H   UNL     1       8.792   3.485   1.111  0.00  0.00    +0.157 HD
ATOM     18  N   UNL     1      11.106   5.600   1.940  0.00  0.00    -0.345 N 
ATOM     19  H   UNL     1      11.246   6.528   2.183  0.00  0.00    +0.144 HD
ATOM     20  H   UNL     1      11.860   4.991   1.896  0.00  0.00    +0.144 HD
ATOM     21  N   UNL     1       9.712   3.868   1.330  0.00  0.00    -0.387 N 
ATOM     22  H   UNL     1      10.541   3.264   1.297  0.00  0.00    +0.157 HD
ENDBRANCH  11  16
ENDBRANCH   4   7
BRANCH   1  24
ATOM     23  C   UNL     1      -1.900   8.466   0.021  0.00  0.00    +0.047 C 
ATOM     24  C   UNL     1      -1.176   8.925   1.062  0.00  0.00    +0.011 C 
BRANCH  23  32
ATOM     25  C   UNL     1       0.427   5.676  -4.819  0.00  0.00    +0.013 A 
ATOM     26  C   UNL     1       1.627   6.067  -4.213  0.00  0.00    +0.015 A 
ATOM     27  C   UNL     1       1.619   6.766  -3.029  0.00  0.00    +0.047 A 
ATOM     28  C   UNL     1       0.413   7.093  -2.418  0.00  0.00    +0.136 A 
ATOM     29  C   UNL     1      -0.798   6.702  -3.022  0.00  0.00    +0.021 A 
ATOM     30  C   UNL     1      -0.788   5.993  -4.222  0.00  0.00    +0.023 A 
ATOM     31  C   UNL     1      -1.858   7.198  -2.142  0.00  0.00    +0.057 A 
ATOM     32  C   UNL     1      -1.228   7.819  -1.108  0.00  0.00    +0.129 A 
ATOM     33  O   UNL     1       0.107   7.754  -1.283  0.00  0.00    -0.455 OA
BRANCH  25  35
ATOM     34  H   UNL     1      -1.563   4.733  -6.317  0.00  0.00    +0.157 HD
ATOM     35  C   UNL     1       0.452   4.923  -6.093  0.00  0.00    +0.094 C 
ATOM     36  N   UNL     1       1.656   4.609  -6.684  0.00  0.00    -0.345 N 
ATOM     37  H   UNL     1       2.487   4.880  -6.265  0.00  0.00    +0.144 HD
ATOM     38  H   UNL     1       1.672   4.115  -7.519  0.00  0.00    +0.144 HD
ATOM     39  N   UNL     1      -0.648   4.524  -6.715  0.00  0.00    -0.387 N 
ATOM     40  H   UNL     1      -0.578   4.004  -7.598  0.00  0.00    +0.157 HD
ENDBRANCH  25  35
ENDBRANCH  23  32
ENDBRANCH   1  24
TORSDOF 5
