REMARK  Name = ZINC01224426
REMARK  8 active torsions:
REMARK  status: ('A' for Active; 'I' for Inactive)
REMARK    1  A    between atoms: C_1  and  C_2
REMARK    2  A    between atoms: C_5  and  C_8
REMARK    3  A    between atoms: C_11  and  S_13
REMARK    4  A    between atoms: S_13  and  C_14
REMARK    5  A    between atoms: C_14  and  C_16
REMARK    6  A    between atoms: C_14  and  C_17
REMARK    7  A    between atoms: N_19  and  C_20
REMARK    8  A    between atoms: C_23  and  C_26
REMARK                            x       y       z     vdW  Elec       q    Type
REMARK                         _______ _______ _______ _____ _____    ______ ____
ROOT
ATOM      1  S   UNL     1       0.145   0.975   2.729  0.00  0.00    -0.053 S 
ENDROOT
BRANCH   1   5
ATOM      2  C   UNL     1      -0.071  -2.897   2.841  0.00  0.00    +0.249 A 
ATOM      3  N   UNL     1      -0.734  -2.623   1.744  0.00  0.00    -0.106 NA
ATOM      4  N   UNL     1      -0.758  -1.349   1.566  0.00  0.00    -0.101 NA
ATOM      5  C   UNL     1      -0.102  -0.759   2.539  0.00  0.00    +0.278 A 
ATOM      6  O   UNL     1       0.344  -1.723   3.367  0.00  0.00    -0.411 OA
BRANCH   2  11
ATOM      7  C   UNL     1       0.902  -8.135   5.014  0.00  0.00    +0.044 C 
ATOM      8  C   UNL     1       0.646  -6.763   4.445  0.00  0.00    -0.050 A 
ATOM      9  C   UNL     1      -0.076  -6.627   3.273  0.00  0.00    +0.004 A 
ATOM     10  C   UNL     1      -0.313  -5.374   2.746  0.00  0.00    +0.013 A 
ATOM     11  C   UNL     1       0.178  -4.242   3.399  0.00  0.00    +0.039 A 
ATOM     12  C   UNL     1       0.910  -4.387   4.579  0.00  0.00    +0.013 A 
ATOM     13  C   UNL     1       1.136  -5.645   5.097  0.00  0.00    +0.004 A 
ENDBRANCH   2  11
ENDBRANCH   1   5
BRANCH   1  14
ATOM     14  C   UNL     1      -0.725   1.579   1.261  0.00  0.00    +0.139 C 
ATOM     15  C   UNL     1      -0.002   1.094   0.003  0.00  0.00    +0.029 C 
BRANCH  14  16
ATOM     16  C   UNL     1      -0.750   3.086   1.276  0.00  0.00    +0.230 C 
ATOM     17  O   UNL     1       0.103   3.700   1.881  0.00  0.00    -0.274 OA
ATOM     18  N   UNL     1      -1.721   3.751   0.618  0.00  0.00    -0.285 N 
ATOM     19  H   UNL     1      -2.363   3.263   0.080  0.00  0.00    +0.155 HD
BRANCH  18  20
ATOM     20  C   UNL     1      -1.801   5.144   0.712  0.00  0.00    +0.033 A 
ATOM     21  C   UNL     1      -3.040   5.771   0.710  0.00  0.00    +0.023 A 
ATOM     22  C   UNL     1      -3.117   7.147   0.808  0.00  0.00    +0.005 A 
ATOM     23  C   UNL     1      -1.961   7.900   0.896  0.00  0.00    -0.050 A 
ATOM     24  C   UNL     1      -0.725   7.279   0.893  0.00  0.00    +0.005 A 
ATOM     25  C   UNL     1      -0.642   5.904   0.801  0.00  0.00    +0.023 A 
ATOM     26  C   UNL     1      -2.047   9.402   0.997  0.00  0.00    +0.044 C 
ENDBRANCH  18  20
ENDBRANCH  14  16
ENDBRANCH   1  14
TORSDOF 5
