REMARK  Name = ZINC06045960
REMARK  12 active torsions:
REMARK  status: ('A' for Active; 'I' for Inactive)
REMARK    1  A    between atoms: C_1  and  C_2
REMARK    2  A    between atoms: C_2  and  N_60
REMARK    3  A    between atoms: C_5  and  C_6
REMARK    4  A    between atoms: C_9  and  O_15
REMARK    5  A    between atoms: C_10  and  O_12
REMARK    6  A    between atoms: O_12  and  C_13
REMARK    7  A    between atoms: C_13  and  C_14
REMARK    8  A    between atoms: C_19  and  C_20
REMARK    9  A    between atoms: C_23  and  O_29
REMARK   10  A    between atoms: C_24  and  O_26
REMARK   11  A    between atoms: O_26  and  C_27
REMARK   12  A    between atoms: C_27  and  C_28
REMARK                            x       y       z     vdW  Elec       q    Type
REMARK                         _______ _______ _______ _____ _____    ______ ____
ROOT
ATOM      1  C   UNL     1       2.506  -0.657  -5.998  0.00  0.00    -0.039 C 
ATOM      2  C   UNL     1       3.119  -1.418  -4.838  0.00  0.00    -0.016 C 
ATOM      3  C   UNL     1       2.662  -1.284  -3.574  0.00  0.00    +0.013 C 
ATOM      4  C   UNL     1       4.244  -2.321  -5.175  0.00  0.00    +0.182 C 
ATOM      5  O   UNL     1       4.408  -3.402  -4.634  0.00  0.00    -0.287 OA
ATOM      6  C   UNL     1       5.154  -1.802  -6.223  0.00  0.00    -0.016 C 
ATOM      7  C   UNL     1       6.489  -2.006  -6.176  0.00  0.00    +0.013 C 
ATOM      8  C   UNL     1       4.499  -1.028  -7.350  0.00  0.00    -0.039 C 
ATOM      9  N   UNL     1       3.606  -0.006  -6.755  0.00  0.00    +0.385 N 
ATOM     10  H   UNL     1       4.153   0.577  -6.110  0.00  0.00    -0.081 HD
ENDROOT
BRANCH   3  11
ATOM     11  C   UNL     1       1.457  -0.486  -3.309  0.00  0.00    -0.021 A 
ATOM     12  C   UNL     1       0.414  -0.457  -4.242  0.00  0.00    +0.012 A 
ATOM     13  C   UNL     1      -0.714   0.292  -3.990  0.00  0.00    +0.050 A 
ATOM     14  C   UNL     1      -0.823   1.015  -2.810  0.00  0.00    +0.158 A 
ATOM     15  C   UNL     1       0.214   0.996  -1.877  0.00  0.00    +0.162 A 
ATOM     16  C   UNL     1       1.349   0.248  -2.121  0.00  0.00    +0.057 A 
BRANCH  14  17
ATOM     17  O   UNL     1      -1.941   1.747  -2.565  0.00  0.00    -0.503 OA
ATOM     18  H   UNL     1      -1.895   2.656  -2.891  0.00  0.00    +0.292 HD
ENDBRANCH  14  17
BRANCH  15  19
ATOM     19  O   UNL     1       0.105   1.710  -0.725  0.00  0.00    -0.489 OA
BRANCH  19  20
ATOM     20  C   UNL     1       1.202   1.640   0.188  0.00  0.00    +0.226 C 
ATOM     21  C   UNL     1       0.900   2.501   1.416  0.00  0.00    +0.048 C 
ENDBRANCH  19  20
ENDBRANCH  15  19
ENDBRANCH   3  11
BRANCH   7  22
ATOM     22  C   UNL     1       7.330  -1.625  -7.319  0.00  0.00    -0.021 A 
ATOM     23  C   UNL     1       6.867  -1.813  -8.626  0.00  0.00    +0.012 A 
ATOM     24  C   UNL     1       7.656  -1.451  -9.695  0.00  0.00    +0.050 A 
ATOM     25  C   UNL     1       8.916  -0.907  -9.480  0.00  0.00    +0.158 A 
ATOM     26  C   UNL     1       9.387  -0.720  -8.180  0.00  0.00    +0.162 A 
ATOM     27  C   UNL     1       8.600  -1.076  -7.103  0.00  0.00    +0.057 A 
BRANCH  25  28
ATOM     28  O   UNL     1       9.692  -0.556 -10.538  0.00  0.00    -0.503 OA
ATOM     29  H   UNL     1      10.268  -1.265 -10.855  0.00  0.00    +0.292 HD
ENDBRANCH  25  28
BRANCH  26  30
ATOM     30  O   UNL     1      10.621  -0.187  -7.974  0.00  0.00    -0.489 OA
BRANCH  30  31
ATOM     31  C   UNL     1      11.039  -0.024  -6.618  0.00  0.00    +0.226 C 
ATOM     32  C   UNL     1      12.442   0.585  -6.586  0.00  0.00    +0.048 C 
ENDBRANCH  30  31
ENDBRANCH  26  30
ENDBRANCH   7  22
BRANCH   9  34
ATOM     33  C   UNL     1       2.309   2.023  -7.164  0.00  0.00    -0.017 C 
ATOM     34  C   UNL     1       3.046   0.852  -7.818  0.00  0.00    -0.081 C 
ENDBRANCH   9  34
TORSDOF 9
