REMARK  Name = ZINC62934732
REMARK  6 active torsions:
REMARK  status: ('A' for Active; 'I' for Inactive)
REMARK    1  A    between atoms: C_1  and  C_2
REMARK    2  A    between atoms: C_2  and  C_3
REMARK    3  A    between atoms: C_3  and  C_19
REMARK    4  A    between atoms: N_10  and  C_11
REMARK    5  A    between atoms: C_11  and  C_13
REMARK    6  A    between atoms: C_11  and  C_14
REMARK                            x       y       z     vdW  Elec       q    Type
REMARK                         _______ _______ _______ _____ _____    ______ ____
ROOT
ATOM      1  C   UNL     1       0.718  -0.497  -1.257  0.00  0.00    +0.089 C 
ATOM      2  C   UNL     1       0.686  -2.042  -1.322  0.00  0.00    +0.039 C 
ATOM      3  C   UNL     1      -0.519  -2.322  -2.255  0.00  0.00    +0.110 C 
ATOM      4  N   UNL     1      -0.429  -1.239  -3.260  0.00  0.00    -0.285 N 
ATOM      5  C   UNL     1      -0.032  -0.028  -2.518  0.00  0.00    +0.127 C 
ATOM      6  C   UNL     1      -0.663  -1.339  -4.584  0.00  0.00    +0.303 C 
ATOM      7  O   UNL     1      -0.550  -0.360  -5.297  0.00  0.00    -0.253 OA
ATOM      8  N   UNL     1      -1.021  -2.523  -5.118  0.00  0.00    -0.290 N 
ATOM      9  H   UNL     1      -1.111  -3.304  -4.549  0.00  0.00    +0.151 HD
ENDROOT
BRANCH   1  10
ATOM     10  C   UNL     1       2.140   0.000  -1.278  0.00  0.00    +0.364 C 
ATOM     11  O   UNL     1       2.561   0.683  -0.360  0.00  0.00    -0.246 OA
ATOM     12  O   UNL     1       2.870  -0.280  -2.213  0.00  0.00    -0.246 OA
ENDBRANCH   1  10
BRANCH   1  14
ATOM     13  C   UNL     1      -0.019   1.526   0.010  0.00  0.00    +0.005 C 
ATOM     14  C   UNL     1       0.002  -0.004   0.002  0.00  0.00    +0.016 C 
ENDBRANCH   1  14
BRANCH   8  15
ATOM     15  C   UNL     1      -1.274  -2.632  -6.557  0.00  0.00    +0.143 C 
ATOM     16  C   UNL     1       0.047  -2.866  -7.291  0.00  0.00    +0.036 C 
BRANCH  15  17
ATOM     17  C   UNL     1      -2.206  -3.788  -6.817  0.00  0.00    +0.197 A 
ATOM     18  N   UNL     1      -3.259  -3.788  -7.621  0.00  0.00    -0.109 NA
ATOM     19  N   UNL     1      -3.789  -4.962  -7.568  0.00  0.00    -0.021 NA
ATOM     20  N   UNL     1      -3.106  -5.695  -6.760  0.00  0.00    -0.021 NA
ATOM     21  N   UNL     1      -2.126  -5.000  -6.289  0.00  0.00    -0.109 NA
ENDBRANCH  15  17
ENDBRANCH   8  15
TORSDOF 4
