REMARK  Name = ZINC61330466
REMARK  4 active torsions:
REMARK  status: ('A' for Active; 'I' for Inactive)
REMARK    1  A    between atoms: C_6  and  N_11
REMARK    2  A    between atoms: C_12  and  C_14
REMARK    3  A    between atoms: C_16  and  N_21
REMARK    4  A    between atoms: C_18  and  N_20
REMARK                            x       y       z     vdW  Elec       q    Type
REMARK                         _______ _______ _______ _____ _____    ______ ____
ROOT
ATOM      1  N   UNL     1      -1.810  -0.914   1.365  0.00  0.00    -0.304 N 
ATOM      2  C   UNL     1      -2.625   0.065   1.807  0.00  0.00    +0.245 C 
ATOM      3  O   UNL     1      -2.905   0.996   1.078  0.00  0.00    -0.270 OA
ATOM      4  H   UNL     1      -1.587  -1.658   1.947  0.00  0.00    +0.150 HD
ENDROOT
BRANCH   1  10
ATOM      5  C   UNL     1      -0.017   1.391   0.010  0.00  0.00    +0.013 A 
ATOM      6  C   UNL     1       1.145   2.084   0.002  0.00  0.00    +0.046 A 
ATOM      7  S   UNL     1       2.356   0.771  -0.016  0.00  0.00    -0.101 S 
ATOM      8  C   UNL     1       1.227  -0.595  -0.012  0.00  0.00    -0.005 A 
ATOM      9  C   UNL     1       0.002  -0.004   0.002  0.00  0.00    -0.017 A 
ATOM     10  C   UNL     1      -1.264  -0.856   0.007  0.00  0.00    +0.104 C 
ATOM     11  C   UNL     1      -0.910  -2.267  -0.467  0.00  0.00    +0.027 C 
ATOM     12  C   UNL     1       0.255  -2.821   0.358  0.00  0.00    +0.007 C 
ATOM     13  C   UNL     1       1.533  -2.058  -0.020  0.00  0.00    +0.043 C 
ENDBRANCH   1  10
BRANCH   2  14
ATOM     14  C   UNL     1      -3.176   0.006   3.177  0.00  0.00    +0.040 A 
ATOM     15  C   UNL     1      -2.851  -1.059   4.017  0.00  0.00    +0.036 A 
ATOM     16  C   UNL     1      -3.370  -1.111   5.302  0.00  0.00    +0.027 A 
ATOM     17  C   UNL     1      -4.213  -0.104   5.753  0.00  0.00    +0.045 A 
ATOM     18  C   UNL     1      -4.540   0.958   4.920  0.00  0.00    +0.027 A 
ATOM     19  C   UNL     1      -4.019   1.019   3.635  0.00  0.00    +0.036 A 
BRANCH  18  20
ATOM     20  N   UNL     1      -5.388   1.968   5.378  0.00  0.00    -0.358 N 
ATOM     21  H   UNL     1      -5.749   1.928   6.277  0.00  0.00    +0.142 HD
ATOM     22  H   UNL     1      -5.617   2.710   4.796  0.00  0.00    +0.142 HD
ENDBRANCH  18  20
BRANCH  16  23
ATOM     23  N   UNL     1      -3.045  -2.178   6.144  0.00  0.00    -0.358 N 
ATOM     24  H   UNL     1      -2.456  -2.882   5.829  0.00  0.00    +0.142 HD
ATOM     25  H   UNL     1      -3.408  -2.215   7.043  0.00  0.00    +0.142 HD
ENDBRANCH  16  23
ENDBRANCH   2  14
TORSDOF 4
