REMARK  Name = ZINC05151769
REMARK  9 active torsions:
REMARK  status: ('A' for Active; 'I' for Inactive)
REMARK    1  A    between atoms: C_1  and  C_2
REMARK    2  A    between atoms: C_5  and  C_7
REMARK    3  A    between atoms: C_7  and  C_9
REMARK    4  A    between atoms: C_9  and  C_10
REMARK    5  A    between atoms: C_10  and  C_11
REMARK    6  A    between atoms: C_11  and  O_13
REMARK    7  A    between atoms: O_13  and  C_14
REMARK    8  A    between atoms: C_14  and  C_16
REMARK    9  A    between atoms: C_14  and  C_17
REMARK                            x       y       z     vdW  Elec       q    Type
REMARK                         _______ _______ _______ _____ _____    ______ ____
ROOT
ATOM      1  C   UNL     1       6.212  -6.078  -0.091  0.00  0.00    +0.239 C 
ATOM      2  C   UNL     1       6.692  -6.194  -1.539  0.00  0.00    +0.060 C 
ENDROOT
BRANCH   1   3
ATOM      3  C   UNL     1       6.404  -7.398   0.610  0.00  0.00    +0.151 A 
ATOM      4  N   UNL     1       6.338  -7.422   1.967  0.00  0.00    -0.307 N 
ATOM      5  H   UNL     1       6.170  -6.575   2.470  0.00  0.00    +0.170 HD
ATOM      6  C   UNL     1       6.499  -8.584   2.644  0.00  0.00    +0.259 A 
ATOM      7  O   UNL     1       6.438  -8.621   3.859  0.00  0.00    -0.267 OA
ATOM      8  C   UNL     1       6.756  -9.797   1.854  0.00  0.00    +0.065 A 
ATOM      9  C   UNL     1       6.942 -11.041   2.453  0.00  0.00    +0.015 A 
ATOM     10  C   UNL     1       7.180 -12.146   1.665  0.00  0.00    +0.001 A 
ATOM     11  C   UNL     1       7.237 -12.028   0.283  0.00  0.00    +0.002 A 
ATOM     12  C   UNL     1       7.056 -10.808  -0.329  0.00  0.00    +0.028 A 
ATOM     13  C   UNL     1       6.813  -9.673   0.448  0.00  0.00    +0.078 A 
ATOM     14  N   UNL     1       6.630  -8.452  -0.113  0.00  0.00    -0.230 NA
ENDBRANCH   1   3
BRANCH   1  15
ATOM     15  O   UNL     1       4.804  -5.723  -0.076  0.00  0.00    -0.454 OA
BRANCH  15  16
ATOM     16  C   UNL     1       4.505  -4.414  -0.065  0.00  0.00    +0.308 C 
ATOM     17  O   UNL     1       5.391  -3.592  -0.069  0.00  0.00    -0.251 OA
BRANCH  16  18
ATOM     18  C   UNL     1       3.065  -3.969  -0.049  0.00  0.00    +0.128 C 
BRANCH  18  19
ATOM     19  C   UNL     1       3.004  -2.441  -0.040  0.00  0.00    +0.091 C 
BRANCH  19  20
ATOM     20  C   UNL     1       1.564  -1.996  -0.024  0.00  0.00    +0.170 C 
ATOM     21  O   UNL     1       0.673  -2.822  -0.020  0.00  0.00    -0.291 OA
BRANCH  20  26
ATOM     22  C   UNL     1       1.380   3.538   0.007  0.00  0.00    +0.051 C 
ATOM     23  C   UNL     1       1.161   2.047   0.002  0.00  0.00    -0.013 A 
ATOM     24  C   UNL     1      -0.017   1.366   0.010  0.00  0.00    +0.011 A 
ATOM     25  C   UNL     1       0.002  -0.004   0.002  0.00  0.00    +0.019 A 
ATOM     26  C   UNL     1       1.250  -0.619  -0.013  0.00  0.00    +0.055 A 
ATOM     27  S   UNL     1       2.350   0.785  -0.016  0.00  0.00    -0.091 S 
ENDBRANCH  20  26
ENDBRANCH  19  20
ENDBRANCH  18  19
ENDBRANCH  16  18
ENDBRANCH  15  16
ENDBRANCH   1  15
TORSDOF 7
