REMARK  Name = ZINC02520133
REMARK  7 active torsions:
REMARK  status: ('A' for Active; 'I' for Inactive)
REMARK    1  A    between atoms: C_1  and  C_2
REMARK    2  A    between atoms: C_5  and  S_8
REMARK    3  A    between atoms: S_8  and  N_11
REMARK    4  A    between atoms: N_11  and  C_12
REMARK    5  A    between atoms: C_15  and  C_18
REMARK    6  A    between atoms: N_20  and  N_21
REMARK    7  A    between atoms: C_22  and  C_23
REMARK                            x       y       z     vdW  Elec       q    Type
REMARK                         _______ _______ _______ _____ _____    ______ ____
ROOT
ATOM      1  C   UNL     1       1.285  12.816   0.078  0.00  0.00    +0.048 A 
ATOM      2  C   UNL     1       2.541  12.219   0.136  0.00  0.00    +0.025 A 
ATOM      3  C   UNL     1       2.654  10.848   0.151  0.00  0.00    +0.015 A 
ATOM      4  C   UNL     1       1.504  10.053   0.109  0.00  0.00    +0.038 A 
ATOM      5  C   UNL     1       0.244  10.655   0.045  0.00  0.00    +0.015 A 
ATOM      6  C   UNL     1       0.138  12.027   0.035  0.00  0.00    +0.025 A 
ENDROOT
BRANCH   4   7
ATOM      7  C   UNL     1       1.621   8.583   0.125  0.00  0.00    +0.263 C 
ATOM      8  O   UNL     1       2.718   8.061   0.176  0.00  0.00    -0.268 OA
ATOM      9  N   UNL     1       0.511   7.819   0.084  0.00  0.00    -0.203 N 
ATOM     10  H   UNL     1      -0.364   8.235   0.044  0.00  0.00    +0.178 HD
BRANCH   9  11
ATOM     11  N   UNL     1       0.622   6.422   0.100  0.00  0.00    -0.187 NA
ATOM     12  C   UNL     1      -0.446   5.686   0.060  0.00  0.00    +0.145 C 
BRANCH  12  13
ATOM     13  C   UNL     1      -0.330   4.217   0.076  0.00  0.00    +0.077 A 
ATOM     14  C   UNL     1      -1.442   3.430   0.035  0.00  0.00    +0.209 A 
ATOM     15  O   UNL     1      -1.378   2.097   0.042  0.00  0.00    -0.462 OA
ATOM     16  C   UNL     1      -0.220   1.411   0.101  0.00  0.00    +0.138 A 
ATOM     17  C   UNL     1      -0.223   0.020   0.112  0.00  0.00    +0.047 A 
ATOM     18  C   UNL     1       0.967  -0.672   0.167  0.00  0.00    +0.004 A 
ATOM     19  C   UNL     1       2.178   0.003   0.214  0.00  0.00    +0.001 A 
ATOM     20  C   UNL     1       2.205   1.380   0.205  0.00  0.00    +0.015 A 
ATOM     21  C   UNL     1       1.007   2.092   0.149  0.00  0.00    +0.065 A 
ATOM     22  C   UNL     1       0.993   3.567   0.137  0.00  0.00    +0.201 A 
ATOM     23  O   UNL     1       2.023   4.217   0.177  0.00  0.00    -0.286 OA
ENDBRANCH  12  13
ENDBRANCH   9  11
ENDBRANCH   4   7
BRANCH   1  24
ATOM     24  N   UNL     1       1.175  14.202   0.063  0.00  0.00    -0.216 N 
ATOM     25  H   UNL     1       1.689  14.736   0.688  0.00  0.00    +0.174 HD
BRANCH  24  26
ATOM     26  S   UNL     1       0.165  14.941  -1.022  0.00  0.00    +0.072 S 
ATOM     27  O   UNL     1      -1.106  14.320  -0.882  0.00  0.00    -0.150 OA
ATOM     28  O   UNL     1       0.351  16.340  -0.863  0.00  0.00    -0.150 OA
BRANCH  26  33
ATOM     29  C   UNL     1       2.160  13.553  -6.545  0.00  0.00    +0.044 C 
ATOM     30  C   UNL     1       1.661  13.900  -5.166  0.00  0.00    -0.050 A 
ATOM     31  C   UNL     1       0.656  13.149  -4.585  0.00  0.00    +0.005 A 
ATOM     32  C   UNL     1       0.199  13.467  -3.320  0.00  0.00    +0.029 A 
ATOM     33  C   UNL     1       0.748  14.535  -2.635  0.00  0.00    +0.109 A 
ATOM     34  C   UNL     1       1.750  15.289  -3.218  0.00  0.00    +0.029 A 
ATOM     35  C   UNL     1       2.210  14.968  -4.481  0.00  0.00    +0.005 A 
ENDBRANCH  26  33
ENDBRANCH  24  26
ENDBRANCH   1  24
TORSDOF 6
