REMARK  Name = ZINC36302224
REMARK  17 active torsions:
REMARK  status: ('A' for Active; 'I' for Inactive)
REMARK    1  A    between atoms: C_1  and  C_2
REMARK    2  A    between atoms: C_2  and  O_3
REMARK    3  A    between atoms: O_3  and  C_4
REMARK    4  A    between atoms: C_4  and  C_5
REMARK    5  A    between atoms: C_5  and  C_7
REMARK    6  A    between atoms: C_5  and  O_39
REMARK    7  A    between atoms: C_7  and  N_8
REMARK    8  A    between atoms: N_8  and  C_9
REMARK    9  A    between atoms: N_8  and  C_17
REMARK   10  A    between atoms: C_9  and  C_10
REMARK   11  A    between atoms: C_17  and  C_18
REMARK   12  A    between atoms: C_19  and  C_38
REMARK   13  A    between atoms: N_21  and  C_32
REMARK   14  A    between atoms: C_22  and  O_23
REMARK   15  A    between atoms: O_23  and  C_24
REMARK   16  A    between atoms: C_29  and  O_30
REMARK   17  A    between atoms: O_30  and  C_31
REMARK                            x       y       z     vdW  Elec       q    Type
REMARK                         _______ _______ _______ _____ _____    ______ ____
ROOT
ATOM      1  C   UNL     1       4.186  -6.189   4.849  0.00  0.00    +0.021 A 
ATOM      2  C   UNL     1       5.496  -5.828   4.520  0.00  0.00    +0.065 A 
ATOM      3  N   UNL     1       6.238  -5.939   5.592  0.00  0.00    -0.168 NA
ATOM      4  N   UNL     1       5.427  -6.376   6.647  0.00  0.00    -0.200 N 
ATOM      5  C   UNL     1       4.162  -6.518   6.168  0.00  0.00    +0.225 A 
ATOM      6  C   UNL     1       5.973  -5.385   3.161  0.00  0.00    +0.068 C 
ENDROOT
BRANCH   4   7
ATOM      7  C   UNL     1       5.844  -6.618   7.964  0.00  0.00    +0.069 A 
ATOM      8  C   UNL     1       5.079  -6.165   9.030  0.00  0.00    +0.028 A 
ATOM      9  C   UNL     1       5.492  -6.405  10.326  0.00  0.00    +0.002 A 
ATOM     10  C   UNL     1       6.667  -7.095  10.562  0.00  0.00    +0.000 A 
ATOM     11  C   UNL     1       7.432  -7.547   9.502  0.00  0.00    +0.002 A 
ATOM     12  C   UNL     1       7.020  -7.316   8.204  0.00  0.00    +0.028 A 
ENDBRANCH   4   7
BRANCH   1  13
ATOM     13  C   UNL     1       3.007  -6.203   3.910  0.00  0.00    -0.035 C 
BRANCH  13  14
ATOM     14  N   UNL     1       2.349  -4.890   3.930  0.00  0.00    +0.387 N 
ATOM     15  H   UNL     1       2.104  -4.651   4.879  0.00  0.00    -0.081 HD
BRANCH  14  16
ATOM     16  C   UNL     1       1.133  -4.940   3.108  0.00  0.00    -0.044 C 
BRANCH  16  17
ATOM     17  C   UNL     1       0.233  -3.752   3.457  0.00  0.00    +0.124 C 
BRANCH  17  18
ATOM     18  O   UNL     1      -0.058  -3.769   4.856  0.00  0.00    -0.391 OA
ATOM     19  H   UNL     1      -0.513  -4.569   5.153  0.00  0.00    +0.210 HD
ENDBRANCH  17  18
BRANCH  17  20
ATOM     20  C   UNL     1      -1.072  -3.851   2.663  0.00  0.00    +0.189 C 
BRANCH  20  21
ATOM     21  O   UNL     1      -1.862  -2.684   2.900  0.00  0.00    -0.378 OA
BRANCH  21  23
ATOM     22  C   UNL     1      -3.867  -1.387   2.527  0.00  0.00    +0.034 C 
ATOM     23  C   UNL     1      -3.109  -2.675   2.201  0.00  0.00    +0.156 C 
ENDBRANCH  21  23
ENDBRANCH  20  21
ENDBRANCH  17  20
ENDBRANCH  16  17
ENDBRANCH  14  16
BRANCH  14  24
ATOM     24  C   UNL     1       3.264  -3.876   3.389  0.00  0.00    -0.042 C 
BRANCH  24  25
ATOM     25  C   UNL     1       2.666  -2.506   3.581  0.00  0.00    -0.064 A 
ATOM     26  C   UNL     1       2.369  -1.722   2.482  0.00  0.00    +0.004 A 
ATOM     27  C   UNL     1       1.820  -0.466   2.657  0.00  0.00    +0.038 A 
ATOM     28  C   UNL     1       1.567   0.007   3.934  0.00  0.00    +0.123 A 
ATOM     29  C   UNL     1       1.865  -0.779   5.034  0.00  0.00    +0.038 A 
ATOM     30  C   UNL     1       2.409  -2.037   4.856  0.00  0.00    +0.004 A 
ATOM     31  F   UNL     1       1.030   1.235   4.106  0.00  0.00    -0.205 F 
ENDBRANCH  24  25
ENDBRANCH  14  24
ENDBRANCH  13  14
ENDBRANCH   1  13
BRANCH   5  32
ATOM     32  O   UNL     1       3.076  -6.920   6.876  0.00  0.00    -0.434 OA
BRANCH  32  33
ATOM     33  C   UNL     1       2.856  -8.255   7.006  0.00  0.00    +0.172 A 
ATOM     34  C   UNL     1       3.781  -9.162   6.514  0.00  0.00    +0.050 A 
ATOM     35  C   UNL     1       3.556 -10.520   6.648  0.00  0.00    +0.004 A 
ATOM     36  C   UNL     1       2.409 -10.976   7.271  0.00  0.00    +0.004 A 
ATOM     37  C   UNL     1       1.482 -10.076   7.763  0.00  0.00    +0.049 A 
ATOM     38  C   UNL     1       1.704  -8.714   7.638  0.00  0.00    +0.162 A 
BRANCH  38  39
ATOM     39  O   UNL     1       0.796  -7.828   8.127  0.00  0.00    -0.491 OA
ATOM     40  C   UNL     1      -0.363  -8.371   8.763  0.00  0.00    +0.277 C 
ENDBRANCH  38  39
ENDBRANCH  32  33
ENDBRANCH   5  32
TORSDOF 14
