REMARK  Name = ZINC12513538
REMARK  5 active torsions:
REMARK  status: ('A' for Active; 'I' for Inactive)
REMARK    1  A    between atoms: C_3  and  S_6
REMARK    2  A    between atoms: S_6  and  N_9
REMARK    3  A    between atoms: N_9  and  C_10
REMARK    4  A    between atoms: C_10  and  C_11
REMARK    5  A    between atoms: C_19  and  N_21
REMARK                            x       y       z     vdW  Elec       q    Type
REMARK                         _______ _______ _______ _____ _____    ______ ____
ROOT
ATOM      1  C   UNL     1      -3.512   3.141   0.286  0.00  0.00    +0.147 A 
ATOM      2  N   UNL     1      -2.414   3.820   0.057  0.00  0.00    -0.231 NA
ATOM      3  C   UNL     1      -1.262   3.183  -0.204  0.00  0.00    +0.076 A 
ATOM      4  C   UNL     1      -0.070   3.876  -0.454  0.00  0.00    +0.030 A 
ATOM      5  C   UNL     1       1.072   3.179  -0.713  0.00  0.00    +0.022 A 
ATOM      6  C   UNL     1       1.074   1.786  -0.733  0.00  0.00    +0.042 A 
ATOM      7  C   UNL     1      -0.069   1.081  -0.494  0.00  0.00    +0.033 A 
ATOM      8  C   UNL     1      -1.260   1.767  -0.230  0.00  0.00    +0.042 A 
ATOM      9  C   UNL     1      -2.476   1.091   0.031  0.00  0.00    +0.133 A 
ATOM     10  N   UNL     1      -3.557   1.819   0.277  0.00  0.00    -0.215 NA
ATOM     11 CL   UNL     1       2.551   0.937  -1.067  0.00  0.00    -0.084 Cl
ENDROOT
BRANCH   9  12
ATOM     12  N   UNL     1      -2.537  -0.287   0.025  0.00  0.00    -0.315 N 
ATOM     13  C   UNL     1      -2.489  -0.828   1.407  0.00  0.00    +0.106 C 
ATOM     14  C   UNL     1      -3.082  -2.251   1.251  0.00  0.00    +0.020 C 
ATOM     15  C   UNL     1      -4.200  -2.046   0.203  0.00  0.00    +0.020 C 
ATOM     16  C   UNL     1      -3.816  -0.759  -0.549  0.00  0.00    +0.106 C 
ENDBRANCH   9  12
BRANCH   1  17
ATOM     17  C   UNL     1      -4.781   3.902   0.574  0.00  0.00    +0.182 C 
BRANCH  17  18
ATOM     18  N   UNL     1      -5.487   4.168  -0.682  0.00  0.00    -0.182 NA
ATOM     19  H   UNL     1      -5.026   4.062  -1.529  0.00  0.00    +0.148 HD
BRANCH  18  20
ATOM     20  S   UNL     1      -7.070   4.651  -0.655  0.00  0.00    +0.065 S 
ATOM     21  O   UNL     1      -7.456   4.852  -2.008  0.00  0.00    -0.153 OA
ATOM     22  O   UNL     1      -7.755   3.752   0.206  0.00  0.00    -0.153 OA
BRANCH  20  25
ATOM     23  C   UNL     1      -7.085   8.576   0.378  0.00  0.00    +0.010 A 
ATOM     24  C   UNL     1      -7.013   7.462  -0.436  0.00  0.00    +0.036 A 
ATOM     25  C   UNL     1      -7.120   6.231   0.122  0.00  0.00    +0.142 A 
ATOM     26  S   UNL     1      -7.318   6.627   1.852  0.00  0.00    -0.077 S 
ATOM     27  C   UNL     1      -7.251   8.406   1.712  0.00  0.00    +0.047 A 
ENDBRANCH  20  25
ENDBRANCH  18  20
ENDBRANCH  17  18
ENDBRANCH   1  17
TORSDOF 5
