REMARK  Name = ZINC58357755
REMARK  11 active torsions:
REMARK  status: ('A' for Active; 'I' for Inactive)
REMARK    1  A    between atoms: C_1  and  C_2
REMARK    2  A    between atoms: C_2  and  C_3
REMARK    3  A    between atoms: C_3  and  C_36
REMARK    4  A    between atoms: N_6  and  N_10
REMARK    5  A    between atoms: C_11  and  C_13
REMARK    6  A    between atoms: C_13  and  N_14
REMARK    7  A    between atoms: N_14  and  C_15
REMARK    8  A    between atoms: N_14  and  C_25
REMARK    9  A    between atoms: C_15  and  C_16
REMARK   10  A    between atoms: C_30  and  C_35
REMARK   11  A    between atoms: C_32  and  C_34
REMARK                            x       y       z     vdW  Elec       q    Type
REMARK                         _______ _______ _______ _____ _____    ______ ____
ROOT
ATOM      1  N   UNL     1      -5.380  -5.925  -2.771  0.00  0.00    +0.390 N 
ATOM      2  H   UNL     1      -5.766  -5.588  -3.641  0.00  0.00    -0.080 HD
ENDROOT
BRANCH   1   3
ATOM      3  C   UNL     1      -4.913  -4.786  -1.969  0.00  0.00    -0.064 C 
ATOM      4  C   UNL     1      -6.055  -4.281  -1.086  0.00  0.00    -0.015 C 
ATOM      5  C   UNL     1      -5.568  -3.095  -0.251  0.00  0.00    -0.001 C 
ATOM      6  C   UNL     1      -5.107  -1.972  -1.181  0.00  0.00    +0.003 C 
ATOM      7  C   UNL     1      -3.965  -2.477  -2.065  0.00  0.00    -0.013 C 
ATOM      8  C   UNL     1      -4.452  -3.663  -2.900  0.00  0.00    -0.025 C 
ATOM      9  C   UNL     1      -5.621  -3.219  -3.781  0.00  0.00    +0.006 C 
ATOM     10  C   UNL     1      -3.505  -1.353  -2.995  0.00  0.00    +0.008 C 
ENDBRANCH   1   3
BRANCH   1  11
ATOM     11  C   UNL     1      -4.252  -6.824  -3.051  0.00  0.00    +0.021 C 
BRANCH  11  13
ATOM     12  N   UNL     1      -2.291  -6.857  -4.558  0.00  0.00    -0.225 N 
ATOM     13  C   UNL     1      -3.475  -6.302  -4.232  0.00  0.00    +0.213 C 
ATOM     14  O   UNL     1      -3.916  -5.382  -4.889  0.00  0.00    -0.276 OA
ATOM     15  H   UNL     1      -1.939  -7.592  -4.032  0.00  0.00    +0.173 HD
BRANCH  12  19
ATOM     16  C   UNL     1      -0.032  -5.325  -6.982  0.00  0.00    +0.111 C 
ATOM     17  C   UNL     1      -0.466  -5.604  -5.557  0.00  0.00    +0.263 C 
ATOM     18  O   UNL     1       0.067  -5.216  -4.540  0.00  0.00    -0.271 OA
ATOM     19  N   UNL     1      -1.569  -6.372  -5.656  0.00  0.00    -0.137 N 
ATOM     20  C   UNL     1      -1.889  -6.615  -6.932  0.00  0.00    +0.326 C 
ATOM     21  O   UNL     1      -2.844  -7.284  -7.274  0.00  0.00    -0.251 OA
ATOM     22  N   UNL     1      -1.034  -6.035  -7.795  0.00  0.00    -0.284 N 
ATOM     23  C   UNL     1      -0.067  -3.824  -7.275  0.00  0.00    +0.041 C 
ATOM     24  H   UNL     1      -1.072  -6.076  -8.764  0.00  0.00    +0.151 HD
BRANCH  16  26
ATOM     25  C   UNL     1       1.735  -5.691  -8.711  0.00  0.00    +0.006 C 
ATOM     26  C   UNL     1       1.367  -5.889  -7.239  0.00  0.00    +0.032 C 
ENDBRANCH  16  26
ENDBRANCH  12  19
ENDBRANCH  11  13
ENDBRANCH   1  11
BRANCH   1  27
ATOM     27  C   UNL     1      -6.415  -6.655  -2.027  0.00  0.00    -0.042 C 
BRANCH  27  28
ATOM     28  C   UNL     1      -7.724  -5.915  -2.128  0.00  0.00    -0.060 A 
ATOM     29  C   UNL     1      -8.519  -5.762  -1.008  0.00  0.00    +0.005 A 
ATOM     30  C   UNL     1      -9.719  -5.083  -1.095  0.00  0.00    +0.050 A 
ATOM     31  C   UNL     1     -10.130  -4.554  -2.308  0.00  0.00    +0.166 A 
ATOM     32  C   UNL     1      -9.329  -4.708  -3.438  0.00  0.00    +0.166 A 
ATOM     33  C   UNL     1      -8.124  -5.385  -3.341  0.00  0.00    +0.051 A 
ATOM     34  O   UNL     1      -9.947  -4.105  -4.495  0.00  0.00    -0.453 OA
ATOM     35  C   UNL     1     -11.319  -3.936  -4.094  0.00  0.00    +0.466 C 
ATOM     36  O   UNL     1     -11.248  -3.854  -2.659  0.00  0.00    -0.453 OA
ENDBRANCH  27  28
ENDBRANCH   1  27
TORSDOF 7
