REMARK  Name = ZINC36610090
REMARK  10 active torsions:
REMARK  status: ('A' for Active; 'I' for Inactive)
REMARK    1  A    between atoms: C_1  and  C_2
REMARK    2  A    between atoms: C_2  and  C_4
REMARK    3  A    between atoms: C_2  and  C_10
REMARK    4  A    between atoms: C_10  and  C_12
REMARK    5  A    between atoms: C_10  and  N_21
REMARK    6  A    between atoms: N_14  and  C_15
REMARK    7  A    between atoms: N_21  and  C_22
REMARK    8  A    between atoms: C_28  and  C_30
REMARK    9  A    between atoms: C_31  and  O_37
REMARK   10  A    between atoms: C_35  and  O_36
REMARK                            x       y       z     vdW  Elec       q    Type
REMARK                         _______ _______ _______ _____ _____    ______ ____
ROOT
ATOM      1  C   UNL     1      -1.604  -0.711  -0.066  0.00  0.00    +0.174 C 
ENDROOT
BRANCH   1   2
ATOM      2  C   UNL     1      -1.861  -2.170  -0.341  0.00  0.00    +0.235 C 
ATOM      3  O   UNL     1      -2.487  -2.501  -1.325  0.00  0.00    -0.274 OA
ATOM      4  N   UNL     1      -1.394  -3.108   0.508  0.00  0.00    -0.311 N 
ATOM      5  H   UNL     1      -0.893  -2.843   1.295  0.00  0.00    +0.149 HD
BRANCH   4   6
ATOM      6  C   UNL     1      -1.644  -4.526   0.241  0.00  0.00    +0.073 C 
ATOM      7  C   UNL     1      -3.015  -4.916   0.796  0.00  0.00    +0.022 C 
ATOM      8  C   UNL     1      -3.276  -6.398   0.517  0.00  0.00    +0.002 C 
ATOM      9  C   UNL     1      -2.193  -7.242   1.193  0.00  0.00    +0.000 C 
ATOM     10  C   UNL     1      -0.822  -6.852   0.638  0.00  0.00    +0.002 C 
ATOM     11  C   UNL     1      -0.561  -5.370   0.916  0.00  0.00    +0.022 C 
ENDBRANCH   4   6
ENDBRANCH   1   2
BRANCH   1  12
ATOM     12  N   UNL     1      -2.209   0.100  -1.126  0.00  0.00    -0.255 N 
ATOM     13  C   UNL     1      -3.082   1.077  -0.812  0.00  0.00    +0.259 C 
ATOM     14  O   UNL     1      -3.439   1.226   0.341  0.00  0.00    -0.269 OA
BRANCH  12  15
ATOM     15  C   UNL     1      -1.880  -0.141  -2.464  0.00  0.00    +0.037 A 
ATOM     16  C   UNL     1      -2.839  -0.634  -3.339  0.00  0.00    +0.023 A 
ATOM     17  C   UNL     1      -2.511  -0.870  -4.660  0.00  0.00    +0.002 A 
ATOM     18  C   UNL     1      -1.228  -0.618  -5.111  0.00  0.00    +0.000 A 
ATOM     19  C   UNL     1      -0.271  -0.128  -4.242  0.00  0.00    +0.002 A 
ATOM     20  C   UNL     1      -0.594   0.117  -2.922  0.00  0.00    +0.023 A 
ENDBRANCH  12  15
BRANCH  13  21
ATOM     21  C   UNL     1      -3.605   1.963  -1.865  0.00  0.00    +0.120 A 
ATOM     22  C   UNL     1      -4.843   1.692  -2.467  0.00  0.00    +0.133 A 
ATOM     23  C   UNL     1      -5.325   2.533  -3.456  0.00  0.00    +0.046 A 
ATOM     24  C   UNL     1      -4.591   3.636  -3.852  0.00  0.00    +0.007 A 
ATOM     25  C   UNL     1      -3.369   3.912  -3.266  0.00  0.00    +0.046 A 
ATOM     26  C   UNL     1      -2.870   3.087  -2.271  0.00  0.00    +0.133 A 
BRANCH  26  27
ATOM     27  O   UNL     1      -1.674   3.364  -1.694  0.00  0.00    -0.506 OA
ATOM     28  H   UNL     1      -0.919   2.956  -2.140  0.00  0.00    +0.292 HD
ENDBRANCH  26  27
BRANCH  22  29
ATOM     29  O   UNL     1      -5.565   0.611  -2.081  0.00  0.00    -0.506 OA
ATOM     30  H   UNL     1      -6.179   0.787  -1.355  0.00  0.00    +0.292 HD
ENDBRANCH  22  29
ENDBRANCH  13  21
ENDBRANCH   1  12
BRANCH   1  32
ATOM     31  C   UNL     1       0.165   1.040   0.154  0.00  0.00    +0.015 C 
ATOM     32  C   UNL     1      -0.096  -0.457  -0.027  0.00  0.00    +0.046 C 
BRANCH  32  33
ATOM     33  C   UNL     1       0.512  -1.215   1.124  0.00  0.00    -0.042 A 
ATOM     34  C   UNL     1       0.093  -0.962   2.417  0.00  0.00    +0.004 A 
ATOM     35  C   UNL     1       0.650  -1.658   3.473  0.00  0.00    +0.000 A 
ATOM     36  C   UNL     1       1.627  -2.607   3.237  0.00  0.00    +0.000 A 
ATOM     37  C   UNL     1       2.046  -2.861   1.944  0.00  0.00    +0.000 A 
ATOM     38  C   UNL     1       1.485  -2.168   0.888  0.00  0.00    +0.004 A 
ENDBRANCH  32  33
ENDBRANCH   1  32
TORSDOF 9
