REMARK  Name = ZINC03170636
REMARK  7 active torsions:
REMARK  status: ('A' for Active; 'I' for Inactive)
REMARK    1  A    between atoms: C_1  and  C_2
REMARK    2  A    between atoms: C_5  and  S_8
REMARK    3  A    between atoms: S_8  and  O_11
REMARK    4  A    between atoms: O_11  and  C_12
REMARK    5  A    between atoms: C_15  and  C_18
REMARK    6  A    between atoms: N_19  and  N_20
REMARK    7  A    between atoms: C_21  and  C_23
REMARK                            x       y       z     vdW  Elec       q    Type
REMARK                         _______ _______ _______ _____ _____    ______ ____
ROOT
ATOM      1  C   UNL     1      -7.175  -0.386   0.035  0.00  0.00    +0.157 A 
ATOM      2  C   UNL     1      -7.196   1.003   0.042  0.00  0.00    +0.049 A 
ATOM      3  C   UNL     1      -6.014   1.712   0.040  0.00  0.00    +0.013 A 
ATOM      4  C   UNL     1      -4.794   1.032   0.030  0.00  0.00    -0.005 A 
ATOM      5  C   UNL     1      -4.777  -0.365   0.017  0.00  0.00    +0.013 A 
ATOM      6  C   UNL     1      -5.964  -1.066   0.025  0.00  0.00    +0.049 A 
ENDROOT
BRANCH   4   7
ATOM      7  C   UNL     1      -3.527   1.786   0.029  0.00  0.00    +0.138 C 
ATOM      8  N   UNL     1      -2.394   1.153   0.020  0.00  0.00    -0.187 NA
BRANCH   8   9
ATOM      9  N   UNL     1      -1.191   1.870   0.018  0.00  0.00    -0.203 N 
ATOM     10  C   UNL     1      -0.014   1.212   0.009  0.00  0.00    +0.263 C 
ATOM     11  O   UNL     1       0.002  -0.004   0.002  0.00  0.00    -0.268 OA
ATOM     12  H   UNL     1      -1.204   2.840   0.023  0.00  0.00    +0.178 HD
BRANCH  10  13
ATOM     13  C   UNL     1       1.255   1.968   0.001  0.00  0.00    +0.039 A 
ATOM     14  C   UNL     1       1.240   3.364   0.002  0.00  0.00    +0.013 A 
ATOM     15  C   UNL     1       2.428   4.064  -0.001  0.00  0.00    +0.002 A 
ATOM     16  C   UNL     1       3.634   3.387  -0.016  0.00  0.00    +0.015 A 
ATOM     17  C   UNL     1       3.657   2.003  -0.023  0.00  0.00    +0.019 A 
ATOM     18  C   UNL     1       2.475   1.290  -0.015  0.00  0.00    +0.028 A 
ATOM     19 BR   UNL     1       5.311   1.086  -0.043  0.00  0.00    -0.050 Br
ENDBRANCH  10  13
ENDBRANCH   8   9
ENDBRANCH   4   7
BRANCH   1  20
ATOM     20  O   UNL     1      -8.342  -1.081   0.036  0.00  0.00    -0.342 OA
BRANCH  20  21
ATOM     21  S   UNL     1      -8.880  -1.391  -1.353  0.00  0.00    +0.151 S 
ATOM     22  O   UNL     1     -10.184  -1.925  -1.174  0.00  0.00    -0.131 OA
ATOM     23  O   UNL     1      -8.630  -0.241  -2.151  0.00  0.00    -0.131 OA
BRANCH  21  28
ATOM     24  C   UNL     1      -5.494  -5.837  -3.628  0.00  0.00    +0.044 C 
ATOM     25  C   UNL     1      -6.340  -4.726  -3.060  0.00  0.00    -0.050 A 
ATOM     26  C   UNL     1      -7.474  -5.026  -2.329  0.00  0.00    +0.005 A 
ATOM     27  C   UNL     1      -8.250  -4.008  -1.808  0.00  0.00    +0.031 A 
ATOM     28  C   UNL     1      -7.891  -2.689  -2.018  0.00  0.00    +0.128 A 
ATOM     29  C   UNL     1      -6.759  -2.389  -2.752  0.00  0.00    +0.031 A 
ATOM     30  C   UNL     1      -5.981  -3.408  -3.270  0.00  0.00    +0.005 A 
ENDBRANCH  21  28
ENDBRANCH  20  21
ENDBRANCH   1  20
TORSDOF 6
