REMARK  Name = ZINC12456994
REMARK  8 active torsions:
REMARK  status: ('A' for Active; 'I' for Inactive)
REMARK    1  A    between atoms: C_1  and  C_2
REMARK    2  A    between atoms: C_6  and  C_8
REMARK    3  A    between atoms: C_8  and  N_9
REMARK    4  A    between atoms: C_12  and  C_15
REMARK    5  A    between atoms: C_12  and  O_36
REMARK    6  A    between atoms: C_22  and  C_24
REMARK    7  A    between atoms: C_28  and  C_35
REMARK    8  A    between atoms: C_31  and  C_34
REMARK                            x       y       z     vdW  Elec       q    Type
REMARK                         _______ _______ _______ _____ _____    ______ ____
ROOT
ATOM      1  C   UNL     1       5.093  -4.782   4.212  0.00  0.00    -0.015 A 
ATOM      2  C   UNL     1       6.002  -3.812   3.811  0.00  0.00    +0.010 A 
ATOM      3  C   UNL     1       7.326  -3.890   4.186  0.00  0.00    +0.047 A 
ATOM      4  C   UNL     1       7.762  -4.950   4.973  0.00  0.00    +0.136 A 
ATOM      5  C   UNL     1       6.836  -5.930   5.376  0.00  0.00    +0.021 A 
ATOM      6  C   UNL     1       5.497  -5.830   4.990  0.00  0.00    +0.018 A 
ATOM      7  C   UNL     1       7.597  -6.888   6.177  0.00  0.00    +0.063 A 
ATOM      8  C   UNL     1       8.876  -6.431   6.196  0.00  0.00    +0.191 A 
ATOM      9  O   UNL     1       8.961  -5.288   5.484  0.00  0.00    -0.450 OA
ENDROOT
BRANCH   8  10
ATOM     10  C   UNL     1       9.996  -7.082   6.889  0.00  0.00    +0.282 C 
ATOM     11  O   UNL     1       9.792  -8.039   7.612  0.00  0.00    -0.267 OA
ATOM     12  N   UNL     1      11.251  -6.618   6.724  0.00  0.00    -0.290 N 
ATOM     13  C   UNL     1      11.514  -5.414   5.920  0.00  0.00    +0.139 C 
ATOM     14  C   UNL     1      12.621  -5.739   4.911  0.00  0.00    +0.133 C 
ATOM     15  O   UNL     1      13.740  -6.298   5.603  0.00  0.00    -0.371 OA
ATOM     16  C   UNL     1      13.462  -7.535   6.264  0.00  0.00    +0.133 C 
ATOM     17  C   UNL     1      12.398  -7.298   7.348  0.00  0.00    +0.139 C 
ATOM     18  C   UNL     1      14.741  -8.067   6.912  0.00  0.00    +0.039 C 
ATOM     19  C   UNL     1      13.050  -4.458   4.193  0.00  0.00    +0.039 C 
ENDBRANCH   8  10
BRANCH   1  23
ATOM     20  N   UNL     1       1.411  -2.985   3.067  0.00  0.00    +0.383 N 
ATOM     21  C   UNL     1       2.093  -3.793   2.050  0.00  0.00    -0.075 C 
ATOM     22  C   UNL     1       3.564  -3.970   2.434  0.00  0.00    +0.021 C 
ATOM     23  C   UNL     1       3.651  -4.675   3.790  0.00  0.00    +0.088 C 
ATOM     24  C   UNL     1       2.873  -3.861   4.829  0.00  0.00    +0.021 C 
ATOM     25  C   UNL     1       1.428  -3.689   4.356  0.00  0.00    -0.075 C 
ATOM     26  H   UNL     1       1.885  -2.099   3.163  0.00  0.00    -0.081 HD
BRANCH  23  27
ATOM     27  O   UNL     1       3.083  -5.983   3.686  0.00  0.00    -0.384 OA
ATOM     28  H   UNL     1       3.105  -6.488   4.510  0.00  0.00    +0.211 HD
ENDBRANCH  23  27
BRANCH  20  29
ATOM     29  C   UNL     1       0.021  -2.753   2.655  0.00  0.00    -0.043 C 
BRANCH  29  35
ATOM     30  C   UNL     1      -0.099   1.719   0.413  0.00  0.00    +0.044 C 
ATOM     31  C   UNL     1      -0.057   0.215   0.324  0.00  0.00    -0.050 A 
ATOM     32  C   UNL     1      -0.036  -0.404  -0.912  0.00  0.00    +0.003 A 
ATOM     33  C   UNL     1       0.002  -1.784  -0.993  0.00  0.00    +0.000 A 
ATOM     34  C   UNL     1       0.020  -2.544   0.161  0.00  0.00    +0.002 A 
ATOM     35  C   UNL     1       0.001  -1.925   1.397  0.00  0.00    -0.064 A 
ATOM     36  C   UNL     1      -0.033  -0.545   1.478  0.00  0.00    +0.005 A 
ENDBRANCH  29  35
ENDBRANCH  20  29
ENDBRANCH   1  23
TORSDOF 5
