REMARK  Name = ZINC21599658
REMARK  10 active torsions:
REMARK  status: ('A' for Active; 'I' for Inactive)
REMARK    1  A    between atoms: C_1  and  C_2
REMARK    2  A    between atoms: C_2  and  C_3
REMARK    3  A    between atoms: C_6  and  C_9
REMARK    4  A    between atoms: C_9  and  N_10
REMARK    5  A    between atoms: C_11  and  N_15
REMARK    6  A    between atoms: C_16  and  C_18
REMARK    7  A    between atoms: C_18  and  N_19
REMARK    8  A    between atoms: C_24  and  C_31
REMARK    9  A    between atoms: C_27  and  C_29
REMARK   10  A    between atoms: C_27  and  C_30
REMARK                            x       y       z     vdW  Elec       q    Type
REMARK                         _______ _______ _______ _____ _____    ______ ____
ROOT
ATOM      1  N   UNL     1       0.658   3.735  -1.302  0.00  0.00    -0.269 N 
ATOM      2  C   UNL     1       0.752   4.844  -2.063  0.00  0.00    +0.236 C 
ATOM      3  O   UNL     1       0.016   4.989  -3.016  0.00  0.00    -0.274 OA
ATOM      4  H   UNL     1       1.326   3.603  -0.438  0.00  0.00    +0.156 HD
ENDROOT
BRANCH   1   6
ATOM      5  N   UNL     1      -0.488   1.601  -0.936  0.00  0.00    -0.246 N 
ATOM      6  C   UNL     1      -0.286   2.756  -1.610  0.00  0.00    +0.124 A 
ATOM      7  C   UNL     1      -1.170   2.789  -2.644  0.00  0.00    +0.065 A 
ATOM      8  C   UNL     1      -1.931   1.617  -2.593  0.00  0.00    +0.136 A 
ATOM      9  N   UNL     1      -1.521   0.904  -1.576  0.00  0.00    -0.178 NA
BRANCH   5  10
ATOM     10  C   UNL     1       0.247   1.155   0.250  0.00  0.00    +0.180 C 
BRANCH  10  14
ATOM     11  C   UNL     1      -1.725   2.570   3.765  0.00  0.00    -0.048 A 
ATOM     12  C   UNL     1      -2.065   1.343   3.229  0.00  0.00    +0.004 A 
ATOM     13  C   UNL     1      -1.427   0.884   2.091  0.00  0.00    +0.006 A 
ATOM     14  C   UNL     1      -0.449   1.654   1.490  0.00  0.00    -0.026 A 
ATOM     15  C   UNL     1      -0.105   2.880   2.029  0.00  0.00    +0.006 A 
ATOM     16  C   UNL     1      -0.747   3.340   3.164  0.00  0.00    +0.004 A 
BRANCH  11  18
ATOM     17  C   UNL     1      -1.655   2.604   6.243  0.00  0.00    +0.009 C 
ATOM     18  C   UNL     1      -2.422   3.070   5.004  0.00  0.00    +0.032 C 
ENDBRANCH  11  18
ENDBRANCH  10  14
ENDBRANCH   5  10
ENDBRANCH   1   6
BRANCH   2  19
ATOM     19  C   UNL     1       1.772   5.902  -1.730  0.00  0.00    +0.214 C 
BRANCH  19  20
ATOM     20  N   UNL     1       1.675   6.996  -2.699  0.00  0.00    -0.215 N 
ATOM     21  C   UNL     1       0.879   8.075  -2.546  0.00  0.00    +0.247 C 
ATOM     22  O   UNL     1       0.137   8.314  -1.618  0.00  0.00    -0.273 OA
ATOM     23  C   UNL     1       1.108   8.923  -3.777  0.00  0.00    +0.113 C 
ATOM     24  C   UNL     1      -0.189   9.079  -4.562  0.00  0.00    +0.038 C 
ATOM     25  C   UNL     1       0.069   9.916  -5.818  0.00  0.00    -0.011 C 
ATOM     26  C   UNL     1       0.608  11.289  -5.412  0.00  0.00    +0.009 C 
ATOM     27  C   UNL     1       1.921  11.117  -4.646  0.00  0.00    -0.032 C 
ATOM     28  C   UNL     1       1.671  10.285  -3.386  0.00  0.00    +0.041 C 
ATOM     29  C   UNL     1       2.466  12.491  -4.251  0.00  0.00    +0.011 C 
ATOM     30  C   UNL     1       2.940  10.401  -5.536  0.00  0.00    +0.011 C 
ATOM     31  C   UNL     1      -1.238  10.090  -6.593  0.00  0.00    +0.007 C 
ATOM     32  N   UNL     1       2.093   8.162  -4.555  0.00  0.00    -0.285 N 
ATOM     33  C   UNL     1       2.368   7.053  -3.842  0.00  0.00    +0.310 C 
ATOM     34  O   UNL     1       3.155   6.198  -4.199  0.00  0.00    -0.252 OA
ATOM     35  H   UNL     1       2.448   8.550  -5.521  0.00  0.00    +0.151 HD
ENDBRANCH  19  20
ENDBRANCH   2  19
TORSDOF 6
