REMARK  Name = ZINC64353007
REMARK  9 active torsions:
REMARK  status: ('A' for Active; 'I' for Inactive)
REMARK    1  A    between atoms: C_1  and  C_2
REMARK    2  A    between atoms: C_2  and  C_3
REMARK    3  A    between atoms: C_2  and  C_4
REMARK    4  A    between atoms: C_4  and  C_6
REMARK    5  A    between atoms: C_4  and  N_13
REMARK    6  A    between atoms: C_14  and  C_16
REMARK    7  A    between atoms: C_16  and  N_17
REMARK    8  A    between atoms: C_20  and  C_25
REMARK    9  A    between atoms: C_25  and  C_26
REMARK                            x       y       z     vdW  Elec       q    Type
REMARK                         _______ _______ _______ _____ _____    ______ ____
ROOT
ATOM      1  N   UNL     1      -3.999   2.999  -2.114  0.00  0.00    -0.216 N 
ATOM      2  C   UNL     1      -5.221   3.229  -1.595  0.00  0.00    +0.244 C 
ATOM      3  O   UNL     1      -6.048   2.403  -1.274  0.00  0.00    -0.273 OA
ATOM      4  C   UNL     1      -5.347   4.737  -1.497  0.00  0.00    +0.165 C 
ATOM      5  N   UNL     1      -4.060   5.227  -2.021  0.00  0.00    -0.287 N 
ATOM      6  C   UNL     1      -3.340   4.140  -2.350  0.00  0.00    +0.310 C 
ATOM      7  O   UNL     1      -2.217   4.188  -2.813  0.00  0.00    -0.252 OA
ATOM      8  H   UNL     1      -3.785   6.153  -2.108  0.00  0.00    +0.151 HD
ENDROOT
BRANCH   1   9
ATOM      9  C   UNL     1      -3.456   1.665  -2.381  0.00  0.00    +0.213 C 
BRANCH   9  11
ATOM     10  N   UNL     1      -2.142  -0.048  -1.174  0.00  0.00    -0.307 N 
ATOM     11  C   UNL     1      -2.727   1.166  -1.160  0.00  0.00    +0.231 C 
ATOM     12  O   UNL     1      -2.667   1.857  -0.165  0.00  0.00    -0.274 OA
ATOM     13  H   UNL     1      -2.190  -0.601  -1.970  0.00  0.00    +0.149 HD
BRANCH  10  14
ATOM     14  C   UNL     1      -1.433  -0.534   0.013  0.00  0.00    +0.106 C 
BRANCH  14  15
ATOM     15  C   UNL     1      -1.413  -2.041   0.005  0.00  0.00    -0.027 A 
ATOM     16  C   UNL     1      -1.201  -2.722  -1.179  0.00  0.00    +0.008 A 
ATOM     17  C   UNL     1      -1.182  -4.104  -1.188  0.00  0.00    +0.038 A 
ATOM     18  C   UNL     1      -1.375  -4.806  -0.011  0.00  0.00    +0.123 A 
ATOM     19  C   UNL     1      -1.586  -4.122   1.175  0.00  0.00    +0.038 A 
ATOM     20  C   UNL     1      -1.600  -2.740   1.182  0.00  0.00    +0.008 A 
ATOM     21  F   UNL     1      -1.356  -6.157  -0.018  0.00  0.00    -0.205 F 
ENDBRANCH  14  15
BRANCH  14  23
ATOM     22  C   UNL     1      -0.019   1.526   0.010  0.00  0.00    +0.009 C 
ATOM     23  C   UNL     1       0.002  -0.004   0.002  0.00  0.00    +0.008 C 
ATOM     24  C   UNL     1       0.742  -0.511   1.242  0.00  0.00    +0.009 C 
ENDBRANCH  14  23
ENDBRANCH  10  14
ENDBRANCH   9  11
ENDBRANCH   1   9
BRANCH   4  25
ATOM     25  C   UNL     1      -6.508   5.237  -2.358  0.00  0.00    +0.065 C 
BRANCH  25  26
ATOM     26  C   UNL     1      -6.688   6.718  -2.147  0.00  0.00    -0.039 C 
ATOM     27  C   UNL     1      -6.178   7.716  -2.904  0.00  0.00    -0.001 A 
ATOM     28  C   UNL     1      -5.333   7.720  -4.105  0.00  0.00    +0.010 A 
ATOM     29  C   UNL     1      -4.974   8.905  -4.650  0.00  0.00    +0.001 A 
ATOM     30  C   UNL     1      -5.388  10.125  -4.099  0.00  0.00    +0.002 A 
ATOM     31  C   UNL     1      -6.165  10.202  -2.998  0.00  0.00    +0.026 A 
ATOM     32  C   UNL     1      -6.601   9.018  -2.342  0.00  0.00    +0.043 A 
ATOM     33  N   UNL     1      -7.345   8.833  -1.278  0.00  0.00    -0.380 N 
ATOM     34  C   UNL     1      -7.482   7.391  -1.049  0.00  0.00    +0.144 C 
ATOM     35  H   UNL     1      -7.742   9.533  -0.736  0.00  0.00    +0.160 HD
ENDBRANCH  25  26
ENDBRANCH   4  25
TORSDOF 7
