REMARK  Name = ZINC09375454
REMARK  14 active torsions:
REMARK  status: ('A' for Active; 'I' for Inactive)
REMARK    1  A    between atoms: C_1  and  C_2
REMARK    2  A    between atoms: C_2  and  C_3
REMARK    3  A    between atoms: C_3  and  C_5
REMARK    4  A    between atoms: C_3  and  N_61
REMARK    5  A    between atoms: C_8  and  S_17
REMARK    6  A    between atoms: N_9  and  C_10
REMARK    7  A    between atoms: C_10  and  C_11
REMARK    8  A    between atoms: S_17  and  C_18
REMARK    9  A    between atoms: C_18  and  C_19
REMARK   10  A    between atoms: N_21  and  C_22
REMARK   11  A    between atoms: C_23  and  C_31
REMARK   12  A    between atoms: C_27  and  N_28
REMARK   13  A    between atoms: C_32  and  N_61
REMARK   14  A    between atoms: C_33  and  N_61
REMARK                            x       y       z     vdW  Elec       q    Type
REMARK                         _______ _______ _______ _____ _____    ______ ____
ROOT
ATOM      1  C   UNL     1      -0.562   0.989  -1.841  0.00  0.00    +0.121 A 
ATOM      2  N   UNL     1      -0.389   2.011  -1.052  0.00  0.00    -0.135 NA
ATOM      3  N   UNL     1       0.849   2.357  -1.043  0.00  0.00    -0.123 NA
ATOM      4  C   UNL     1       1.538   1.567  -1.833  0.00  0.00    +0.192 A 
ATOM      5  N   UNL     1       0.659   0.669  -2.367  0.00  0.00    -0.303 N 
ENDROOT
BRANCH   1   6
ATOM      6  C   UNL     1      -1.867   0.290  -2.123  0.00  0.00    +0.000 C 
BRANCH   6   9
ATOM      7  C   UNL     1      -1.685  -1.125  -0.167  0.00  0.00    -0.096 C 
ATOM      8  C   UNL     1      -2.721   1.056   0.009  0.00  0.00    -0.096 C 
ATOM      9  N   UNL     1      -2.518  -0.121  -0.862  0.00  0.00    +0.383 N 
ATOM     10  H   UNL     1      -3.431  -0.537  -1.078  0.00  0.00    -0.082 HD
ENDBRANCH   6   9
BRANCH   6  12
ATOM     11  C   UNL     1      -4.074   0.489  -3.276  0.00  0.00    +0.002 C 
ATOM     12  C   UNL     1      -2.801   1.238  -2.877  0.00  0.00    -0.011 C 
ENDBRANCH   6  12
ENDBRANCH   1   6
BRANCH   5  13
ATOM     13  C   UNL     1       0.961  -0.412  -3.308  0.00  0.00    +0.160 C 
BRANCH  13  14
ATOM     14  C   UNL     1       0.827   0.098  -4.720  0.00  0.00    -0.028 A 
ATOM     15  C   UNL     1      -0.388   0.009  -5.374  0.00  0.00    +0.005 A 
ATOM     16  C   UNL     1      -0.512   0.481  -6.667  0.00  0.00    +0.000 A 
ATOM     17  C   UNL     1       0.580   1.033  -7.310  0.00  0.00    +0.000 A 
ATOM     18  C   UNL     1       1.796   1.117  -6.657  0.00  0.00    +0.000 A 
ATOM     19  C   UNL     1       1.919   0.650  -5.362  0.00  0.00    +0.005 A 
ENDBRANCH  13  14
ENDBRANCH   5  13
BRANCH   4  20
ATOM     20  S   UNL     1       3.271   1.650  -2.145  0.00  0.00    -0.077 S 
BRANCH  20  21
ATOM     21  C   UNL     1       3.712   3.060  -1.100  0.00  0.00    +0.173 C 
BRANCH  21  22
ATOM     22  C   UNL     1       5.191   3.324  -1.210  0.00  0.00    +0.228 C 
ATOM     23  O   UNL     1       5.880   2.627  -1.925  0.00  0.00    -0.275 OA
ATOM     24  N   UNL     1       5.749   4.334  -0.514  0.00  0.00    -0.283 N 
ATOM     25  H   UNL     1       5.207   4.865   0.090  0.00  0.00    +0.155 HD
BRANCH  24  26
ATOM     26  C   UNL     1       7.111   4.617  -0.663  0.00  0.00    +0.067 A 
ATOM     27  C   UNL     1       8.059   3.635  -0.405  0.00  0.00    -0.027 A 
ATOM     28  C   UNL     1       9.402   3.918  -0.553  0.00  0.00    +0.005 A 
ATOM     29  C   UNL     1       9.805   5.178  -0.958  0.00  0.00    +0.003 A 
ATOM     30  C   UNL     1       8.864   6.158  -1.216  0.00  0.00    +0.034 A 
ATOM     31  C   UNL     1       7.518   5.880  -1.074  0.00  0.00    +0.148 A 
ATOM     32  C   UNL     1       7.621   2.262   0.037  0.00  0.00    +0.046 C 
BRANCH  31  33
ATOM     33  N   UNL     1       6.512   6.927  -1.356  0.00  0.00    +0.058 N 
ATOM     34  O   UNL     1       6.862   8.002  -1.810  0.00  0.00    -0.126 OA
ATOM     35  O   UNL     1       5.333   6.715  -1.134  0.00  0.00    -0.126 OA
ENDBRANCH  31  33
ENDBRANCH  24  26
ENDBRANCH  21  22
ENDBRANCH  20  21
ENDBRANCH   4  20
TORSDOF 10
