REMARK  Name = ZINC39637174
REMARK  7 active torsions:
REMARK  status: ('A' for Active; 'I' for Inactive)
REMARK    1  A    between atoms: C_1  and  C_2
REMARK    2  A    between atoms: C_7  and  N_12
REMARK    3  A    between atoms: C_9  and  C_11
REMARK    4  A    between atoms: C_13  and  C_15
REMARK    5  A    between atoms: C_26  and  C_28
REMARK    6  A    between atoms: C_33  and  O_34
REMARK    7  A    between atoms: O_34  and  C_35
REMARK                            x       y       z     vdW  Elec       q    Type
REMARK                         _______ _______ _______ _____ _____    ______ ____
ROOT
ATOM      1  C   UNL     1      -2.284  -4.284   1.748  0.00  0.00    +0.100 C 
ATOM      2  C   UNL     1      -3.145  -3.490   2.757  0.00  0.00    +0.121 C 
ATOM      3  N   UNL     1      -4.050  -4.501   3.353  0.00  0.00    -0.296 N 
ATOM      4  C   UNL     1      -3.200  -5.704   3.520  0.00  0.00    +0.115 C 
ATOM      5  C   UNL     1      -2.322  -5.736   2.253  0.00  0.00    -0.004 C 
ATOM      6  C   UNL     1      -2.949  -6.645   1.199  0.00  0.00    -0.010 C 
ATOM      7  C   UNL     1      -2.924  -8.091   1.701  0.00  0.00    -0.082 C 
ATOM      8  N   UNL     1      -1.538  -8.496   1.964  0.00  0.00    +0.379 N 
ATOM      9  C   UNL     1      -0.973  -7.677   3.043  0.00  0.00    -0.082 C 
ATOM     10  C   UNL     1      -0.915  -6.213   2.599  0.00  0.00    -0.010 C 
ATOM     11  C   UNL     1      -5.352  -4.359   3.671  0.00  0.00    +0.250 C 
ATOM     12  O   UNL     1      -5.942  -3.337   3.377  0.00  0.00    -0.270 OA
ATOM     13  H   UNL     1      -1.518  -9.468   2.236  0.00  0.00    -0.086 HD
ATOM     14  H   UNL     1      -0.988  -8.373   1.127  0.00  0.00    -0.086 HD
ENDROOT
BRANCH  11  15
ATOM     15  C   UNL     1      -6.062  -5.443   4.376  0.00  0.00    +0.078 A 
ATOM     16  C   UNL     1      -5.392  -6.221   5.323  0.00  0.00    +0.017 A 
ATOM     17  C   UNL     1      -6.061  -7.232   5.979  0.00  0.00    +0.001 A 
ATOM     18  C   UNL     1      -7.396  -7.481   5.703  0.00  0.00    +0.004 A 
ATOM     19  C   UNL     1      -8.070  -6.719   4.769  0.00  0.00    +0.046 A 
ATOM     20  C   UNL     1      -7.413  -5.694   4.104  0.00  0.00    +0.132 A 
BRANCH  20  21
ATOM     21  O   UNL     1      -8.076  -4.942   3.189  0.00  0.00    -0.494 OA
ATOM     22  C   UNL     1      -9.451  -5.256   2.964  0.00  0.00    +0.277 C 
ENDBRANCH  20  21
ENDBRANCH  11  15
BRANCH   1  24
ATOM     23  N   UNL     1      -0.071  -3.990   0.682  0.00  0.00    -0.312 N 
ATOM     24  C   UNL     1      -0.869  -3.766   1.746  0.00  0.00    +0.218 C 
ATOM     25  O   UNL     1      -0.447  -3.148   2.700  0.00  0.00    -0.275 OA
ATOM     26  H   UNL     1      -0.408  -4.484  -0.081  0.00  0.00    +0.149 HD
BRANCH  23  32
ATOM     27  C   UNL     1       2.196  -4.458  -2.938  0.00  0.00    +0.008 C 
ATOM     28  C   UNL     1       1.724  -4.644  -1.495  0.00  0.00    -0.009 C 
ATOM     29  C   UNL     1       2.635  -5.647  -0.785  0.00  0.00    +0.003 C 
ATOM     30  C   UNL     1       2.162  -5.833   0.658  0.00  0.00    +0.002 C 
ATOM     31  C   UNL     1       2.216  -4.491   1.389  0.00  0.00    +0.022 C 
ATOM     32  C   UNL     1       1.305  -3.487   0.680  0.00  0.00    +0.076 C 
ATOM     33  C   UNL     1       1.777  -3.301  -0.763  0.00  0.00    +0.009 C 
ATOM     34  C   UNL     1       0.866  -2.297  -1.473  0.00  0.00    +0.009 C 
ENDBRANCH  23  32
ENDBRANCH   1  24
TORSDOF 4
