REMARK  Name = ZINC09125100
REMARK  7 active torsions:
REMARK  status: ('A' for Active; 'I' for Inactive)
REMARK    1  A    between atoms: C_1  and  C_2
REMARK    2  A    between atoms: C_2  and  C_27
REMARK    3  A    between atoms: N_5  and  C_9
REMARK    4  A    between atoms: C_9  and  C_10
REMARK    5  A    between atoms: N_12  and  C_13
REMARK    6  A    between atoms: C_17  and  S_19
REMARK    7  A    between atoms: S_19  and  N_22
REMARK                            x       y       z     vdW  Elec       q    Type
REMARK                         _______ _______ _______ _____ _____    ______ ____
ROOT
ATOM      1  C   UNL     1      -2.373  -0.070   0.127  0.00  0.00    +0.235 C 
ATOM      2  O   UNL     1      -2.395   1.143   0.134  0.00  0.00    -0.274 OA
ATOM      3  N   UNL     1      -1.199  -0.722   0.010  0.00  0.00    -0.284 N 
ATOM      4  H   UNL     1      -1.187  -1.688  -0.072  0.00  0.00    +0.155 HD
ENDROOT
BRANCH   3   5
ATOM      5  C   UNL     1       0.002  -0.004   0.008  0.00  0.00    +0.035 A 
ATOM      6  C   UNL     1       0.122   1.155   0.763  0.00  0.00    +0.023 A 
ATOM      7  C   UNL     1       1.310   1.860   0.759  0.00  0.00    +0.004 A 
ATOM      8  C   UNL     1       2.379   1.413   0.004  0.00  0.00    +0.029 A 
ATOM      9  C   UNL     1       2.262   0.259  -0.749  0.00  0.00    +0.110 A 
ATOM     10  C   UNL     1       1.077  -0.451  -0.750  0.00  0.00    +0.052 A 
BRANCH   9  11
ATOM     11  S   UNL     1       3.627  -0.306  -1.710  0.00  0.00    +0.073 S 
ATOM     12  O   UNL     1       4.797   0.235  -1.112  0.00  0.00    -0.150 OA
ATOM     13  O   UNL     1       3.442  -1.702  -1.895  0.00  0.00    -0.150 OA
BRANCH  11  14
ATOM     14  N   UNL     1       3.494   0.392  -3.206  0.00  0.00    -0.205 N 
ATOM     15  C   UNL     1       3.605   1.751  -3.341  0.00  0.00    +0.088 C 
ATOM     16  C   UNL     1       3.888   3.961  -2.812  0.00  0.00    +0.114 C 
ATOM     17  C   UNL     1       3.276   3.965  -4.233  0.00  0.00    +0.028 C 
ATOM     18  C   UNL     1       3.507   2.492  -4.656  0.00  0.00    +0.072 C 
ATOM     19  H   UNL     1       3.338  -0.162  -3.987  0.00  0.00    +0.175 HD
ATOM     20  N   UNL     1       3.814   2.559  -2.348  0.00  0.00    -0.375 N 
ATOM     21  H   UNL     1       3.915   2.265  -1.370  0.00  0.00    +0.161 HD
ENDBRANCH  11  14
ENDBRANCH   9  11
ENDBRANCH   3   5
BRANCH   1  22
ATOM     22  C   UNL     1      -3.658  -0.847   0.249  0.00  0.00    +0.214 C 
BRANCH  22  27
ATOM     23  C   UNL     1      -6.343   2.916  -0.595  0.00  0.00    +0.047 C 
ATOM     24  C   UNL     1      -6.531   1.481  -0.099  0.00  0.00    +0.135 C 
ATOM     25  C   UNL     1      -5.473   0.570  -0.689  0.00  0.00    +0.251 C 
ATOM     26  O   UNL     1      -5.285   0.329  -1.862  0.00  0.00    -0.272 OA
ATOM     27  N   UNL     1      -4.783   0.084   0.362  0.00  0.00    -0.215 N 
ATOM     28  C   UNL     1      -5.257   0.553   1.522  0.00  0.00    +0.310 C 
ATOM     29  O   UNL     1      -4.801   0.255   2.609  0.00  0.00    -0.252 OA
ATOM     30  N   UNL     1      -6.292   1.395   1.352  0.00  0.00    -0.281 N 
ATOM     31  H   UNL     1      -6.787   1.853   2.049  0.00  0.00    +0.152 HD
BRANCH  24  32
ATOM     32  C   UNL     1      -7.911   0.981  -0.440  0.00  0.00    -0.016 A 
ATOM     33  C   UNL     1      -8.124   0.290  -1.618  0.00  0.00    +0.006 A 
ATOM     34  C   UNL     1      -9.389  -0.173  -1.929  0.00  0.00    +0.000 A 
ATOM     35  C   UNL     1     -10.443   0.064  -1.066  0.00  0.00    +0.000 A 
ATOM     36  C   UNL     1     -10.231   0.759   0.110  0.00  0.00    +0.000 A 
ATOM     37  C   UNL     1      -8.965   1.218   0.423  0.00  0.00    +0.006 A 
ENDBRANCH  24  32
ENDBRANCH  22  27
ENDBRANCH   1  22
TORSDOF 6
