REMARK  Name = ZINC14550801
REMARK  7 active torsions:
REMARK  status: ('A' for Active; 'I' for Inactive)
REMARK    1  A    between atoms: C_1  and  C_2
REMARK    2  A    between atoms: C_5  and  N_9
REMARK    3  A    between atoms: C_6  and  C_8
REMARK    4  A    between atoms: N_9  and  S_10
REMARK    5  A    between atoms: S_10  and  C_13
REMARK    6  A    between atoms: C_26  and  C_29
REMARK    7  A    between atoms: C_32  and  N_35
REMARK                            x       y       z     vdW  Elec       q    Type
REMARK                         _______ _______ _______ _____ _____    ______ ____
ROOT
ATOM      1  C   UNL     1      -7.687   1.308  -0.049  0.00  0.00    +0.109 A 
ATOM      2  C   UNL     1      -7.154   2.072  -1.071  0.00  0.00    +0.030 A 
ATOM      3  C   UNL     1      -5.787   2.218  -1.187  0.00  0.00    +0.025 A 
ATOM      4  C   UNL     1      -4.936   1.597  -0.280  0.00  0.00    +0.031 A 
ATOM      5  C   UNL     1      -5.482   0.814   0.742  0.00  0.00    -0.018 A 
ATOM      6  C   UNL     1      -6.849   0.681   0.855  0.00  0.00    +0.034 A 
ATOM      7  C   UNL     1      -4.541   0.134   1.658  0.00  0.00    +0.049 C 
ATOM      8  C   UNL     1      -4.921  -0.235   3.045  0.00  0.00    -0.023 C 
ATOM      9  C   UNL     1      -3.837  -0.183   3.810  0.00  0.00    -0.030 C 
ATOM     10  C   UNL     1      -2.633   0.265   2.980  0.00  0.00    +0.033 C 
ATOM     11  C   UNL     1      -3.310   1.067   1.861  0.00  0.00    +0.029 C 
ATOM     12  C   UNL     1      -2.607   1.109   0.516  0.00  0.00    +0.105 C 
ATOM     13  N   UNL     1      -3.553   1.773  -0.408  0.00  0.00    -0.336 N 
ATOM     14  H   UNL     1      -3.208   2.340  -1.116  0.00  0.00    +0.147 HD
ENDROOT
BRANCH  12  15
ATOM     15  C   UNL     1      -1.333   1.907   0.619  0.00  0.00    -0.027 A 
ATOM     16  C   UNL     1      -0.113   1.258   0.665  0.00  0.00    +0.008 A 
ATOM     17  C   UNL     1       1.056   1.991   0.753  0.00  0.00    +0.033 A 
ATOM     18  C   UNL     1       1.005   3.371   0.802  0.00  0.00    +0.126 A 
ATOM     19  C   UNL     1      -0.216   4.020   0.761  0.00  0.00    +0.033 A 
ATOM     20  C   UNL     1      -1.385   3.287   0.672  0.00  0.00    +0.008 A 
BRANCH  18  21
ATOM     21  N   UNL     1       2.256   4.156   0.896  0.00  0.00    +0.056 N 
ATOM     22  O   UNL     1       3.332   3.584   0.932  0.00  0.00    -0.126 OA
ATOM     23  O   UNL     1       2.211   5.372   0.939  0.00  0.00    -0.126 OA
ENDBRANCH  18  21
ENDBRANCH  12  15
BRANCH   1  24
ATOM     24  S   UNL     1      -9.434   1.131   0.100  0.00  0.00    +0.072 S 
ATOM     25  O   UNL     1      -9.695   0.813   1.460  0.00  0.00    -0.150 OA
ATOM     26  O   UNL     1     -10.013   2.259  -0.542  0.00  0.00    -0.150 OA
BRANCH  24  27
ATOM     27  N   UNL     1      -9.870  -0.196  -0.789  0.00  0.00    -0.216 N 
ATOM     28  H   UNL     1     -10.487  -0.101  -1.532  0.00  0.00    +0.174 HD
BRANCH  27  33
ATOM     29  C   UNL     1      -7.758  -5.296   0.509  0.00  0.00    +0.044 C 
ATOM     30  C   UNL     1      -8.319  -3.941   0.165  0.00  0.00    -0.050 A 
ATOM     31  C   UNL     1      -8.612  -3.038   1.171  0.00  0.00    +0.005 A 
ATOM     32  C   UNL     1      -9.122  -1.794   0.858  0.00  0.00    +0.025 A 
ATOM     33  C   UNL     1      -9.350  -1.452  -0.469  0.00  0.00    +0.051 A 
ATOM     34  C   UNL     1      -9.055  -2.361  -1.477  0.00  0.00    -0.028 A 
ATOM     35  C   UNL     1      -8.541  -3.602  -1.158  0.00  0.00    +0.008 A 
ATOM     36  C   UNL     1      -9.296  -1.992  -2.919  0.00  0.00    +0.046 C 
ENDBRANCH  27  33
ENDBRANCH  24  27
ENDBRANCH   1  24
TORSDOF 5
