REMARK  Name = ZINC10065121
REMARK  8 active torsions:
REMARK  status: ('A' for Active; 'I' for Inactive)
REMARK    1  A    between atoms: C_1  and  C_2
REMARK    2  A    between atoms: C_7  and  C_8
REMARK    3  A    between atoms: N_11  and  C_12
REMARK    4  A    between atoms: C_12  and  C_14
REMARK    5  A    between atoms: N_19  and  S_21
REMARK    6  A    between atoms: S_21  and  C_24
REMARK    7  A    between atoms: N_30  and  C_31
REMARK    8  A    between atoms: C_31  and  C_32
REMARK                            x       y       z     vdW  Elec       q    Type
REMARK                         _______ _______ _______ _____ _____    ______ ____
ROOT
ATOM      1  C   UNL     1      -1.643  -1.691  -0.051  0.00  0.00    +0.243 C 
ATOM      2  O   UNL     1      -0.708  -2.376   0.317  0.00  0.00    -0.273 OA
ENDROOT
BRANCH   1  13
ATOM      3  C   UNL     1       3.252  -0.180  -5.857  0.00  0.00    +0.044 C 
ATOM      4  C   UNL     1       2.428   0.411  -4.742  0.00  0.00    -0.046 A 
ATOM      5  C   UNL     1       1.644  -0.414  -3.971  0.00  0.00    +0.030 A 
ATOM      6  C   UNL     1       0.866   0.106  -2.925  0.00  0.00    +0.058 A 
ATOM      7  C   UNL     1       0.934   1.492  -2.717  0.00  0.00    +0.039 A 
ATOM      8  C   UNL     1       1.717   2.316  -3.489  0.00  0.00    +0.020 A 
ATOM      9  C   UNL     1       2.474   1.776  -4.513  0.00  0.00    -0.046 A 
ATOM     10  C   UNL     1       3.339   2.664  -5.371  0.00  0.00    +0.044 C 
ATOM     11  S   UNL     1      -0.162   1.750  -1.345  0.00  0.00    -0.052 S 
ATOM     12  C   UNL     1      -0.652   0.105  -1.098  0.00  0.00    +0.167 A 
ATOM     13  N   UNL     1      -1.493  -0.378  -0.186  0.00  0.00    -0.156 NA
ATOM     14  N   UNL     1       0.029  -0.573  -2.059  0.00  0.00    -0.317 N 
BRANCH  14  15
ATOM     15  C   UNL     1      -0.123  -2.025  -2.177  0.00  0.00    +0.151 C 
BRANCH  15  16
ATOM     16  C   UNL     1      -0.128  -2.413  -3.634  0.00  0.00    -0.013 C 
ATOM     17  C   UNL     1       0.686  -3.344  -4.066  0.00  0.00    +0.005 C 
ENDBRANCH  15  16
ENDBRANCH  14  15
ENDBRANCH   1  13
BRANCH   1  18
ATOM     18  C   UNL     1      -2.973  -2.332  -0.354  0.00  0.00    +0.093 C 
ATOM     19  C   UNL     1      -3.345  -2.072  -1.815  0.00  0.00    +0.015 C 
ATOM     20  C   UNL     1      -4.710  -2.695  -2.115  0.00  0.00    +0.018 C 
ATOM     21  C   UNL     1      -4.636  -4.209  -1.897  0.00  0.00    +0.109 C 
ATOM     22  N   UNL     1      -4.140  -4.468  -0.539  0.00  0.00    -0.175 NA
ATOM     23  C   UNL     1      -2.879  -3.843  -0.115  0.00  0.00    +0.122 C 
BRANCH  22  24
ATOM     24  S   UNL     1      -4.985  -5.446   0.496  0.00  0.00    +0.067 S 
ATOM     25  O   UNL     1      -4.606  -5.068   1.813  0.00  0.00    -0.152 OA
ATOM     26  O   UNL     1      -6.337  -5.429   0.058  0.00  0.00    -0.152 OA
BRANCH  24  27
ATOM     27  C   UNL     1      -4.398  -7.090   0.256  0.00  0.00    +0.144 A 
ATOM     28  C   UNL     1      -3.378  -7.731   0.878  0.00  0.00    +0.038 A 
ATOM     29  C   UNL     1      -3.095  -9.038   0.527  0.00  0.00    +0.030 A 
ATOM     30  C   UNL     1      -3.839  -9.636  -0.437  0.00  0.00    +0.080 A 
ATOM     31  S   UNL     1      -4.986  -8.339  -0.875  0.00  0.00    -0.057 S 
ATOM     32 CL   UNL     1      -3.708 -11.243  -1.080  0.00  0.00    -0.076 Cl
ENDBRANCH  24  27
ENDBRANCH  22  24
ENDBRANCH   1  18
TORSDOF 6
