REMARK  Name = ZINC15319717
REMARK  4 active torsions:
REMARK  status: ('A' for Active; 'I' for Inactive)
REMARK    1  A    between atoms: C_6  and  C_7
REMARK    2  A    between atoms: C_10  and  C_36
REMARK    3  A    between atoms: C_15  and  C_17
REMARK    4  A    between atoms: N_22  and  C_25
REMARK                            x       y       z     vdW  Elec       q    Type
REMARK                         _______ _______ _______ _____ _____    ______ ____
ROOT
ATOM      1  C   UNL     1      -1.257  -0.809  -0.042  0.00  0.00    +0.104 C 
ATOM      2  C   UNL     1      -1.537  -1.326  -1.457  0.00  0.00    +0.063 C 
ATOM      3  C   UNL     1      -2.886  -2.054  -1.490  0.00  0.00    +0.215 C 
ATOM      4  N   UNL     1      -2.927  -3.025  -0.393  0.00  0.00    -0.238 N 
ATOM      5  C   UNL     1      -2.108  -2.970   0.699  0.00  0.00    +0.119 A 
ATOM      6  C   UNL     1      -2.410  -4.009   1.502  0.00  0.00    +0.078 A 
ATOM      7  C   UNL     1      -3.456  -4.734   0.887  0.00  0.00    +0.149 A 
ATOM      8  N   UNL     1      -3.759  -4.135  -0.250  0.00  0.00    -0.164 NA
ATOM      9  N   UNL     1      -1.153  -1.964   0.872  0.00  0.00    -0.322 N 
ATOM     10  H   UNL     1      -0.460  -2.022   1.549  0.00  0.00    +0.148 HD
ENDROOT
BRANCH   7  11
ATOM     11  C   UNL     1      -4.098  -5.952   1.424  0.00  0.00    +0.267 C 
ATOM     12  O   UNL     1      -3.655  -6.483   2.424  0.00  0.00    -0.268 OA
ATOM     13  N   UNL     1      -5.176  -6.474   0.804  0.00  0.00    -0.300 N 
ATOM     14  C   UNL     1      -5.673  -5.904  -0.457  0.00  0.00    +0.089 C 
ATOM     15  C   UNL     1      -7.179  -5.657  -0.318  0.00  0.00    -0.059 C 
ATOM     16  N   UNL     1      -7.843  -6.903   0.087  0.00  0.00    +0.385 N 
ATOM     17  C   UNL     1      -7.383  -7.303   1.423  0.00  0.00    -0.059 C 
ATOM     18  C   UNL     1      -5.883  -7.634   1.368  0.00  0.00    +0.089 C 
ATOM     19  H   UNL     1      -7.621  -7.631  -0.575  0.00  0.00    -0.081 HD
BRANCH  16  20
ATOM     20  C   UNL     1      -9.296  -6.695   0.114  0.00  0.00    -0.065 C 
ATOM     21  C   UNL     1      -9.779  -6.289  -1.280  0.00  0.00    -0.009 C 
ATOM     22  C   UNL     1     -11.293  -6.073  -1.253  0.00  0.00    -0.012 C 
ATOM     23  C   UNL     1     -11.986  -7.370  -0.831  0.00  0.00    +0.007 C 
ATOM     24  C   UNL     1     -11.504  -7.775   0.564  0.00  0.00    -0.012 C 
ATOM     25  C   UNL     1      -9.990  -7.992   0.536  0.00  0.00    -0.009 C 
ATOM     26  C   UNL     1     -11.843  -6.668   1.563  0.00  0.00    +0.007 C 
ATOM     27  C   UNL     1     -11.149  -5.370   1.141  0.00  0.00    -0.012 C 
ATOM     28  C   UNL     1     -11.632  -4.965  -0.253  0.00  0.00    +0.007 C 
ATOM     29  C   UNL     1      -9.635  -5.587   1.113  0.00  0.00    -0.009 C 
ENDBRANCH  16  20
ENDBRANCH   7  11
BRANCH   1  35
ATOM     30  C   UNL     1       0.016   1.346  -0.061  0.00  0.00    +0.008 A 
ATOM     31  C   UNL     1       1.202   2.055  -0.052  0.00  0.00    +0.038 A 
ATOM     32  C   UNL     1       2.411   1.381  -0.014  0.00  0.00    +0.123 A 
ATOM     33  C   UNL     1       2.430  -0.003   0.016  0.00  0.00    +0.038 A 
ATOM     34  C   UNL     1       1.243  -0.710   0.007  0.00  0.00    +0.008 A 
ATOM     35  C   UNL     1       0.036  -0.036  -0.032  0.00  0.00    -0.027 A 
ATOM     36  F   UNL     1       3.571   2.074  -0.005  0.00  0.00    -0.205 F 
ENDBRANCH   1  35
BRANCH   3  37
ATOM     37  C   UNL     1      -3.044  -2.780  -2.827  0.00  0.00    +0.412 C 
ATOM     38  F   UNL     1      -2.009  -3.710  -2.978  0.00  0.00    -0.168 F 
ATOM     39  F   UNL     1      -4.275  -3.444  -2.855  0.00  0.00    -0.168 F 
ATOM     40  F   UNL     1      -2.991  -1.851  -3.872  0.00  0.00    -0.168 F 
ENDBRANCH   3  37
TORSDOF 4
