REMARK  Name = ZINC38599164
REMARK  7 active torsions:
REMARK  status: ('A' for Active; 'I' for Inactive)
REMARK    1  A    between atoms: C_1  and  O_2
REMARK    2  A    between atoms: O_2  and  C_3
REMARK    3  A    between atoms: C_6  and  S_9
REMARK    4  A    between atoms: S_9  and  C_12
REMARK    5  A    between atoms: N_24  and  N_28
REMARK    6  A    between atoms: C_25  and  N_27
REMARK    7  A    between atoms: C_29  and  C_30
REMARK                            x       y       z     vdW  Elec       q    Type
REMARK                         _______ _______ _______ _____ _____    ______ ____
ROOT
ATOM      1  C   UNL     1       4.192  -2.780  -4.417  0.00  0.00    +0.224 C 
ATOM      2  C   UNL     1       4.227  -3.344  -3.014  0.00  0.00    +0.111 A 
ATOM      3  C   UNL     1       4.989  -4.523  -3.034  0.00  0.00    +0.166 A 
ATOM      4  N   UNL     1       5.168  -5.207  -1.910  0.00  0.00    -0.227 NA
ATOM      5  C   UNL     1       4.626  -4.776  -0.768  0.00  0.00    +0.091 A 
ATOM      6  C   UNL     1       4.803  -5.486   0.433  0.00  0.00    +0.030 A 
ATOM      7  C   UNL     1       4.240  -5.021   1.581  0.00  0.00    +0.002 A 
ATOM      8  C   UNL     1       3.485  -3.850   1.587  0.00  0.00    +0.002 A 
ATOM      9  C   UNL     1       3.291  -3.137   0.443  0.00  0.00    +0.030 A 
ATOM     10  C   UNL     1       3.858  -3.584  -0.761  0.00  0.00    +0.090 A 
ATOM     11  N   UNL     1       3.687  -2.905  -1.901  0.00  0.00    -0.245 NA
ATOM     12  N   UNL     1       5.463  -4.799  -4.308  0.00  0.00    -0.186 N 
ATOM     13  C   UNL     1       5.022  -3.767  -5.253  0.00  0.00    +0.195 C 
ENDROOT
BRANCH   1  14
ATOM     14  S   UNL     1       2.485  -2.711  -5.029  0.00  0.00    +0.008 S 
ATOM     15  O   UNL     1       1.839  -3.959  -4.817  0.00  0.00    -0.169 OA
ATOM     16  O   UNL     1       2.447  -2.083  -6.303  0.00  0.00    -0.169 OA
BRANCH  14  20
ATOM     17  C   UNL     1       0.368   0.174  -2.254  0.00  0.00    +0.120 A 
ATOM     18  C   UNL     1       0.989   0.643  -3.402  0.00  0.00    +0.047 A 
ATOM     19  C   UNL     1       1.634  -0.239  -4.247  0.00  0.00    +0.030 A 
ATOM     20  C   UNL     1       1.662  -1.588  -3.949  0.00  0.00    +0.089 A 
ATOM     21  C   UNL     1       1.044  -2.059  -2.805  0.00  0.00    +0.030 A 
ATOM     22  C   UNL     1       0.402  -1.180  -1.954  0.00  0.00    +0.047 A 
BRANCH  17  24
ATOM     23  C   UNL     1      -0.262   2.420  -1.793  0.00  0.00    +0.277 C 
ATOM     24  O   UNL     1      -0.267   1.040  -1.421  0.00  0.00    -0.495 OA
ENDBRANCH  17  24
ENDBRANCH  14  20
ENDBRANCH   1  14
BRANCH  13  25
ATOM     25  N   UNL     1       4.192  -4.364  -6.308  0.00  0.00    -0.309 NA
ATOM     26  H   UNL     1       4.752  -4.918  -6.939  0.00  0.00    +0.120 HD
ATOM     27  H   UNL     1       3.444  -4.912  -5.912  0.00  0.00    +0.120 HD
ENDBRANCH  13  25
BRANCH  12  28
ATOM     28  N   UNL     1       6.190  -5.819  -4.618  0.00  0.00    -0.185 NA
ATOM     29  C   UNL     1       6.678  -5.932  -5.830  0.00  0.00    +0.136 C 
BRANCH  29  30
ATOM     30  C   UNL     1       7.364  -7.092  -6.202  0.00  0.00    +0.000 C 
ATOM     31  C   UNL     1       7.946  -7.368  -7.441  0.00  0.00    +0.004 A 
ATOM     32  C   UNL     1       8.032  -6.629  -8.640  0.00  0.00    +0.010 A 
ATOM     33  C   UNL     1       8.674  -7.158  -9.713  0.00  0.00    +0.001 A 
ATOM     34  C   UNL     1       9.257  -8.427  -9.664  0.00  0.00    +0.002 A 
ATOM     35  C   UNL     1       9.212  -9.192  -8.546  0.00  0.00    +0.026 A 
ATOM     36  C   UNL     1       8.558  -8.706  -7.384  0.00  0.00    +0.043 A 
ATOM     37  N   UNL     1       8.380  -9.244  -6.194  0.00  0.00    -0.380 N 
ATOM     38  C   UNL     1       7.636  -8.309  -5.345  0.00  0.00    +0.150 C 
ATOM     39  H   UNL     1       8.696 -10.120  -5.921  0.00  0.00    +0.160 HD
ENDBRANCH  29  30
ENDBRANCH  12  28
TORSDOF 6
