REMARK  Name = ZINC02385099
REMARK  12 active torsions:
REMARK  status: ('A' for Active; 'I' for Inactive)
REMARK    1  A    between atoms: C_1  and  C_2
REMARK    2  A    between atoms: C_6  and  O_35
REMARK    3  A    between atoms: C_7  and  O_33
REMARK    4  A    between atoms: N_12  and  N_13
REMARK    5  A    between atoms: C_14  and  C_15
REMARK    6  A    between atoms: C_19  and  C_22
REMARK    7  A    between atoms: C_20  and  O_21
REMARK    8  A    between atoms: C_22  and  C_23
REMARK    9  A    between atoms: C_22  and  C_24
REMARK   10  A    between atoms: C_22  and  C_25
REMARK   11  A    between atoms: O_33  and  C_34
REMARK   12  A    between atoms: O_35  and  C_36
REMARK                            x       y       z     vdW  Elec       q    Type
REMARK                         _______ _______ _______ _____ _____    ______ ____
ROOT
ATOM      1  C   UNL     1      -0.165   0.236   4.776  0.00  0.00    +0.047 A 
ATOM      2  C   UNL     1      -0.245  -0.423   6.019  0.00  0.00    +0.036 A 
ATOM      3  C   UNL     1      -0.348   0.325   7.203  0.00  0.00    +0.137 A 
ATOM      4  C   UNL     1      -0.371   1.713   7.138  0.00  0.00    +0.054 A 
ATOM      5  C   UNL     1      -0.294   2.357   5.921  0.00  0.00    +0.004 A 
ATOM      6  C   UNL     1      -0.185   1.634   4.740  0.00  0.00    +0.130 A 
ATOM      7  O   UNL     1      -0.405  -0.551   8.230  0.00  0.00    -0.459 OA
ATOM      8  C   UNL     1      -0.350  -1.816   7.784  0.00  0.00    +0.109 A 
ATOM      9  C   UNL     1      -0.250  -1.818   6.441  0.00  0.00    +0.002 A 
ATOM     10  C   UNL     1      -0.163  -3.054   5.586  0.00  0.00    +0.039 C 
ATOM     11  C   UNL     1       0.197  -4.243   6.487  0.00  0.00    +0.005 C 
ATOM     12  C   UNL     1      -0.732  -4.256   7.704  0.00  0.00    +0.008 C 
ATOM     13  C   UNL     1      -0.392  -3.075   8.620  0.00  0.00    +0.075 C 
ENDROOT
BRANCH   5  14
ATOM     14  C   UNL     1      -0.321   3.863   5.872  0.00  0.00    -0.009 C 
ATOM     15  C   UNL     1      -0.439   4.417   7.293  0.00  0.00    +0.015 C 
ATOM     16  C   UNL     1       0.969   4.376   5.229  0.00  0.00    +0.015 C 
ATOM     17  C   UNL     1      -1.522   4.324   5.044  0.00  0.00    +0.015 C 
ENDBRANCH   5  14
BRANCH   1  19
ATOM     18  N   UNL     1       0.024   0.078   2.389  0.00  0.00    -0.170 NA
ATOM     19  C   UNL     1      -0.055  -0.537   3.532  0.00  0.00    +0.145 C 
BRANCH  18  31
ATOM     20  C   UNL     1       2.336   0.109   0.859  0.00  0.00    +0.088 C 
ATOM     21  C   UNL     1       1.129  -0.673   0.410  0.00  0.00    +0.132 A 
ATOM     22  N   UNL     1       1.203  -1.334  -0.706  0.00  0.00    -0.232 NA
ATOM     23  C   UNL     1       0.156  -2.061  -1.173  0.00  0.00    +0.082 A 
ATOM     24  C   UNL     1       0.237  -2.770  -2.371  0.00  0.00    +0.078 A 
ATOM     25  C   UNL     1      -0.851  -3.498  -2.811  0.00  0.00    +0.164 A 
ATOM     26  C   UNL     1      -2.036  -3.531  -2.067  0.00  0.00    +0.162 A 
ATOM     27  C   UNL     1      -2.134  -2.836  -0.880  0.00  0.00    +0.064 A 
ATOM     28  C   UNL     1      -1.042  -2.096  -0.423  0.00  0.00    +0.070 A 
ATOM     29  C   UNL     1      -1.093  -1.339   0.833  0.00  0.00    +0.282 A 
ATOM     30  O   UNL     1      -2.095  -1.328   1.525  0.00  0.00    -0.265 OA
ATOM     31  N   UNL     1       0.018  -0.656   1.196  0.00  0.00    -0.182 N 
BRANCH  26  32
ATOM     32  O   UNL     1      -3.097  -4.253  -2.518  0.00  0.00    -0.491 OA
ATOM     33  C   UNL     1      -4.276  -4.245  -1.711  0.00  0.00    +0.277 C 
ENDBRANCH  26  32
BRANCH  25  34
ATOM     34  O   UNL     1      -0.771  -4.188  -3.978  0.00  0.00    -0.491 OA
ATOM     35  C   UNL     1       0.465  -4.115  -4.692  0.00  0.00    +0.277 C 
ENDBRANCH  25  34
ENDBRANCH  18  31
ENDBRANCH   1  19
BRANCH   6  36
ATOM     36  O   UNL     1      -0.103   2.285   3.550  0.00  0.00    -0.506 OA
ATOM     37  H   UNL     1      -0.961   2.459   3.138  0.00  0.00    +0.292 HD
ENDBRANCH   6  36
TORSDOF 6
