REMARK  Name = ZINC03841361
REMARK  7 active torsions:
REMARK  status: ('A' for Active; 'I' for Inactive)
REMARK    1  A    between atoms: C_4  and  C_7
REMARK    2  A    between atoms: C_7  and  C_8
REMARK    3  A    between atoms: C_8  and  C_9
REMARK    4  A    between atoms: C_9  and  N_62
REMARK    5  A    between atoms: C_20  and  N_25
REMARK    6  A    between atoms: N_25  and  S_26
REMARK    7  A    between atoms: S_26  and  C_29
REMARK                            x       y       z     vdW  Elec       q    Type
REMARK                         _______ _______ _______ _____ _____    ______ ____
ROOT
ATOM      1  C   UNL     1       0.107   9.457  -2.966  0.00  0.00    -0.074 C 
ATOM      2  C   UNL     1       0.251   9.976  -4.388  0.00  0.00    -0.007 C 
ATOM      3  C   UNL     1      -0.992   9.644  -5.219  0.00  0.00    +0.011 C 
ATOM      4  C   UNL     1      -1.189   8.124  -5.168  0.00  0.00    +0.020 C 
ATOM      5  C   UNL     1      -1.417   7.724  -3.701  0.00  0.00    -0.069 C 
ATOM      6  C   UNL     1       0.079   7.443  -5.631  0.00  0.00    +0.023 A 
ATOM      7  C   UNL     1      -0.042   6.205  -6.178  0.00  0.00    +0.023 A 
ATOM      8  C   UNL     1       1.091   5.484  -6.572  0.00  0.00    +0.031 A 
ATOM      9  C   UNL     1       2.326   6.039  -6.379  0.00  0.00    +0.112 A 
ATOM     10  C   UNL     1       2.416   7.326  -5.813  0.00  0.00    +0.274 A 
ATOM     11  O   UNL     1       3.513   7.813  -5.593  0.00  0.00    -0.266 OA
ATOM     12  N   UNL     1       1.296   8.028  -5.510  0.00  0.00    -0.310 N 
ATOM     13  C   UNL     1       1.483   9.413  -5.076  0.00  0.00    +0.127 C 
ATOM     14  N   UNL     1      -0.164   8.005  -2.966  0.00  0.00    +0.380 N 
ATOM     15  H   UNL     1       0.613   7.522  -3.432  0.00  0.00    -0.082 HD
ENDROOT
BRANCH   9  16
ATOM     16  N   UNL     1       3.484   5.339  -6.739  0.00  0.00    -0.211 N 
ATOM     17  H   UNL     1       4.351   5.768  -6.670  0.00  0.00    +0.174 HD
BRANCH  16  18
ATOM     18  S   UNL     1       3.373   3.779  -7.283  0.00  0.00    +0.072 S 
ATOM     19  O   UNL     1       2.373   3.771  -8.293  0.00  0.00    -0.150 OA
ATOM     20  O   UNL     1       4.701   3.336  -7.523  0.00  0.00    -0.150 OA
BRANCH  18  21
ATOM     21  C   UNL     1       2.751   2.806  -5.952  0.00  0.00    +0.108 A 
ATOM     22  C   UNL     1       3.614   2.326  -4.985  0.00  0.00    +0.029 A 
ATOM     23  C   UNL     1       3.126   1.567  -3.937  0.00  0.00    +0.002 A 
ATOM     24  C   UNL     1       1.776   1.279  -3.863  0.00  0.00    +0.000 A 
ATOM     25  C   UNL     1       0.913   1.755  -4.833  0.00  0.00    +0.002 A 
ATOM     26  C   UNL     1       1.401   2.518  -5.878  0.00  0.00    +0.029 A 
ENDBRANCH  18  21
ENDBRANCH  16  18
ENDBRANCH   9  16
BRANCH  14  27
ATOM     27  C   UNL     1      -0.270   7.513  -1.577  0.00  0.00    -0.078 C 
BRANCH  27  28
ATOM     28  C   UNL     1      -0.322   5.984  -1.601  0.00  0.00    -0.014 C 
BRANCH  28  29
ATOM     29  C   UNL     1      -0.409   5.455  -0.168  0.00  0.00    +0.033 C 
BRANCH  29  33
ATOM     30  C   UNL     1      -0.554   1.186  -0.233  0.00  0.00    +0.000 A 
ATOM     31  C   UNL     1      -1.725   1.918  -0.285  0.00  0.00    +0.000 A 
ATOM     32  C   UNL     1      -1.679   3.299  -0.259  0.00  0.00    +0.003 A 
ATOM     33  C   UNL     1      -0.460   3.949  -0.191  0.00  0.00    -0.047 A 
ATOM     34  C   UNL     1       0.711   3.216  -0.144  0.00  0.00    +0.003 A 
ATOM     35  C   UNL     1       0.665   1.835  -0.165  0.00  0.00    +0.000 A 
ENDBRANCH  29  33
ENDBRANCH  28  29
ENDBRANCH  27  28
ENDBRANCH  14  27
TORSDOF 7
