REMARK  Name = ZINC36553136
REMARK  14 active torsions:
REMARK  status: ('A' for Active; 'I' for Inactive)
REMARK    1  A    between atoms: C_1  and  C_2
REMARK    2  A    between atoms: C_2  and  C_3
REMARK    3  A    between atoms: C_3  and  C_4
REMARK    4  A    between atoms: C_4  and  N_5
REMARK    5  A    between atoms: C_6  and  C_8
REMARK    6  A    between atoms: C_8  and  C_10
REMARK    7  A    between atoms: C_8  and  N_20
REMARK    8  A    between atoms: C_13  and  O_18
REMARK    9  A    between atoms: C_14  and  O_16
REMARK   10  A    between atoms: O_16  and  C_17
REMARK   11  A    between atoms: O_18  and  C_19
REMARK   12  A    between atoms: N_20  and  C_21
REMARK   13  A    between atoms: C_28  and  C_30
REMARK   14  A    between atoms: C_34  and  N_36
REMARK                            x       y       z     vdW  Elec       q    Type
REMARK                         _______ _______ _______ _____ _____    ______ ____
ROOT
ATOM      1  C   UNL     1       2.156  -4.876  -3.153  0.00  0.00    +0.198 C 
ENDROOT
BRANCH   1   2
ATOM      2  C   UNL     1       3.431  -5.168  -2.405  0.00  0.00    -0.014 A 
ATOM      3  C   UNL     1       3.586  -6.377  -1.752  0.00  0.00    +0.010 A 
ATOM      4  C   UNL     1       4.754  -6.650  -1.064  0.00  0.00    +0.050 A 
ATOM      5  C   UNL     1       5.773  -5.712  -1.030  0.00  0.00    +0.162 A 
ATOM      6  C   UNL     1       5.618  -4.495  -1.688  0.00  0.00    +0.162 A 
ATOM      7  C   UNL     1       4.446  -4.230  -2.380  0.00  0.00    +0.055 A 
BRANCH   6   8
ATOM      8  O   UNL     1       6.615  -3.571  -1.658  0.00  0.00    -0.491 OA
ATOM      9  C   UNL     1       6.386  -2.346  -2.356  0.00  0.00    +0.277 C 
ENDBRANCH   6   8
BRANCH   5  10
ATOM     10  O   UNL     1       6.922  -5.978  -0.354  0.00  0.00    -0.491 OA
ATOM     11  C   UNL     1       7.012  -7.246   0.299  0.00  0.00    +0.277 C 
ENDBRANCH   5  10
ENDBRANCH   1   2
BRANCH   1  13
ATOM     12  N   UNL     1       0.834  -4.479  -1.100  0.00  0.00    -0.313 N 
ATOM     13  C   UNL     1       0.975  -5.153  -2.259  0.00  0.00    +0.238 C 
ATOM     14  O   UNL     1       0.150  -5.982  -2.583  0.00  0.00    -0.273 OA
ATOM     15  H   UNL     1       1.494  -3.817  -0.842  0.00  0.00    +0.149 HD
BRANCH  12  16
ATOM     16  C   UNL     1      -0.314  -4.748  -0.231  0.00  0.00    +0.104 C 
BRANCH  16  17
ATOM     17  C   UNL     1      -0.234  -3.857   1.010  0.00  0.00    +0.018 C 
BRANCH  17  19
ATOM     18  C   UNL     1      -1.354  -3.246   3.158  0.00  0.00    +0.004 C 
ATOM     19  C   UNL     1      -1.434  -4.138   1.917  0.00  0.00    -0.002 C 
ENDBRANCH  17  19
ENDBRANCH  16  17
ENDBRANCH  12  16
ENDBRANCH   1  13
BRANCH   1  20
ATOM     20  N   UNL     1       2.080  -5.730  -4.341  0.00  0.00    -0.251 N 
ATOM     21  C   UNL     1       0.966  -5.732  -5.099  0.00  0.00    +0.252 C 
ATOM     22  O   UNL     1       0.955  -6.319  -6.164  0.00  0.00    -0.270 OA
BRANCH  20  23
ATOM     23  C   UNL     1       3.163  -6.543  -4.689  0.00  0.00    +0.039 A 
ATOM     24  C   UNL     1       3.093  -7.917  -4.495  0.00  0.00    +0.023 A 
ATOM     25  C   UNL     1       4.164  -8.717  -4.839  0.00  0.00    +0.003 A 
ATOM     26  C   UNL     1       5.307  -8.153  -5.377  0.00  0.00    +0.020 A 
ATOM     27  C   UNL     1       5.381  -6.785  -5.571  0.00  0.00    +0.043 A 
ATOM     28  C   UNL     1       4.309  -5.979  -5.234  0.00  0.00    +0.043 A 
ATOM     29 CL   UNL     1       6.817  -6.082  -6.245  0.00  0.00    -0.083 Cl
ENDBRANCH  20  23
BRANCH  21  30
ATOM     30  C   UNL     1      -0.244  -5.019  -4.637  0.00  0.00    +0.039 A 
ATOM     31  C   UNL     1      -0.133  -3.971  -3.722  0.00  0.00    +0.013 A 
ATOM     32  C   UNL     1      -1.266  -3.310  -3.295  0.00  0.00    +0.003 A 
ATOM     33  C   UNL     1      -2.510  -3.684  -3.771  0.00  0.00    +0.033 A 
ATOM     34  C   UNL     1      -2.627  -4.722  -4.678  0.00  0.00    +0.127 A 
ATOM     35  C   UNL     1      -1.501  -5.388  -5.118  0.00  0.00    +0.045 A 
BRANCH  34  36
ATOM     36  N   UNL     1      -3.962  -5.116  -5.181  0.00  0.00    +0.056 N 
ATOM     37  O   UNL     1      -4.949  -4.531  -4.800  0.00  0.00    -0.126 OA
ATOM     38  O   UNL     1      -4.066  -6.024  -5.974  0.00  0.00    -0.126 OA
ENDBRANCH  34  36
ENDBRANCH  21  30
ENDBRANCH   1  20
TORSDOF 11
