REMARK  Name = ZINC01150418
REMARK  11 active torsions:
REMARK  status: ('A' for Active; 'I' for Inactive)
REMARK    1  A    between atoms: C_1  and  C_2
REMARK    2  A    between atoms: C_2  and  O_3
REMARK    3  A    between atoms: O_3  and  C_4
REMARK    4  A    between atoms: C_9  and  N_10
REMARK    5  A    between atoms: N_10  and  C_11
REMARK    6  A    between atoms: N_10  and  S_24
REMARK    7  A    between atoms: C_11  and  C_12
REMARK    8  A    between atoms: N_14  and  C_15
REMARK    9  A    between atoms: C_19  and  N_21
REMARK   10  A    between atoms: S_24  and  C_27
REMARK   11  A    between atoms: C_30  and  C_33
REMARK                            x       y       z     vdW  Elec       q    Type
REMARK                         _______ _______ _______ _____ _____    ______ ____
ROOT
ATOM      1  N   UNL     1      -8.491   2.010   0.366  0.00  0.00    -0.191 N 
ENDROOT
BRANCH   1   7
ATOM      2  C   UNL     1      -9.856   1.926   2.362  0.00  0.00    +0.143 A 
ATOM      3  C   UNL     1     -10.207   2.446   3.597  0.00  0.00    +0.047 A 
ATOM      4  C   UNL     1      -9.558   3.565   4.085  0.00  0.00    +0.004 A 
ATOM      5  C   UNL     1      -8.558   4.168   3.344  0.00  0.00    +0.002 A 
ATOM      6  C   UNL     1      -8.199   3.651   2.113  0.00  0.00    +0.028 A 
ATOM      7  C   UNL     1      -8.849   2.532   1.614  0.00  0.00    +0.093 A 
BRANCH   2   8
ATOM      8  O   UNL     1     -10.493   0.825   1.881  0.00  0.00    -0.490 OA
BRANCH   8  10
ATOM      9  C   UNL     1     -12.113  -0.965   2.000  0.00  0.00    +0.048 C 
ATOM     10  C   UNL     1     -11.515   0.256   2.702  0.00  0.00    +0.226 C 
ENDBRANCH   8  10
ENDBRANCH   2   8
ENDBRANCH   1   7
BRANCH   1  11
ATOM     11  S   UNL     1      -9.336   2.449  -0.989  0.00  0.00    +0.075 S 
ATOM     12  O   UNL     1      -9.934   3.707  -0.704  0.00  0.00    -0.150 OA
ATOM     13  O   UNL     1      -8.464   2.253  -2.093  0.00  0.00    -0.150 OA
BRANCH  11  14
ATOM     14  C   UNL     1     -10.654   1.295  -1.177  0.00  0.00    +0.109 A 
ATOM     15  C   UNL     1     -10.466   0.147  -1.923  0.00  0.00    +0.029 A 
ATOM     16  C   UNL     1     -11.499  -0.761  -2.067  0.00  0.00    +0.005 A 
ATOM     17  C   UNL     1     -12.723  -0.515  -1.473  0.00  0.00    -0.050 A 
ATOM     18  C   UNL     1     -12.912   0.636  -0.731  0.00  0.00    +0.005 A 
ATOM     19  C   UNL     1     -11.878   1.541  -0.583  0.00  0.00    +0.029 A 
ATOM     20  C   UNL     1     -13.850  -1.502  -1.634  0.00  0.00    +0.044 C 
ENDBRANCH  11  14
ENDBRANCH   1  11
BRANCH   1  21
ATOM     21  C   UNL     1      -7.368   1.076   0.258  0.00  0.00    +0.227 C 
BRANCH  21  22
ATOM     22  C   UNL     1      -6.080   1.849   0.143  0.00  0.00    +0.236 C 
ATOM     23  O   UNL     1      -6.098   3.062   0.151  0.00  0.00    -0.274 OA
ATOM     24  N   UNL     1      -4.907   1.194   0.032  0.00  0.00    -0.284 N 
ATOM     25  H   UNL     1      -4.898   0.227  -0.042  0.00  0.00    +0.155 HD
BRANCH  24  26
ATOM     26  C   UNL     1      -3.704   1.908   0.022  0.00  0.00    +0.036 A 
ATOM     27  C   UNL     1      -3.642   3.158  -0.580  0.00  0.00    +0.023 A 
ATOM     28  C   UNL     1      -2.453   3.860  -0.588  0.00  0.00    +0.004 A 
ATOM     29  C   UNL     1      -1.326   3.323   0.008  0.00  0.00    +0.033 A 
ATOM     30  C   UNL     1      -1.384   2.077   0.605  0.00  0.00    +0.128 A 
ATOM     31  C   UNL     1      -2.571   1.369   0.616  0.00  0.00    +0.056 A 
BRANCH  30  32
ATOM     32  N   UNL     1      -0.175   1.503   1.237  0.00  0.00    +0.056 N 
ATOM     33  O   UNL     1      -0.227   0.407   1.767  0.00  0.00    -0.126 OA
ATOM     34  O   UNL     1       0.872   2.124   1.223  0.00  0.00    -0.126 OA
ENDBRANCH  30  32
ENDBRANCH  24  26
ENDBRANCH  21  22
ENDBRANCH   1  21
TORSDOF 9
