REMARK  Name = ZINC39266372
REMARK  13 active torsions:
REMARK  status: ('A' for Active; 'I' for Inactive)
REMARK    1  A    between atoms: C_1  and  C_2
REMARK    2  A    between atoms: C_2  and  O_3
REMARK    3  A    between atoms: O_3  and  C_4
REMARK    4  A    between atoms: C_4  and  C_6
REMARK    5  A    between atoms: C_6  and  C_8
REMARK    6  A    between atoms: C_6  and  N_12
REMARK    7  A    between atoms: C_8  and  C_9
REMARK    8  A    between atoms: C_9  and  C_10
REMARK    9  A    between atoms: C_9  and  C_11
REMARK   10  A    between atoms: N_21  and  C_22
REMARK   11  A    between atoms: C_22  and  C_23
REMARK   12  A    between atoms: N_25  and  C_26
REMARK   13  A    between atoms: C_31  and  N_32
REMARK                            x       y       z     vdW  Elec       q    Type
REMARK                         _______ _______ _______ _____ _____    ______ ____
ROOT
ATOM      1  N   UNL     1      -2.772  -2.654   0.620  0.00  0.00    -0.289 N 
ATOM      2  C   UNL     1      -2.241  -3.447   1.736  0.00  0.00    +0.108 C 
ATOM      3  C   UNL     1      -2.567  -4.918   1.390  0.00  0.00    +0.016 C 
ATOM      4  C   UNL     1      -2.672  -4.859  -0.144  0.00  0.00    +0.015 C 
ATOM      5  C   UNL     1      -3.017  -3.427  -0.455  0.00  0.00    +0.206 C 
ATOM      6  O   UNL     1      -3.448  -3.029  -1.516  0.00  0.00    -0.277 OA
ATOM      7  C   UNL     1      -3.774  -5.806  -0.641  0.00  0.00    -0.005 C 
ATOM      8  C   UNL     1      -3.180  -6.361  -1.965  0.00  0.00    -0.019 C 
ATOM      9  C   UNL     1      -1.671  -6.445  -1.622  0.00  0.00    -0.077 C 
ATOM     10  N   UNL     1      -1.409  -5.262  -0.772  0.00  0.00    +0.395 N 
ATOM     11  H   UNL     1      -1.055  -4.506  -1.339  0.00  0.00    -0.080 HD
ENDROOT
BRANCH   1  12
ATOM     12  C   UNL     1      -3.010  -1.209   0.671  0.00  0.00    +0.185 C 
BRANCH  12  13
ATOM     13  C   UNL     1      -1.695  -0.488   0.819  0.00  0.00    +0.328 C 
ATOM     14  O   UNL     1      -0.665  -1.117   0.876  0.00  0.00    -0.249 OA
BRANCH  13  15
ATOM     15  O   UNL     1      -1.669   0.852   0.888  0.00  0.00    -0.464 OA
BRANCH  15  17
ATOM     16  C   UNL     1      -0.557   2.989   1.089  0.00  0.00    +0.048 C 
ATOM     17  C   UNL     1      -0.388   1.469   1.028  0.00  0.00    +0.229 C 
ENDBRANCH  15  17
ENDBRANCH  13  15
ENDBRANCH  12  13
BRANCH  12  18
ATOM     18  C   UNL     1      -3.908  -0.883   1.866  0.00  0.00    +0.037 C 
BRANCH  18  19
ATOM     19  C   UNL     1      -5.280  -1.529   1.665  0.00  0.00    -0.015 C 
ATOM     20  C   UNL     1      -6.127  -1.330   2.923  0.00  0.00    +0.007 C 
ATOM     21  C   UNL     1      -5.981  -0.877   0.471  0.00  0.00    +0.007 C 
ENDBRANCH  18  19
ENDBRANCH  12  18
ENDBRANCH   1  12
BRANCH  10  22
ATOM     22  C   UNL     1      -0.428  -5.605   0.266  0.00  0.00    +0.020 C 
BRANCH  22  23
ATOM     23  C   UNL     1       0.912  -5.859  -0.374  0.00  0.00    +0.201 C 
ATOM     24  O   UNL     1       1.038  -5.764  -1.577  0.00  0.00    -0.278 OA
ATOM     25  N   UNL     1       1.972  -6.192   0.389  0.00  0.00    -0.285 N 
ATOM     26  H   UNL     1       1.859  -6.327   1.343  0.00  0.00    +0.155 HD
BRANCH  25  27
ATOM     27  C   UNL     1       3.236  -6.344  -0.195  0.00  0.00    +0.057 A 
ATOM     28  C   UNL     1       3.347  -6.710  -1.528  0.00  0.00    +0.025 A 
ATOM     29  C   UNL     1       4.595  -6.859  -2.102  0.00  0.00    +0.002 A 
ATOM     30  C   UNL     1       5.736  -6.643  -1.351  0.00  0.00    +0.002 A 
ATOM     31  C   UNL     1       5.634  -6.278  -0.022  0.00  0.00    +0.028 A 
ATOM     32  C   UNL     1       4.386  -6.121   0.561  0.00  0.00    +0.067 A 
BRANCH  32  33
ATOM     33  N   UNL     1       4.281  -5.745   1.908  0.00  0.00    -0.321 N 
ATOM     34  C   UNL     1       3.498  -4.737   2.394  0.00  0.00    +0.091 A 
ATOM     35  C   UNL     1       3.665  -4.682   3.732  0.00  0.00    +0.019 A 
ATOM     36  C   UNL     1       4.584  -5.690   4.085  0.00  0.00    +0.019 A 
ATOM     37  C   UNL     1       4.940  -6.329   2.951  0.00  0.00    +0.091 A 
ENDBRANCH  32  33
ENDBRANCH  25  27
ENDBRANCH  22  23
ENDBRANCH  10  22
TORSDOF 10
