REMARK  Name = ZINC20784460
REMARK  10 active torsions:
REMARK  status: ('A' for Active; 'I' for Inactive)
REMARK    1  A    between atoms: C_1  and  C_2
REMARK    2  A    between atoms: C_2  and  O_3
REMARK    3  A    between atoms: O_3  and  C_4
REMARK    4  A    between atoms: C_12  and  C_14
REMARK    5  A    between atoms: C_17  and  N_20
REMARK    6  A    between atoms: C_23  and  N_26
REMARK    7  A    between atoms: N_26  and  C_27
REMARK    8  A    between atoms: N_26  and  C_28
REMARK    9  A    between atoms: C_28  and  C_29
REMARK   10  A    between atoms: C_30  and  C_34
REMARK                            x       y       z     vdW  Elec       q    Type
REMARK                         _______ _______ _______ _____ _____    ______ ____
ROOT
ATOM      1  C   UNL     1      -1.331   1.874  -0.056  0.00  0.00    +0.037 A 
ATOM      2  C   UNL     1      -1.410   3.267  -0.146  0.00  0.00    +0.015 A 
ATOM      3  C   UNL     1      -2.640   3.882  -0.213  0.00  0.00    +0.024 A 
ATOM      4  C   UNL     1      -3.804   3.119  -0.177  0.00  0.00    +0.030 A 
ATOM      5  C   UNL     1      -3.728   1.732  -0.081  0.00  0.00    +0.024 A 
ATOM      6  C   UNL     1      -2.502   1.111  -0.021  0.00  0.00    +0.015 A 
ENDROOT
BRANCH   1  15
ATOM      7  C   UNL     1       3.665   2.208  -3.660  0.00  0.00    +0.403 C 
ATOM      8  O   UNL     1       3.483   3.113  -4.451  0.00  0.00    -0.226 OA
ATOM      9  N   UNL     1       2.638   1.740  -2.924  0.00  0.00    -0.264 N 
ATOM     10  C   UNL     1       1.293   2.313  -3.067  0.00  0.00    +0.130 C 
ATOM     11  C   UNL     1       0.807   2.774  -1.687  0.00  0.00    +0.127 C 
ATOM     12  N   UNL     1       1.013   1.680  -0.728  0.00  0.00    -0.295 N 
ATOM     13  C   UNL     1       2.359   1.111  -0.581  0.00  0.00    +0.127 C 
ATOM     14  C   UNL     1       2.844   0.646  -1.964  0.00  0.00    +0.130 C 
ATOM     15  C   UNL     1      -0.014   1.212   0.009  0.00  0.00    +0.247 C 
ATOM     16  O   UNL     1       0.143   0.240   0.722  0.00  0.00    -0.270 OA
BRANCH   7  17
ATOM     17  O   UNL     1       4.893   1.674  -3.520  0.00  0.00    -0.451 OA
BRANCH  17  19
ATOM     18  C   UNL     1       7.264   1.500  -4.048  0.00  0.00    +0.048 C 
ATOM     19  C   UNL     1       5.952   2.228  -4.345  0.00  0.00    +0.230 C 
ENDBRANCH  17  19
ENDBRANCH   7  17
ENDBRANCH   1  15
BRANCH   4  20
ATOM     20  N   UNL     1      -5.045   3.744  -0.238  0.00  0.00    -0.330 N 
ATOM     21  C   UNL     1      -5.845   3.216  -1.350  0.00  0.00    +0.103 C 
ATOM     22  C   UNL     1      -7.251   3.818  -1.299  0.00  0.00    +0.004 C 
ATOM     23  C   UNL     1      -7.152   5.343  -1.395  0.00  0.00    -0.066 C 
ATOM     24  C   UNL     1      -6.273   5.863  -0.254  0.00  0.00    +0.004 C 
ATOM     25  C   UNL     1      -4.896   5.202  -0.336  0.00  0.00    +0.103 C 
BRANCH  23  26
ATOM     26  N   UNL     1      -8.494   5.930  -1.288  0.00  0.00    +0.384 N 
ATOM     27  C   UNL     1      -8.428   7.398  -1.275  0.00  0.00    -0.095 C 
ATOM     28  H   UNL     1      -8.931   5.603  -0.333  0.00  0.00    -0.081 HD
BRANCH  26  29
ATOM     29  C   UNL     1      -9.366   5.453  -2.369  0.00  0.00    -0.017 C 
BRANCH  29  30
ATOM     30  C   UNL     1     -10.786   5.874  -2.093  0.00  0.00    +0.091 A 
ATOM     31  C   UNL     1     -11.733   5.120  -1.373  0.00  0.00    +0.103 A 
ATOM     32  N   UNL     1     -12.854   5.775  -1.317  0.00  0.00    -0.054 NA
ATOM     33  O   UNL     1     -12.670   6.992  -2.021  0.00  0.00    -0.242 OA
ATOM     34  N   UNL     1     -11.330   6.986  -2.487  0.00  0.00    -0.056 NA
ATOM     35  C   UNL     1     -11.484   3.766  -0.758  0.00  0.00    +0.071 C 
ENDBRANCH  29  30
ENDBRANCH  26  29
ENDBRANCH  23  26
ENDBRANCH   4  20
TORSDOF 7
