REMARK  Name = ZINC49200336
REMARK  5 active torsions:
REMARK  status: ('A' for Active; 'I' for Inactive)
REMARK    1  A    between atoms: C_1  and  C_2
REMARK    2  A    between atoms: N_7  and  C_8
REMARK    3  A    between atoms: N_10  and  C_11
REMARK    4  A    between atoms: C_11  and  C_13
REMARK    5  A    between atoms: C_11  and  C_14
REMARK                            x       y       z     vdW  Elec       q    Type
REMARK                         _______ _______ _______ _____ _____    ______ ____
ROOT
ATOM      1  C   UNL     1       2.558  -3.852  -0.479  0.00  0.00    +0.326 C 
ATOM      2  O   UNL     1       3.377  -2.951  -0.416  0.00  0.00    -0.251 OA
ATOM      3  N   UNL     1       2.949  -5.131  -0.309  0.00  0.00    -0.291 N 
ATOM      4  H   UNL     1       2.298  -5.848  -0.359  0.00  0.00    +0.151 HD
ENDROOT
BRANCH   1  11
ATOM      5  C   UNL     1       0.655   1.783  -1.264  0.00  0.00    +0.053 C 
ATOM      6  C   UNL     1       0.546   0.283  -1.159  0.00  0.00    +0.006 A 
ATOM      7  C   UNL     1      -0.537  -0.491  -1.276  0.00  0.00    +0.095 A 
ATOM      8  N   UNL     1      -0.363  -1.834  -1.135  0.00  0.00    -0.342 N 
ATOM      9  H   UNL     1      -1.117  -2.440  -1.212  0.00  0.00    +0.167 HD
ATOM     10  C   UNL     1       0.888  -2.310  -0.886  0.00  0.00    +0.165 A 
ATOM     11  N   UNL     1       1.274  -3.573  -0.718  0.00  0.00    -0.139 NA
ATOM     12  S   UNL     1       1.828  -0.916  -0.852  0.00  0.00    -0.058 S 
ENDBRANCH   1  11
BRANCH   3  13
ATOM     13  C   UNL     1       4.358  -5.438  -0.047  0.00  0.00    +0.103 C 
ATOM     14  C   UNL     1       4.626  -5.361   1.457  0.00  0.00    +0.033 C 
BRANCH  13  15
ATOM     15  C   UNL     1       4.670  -6.826  -0.543  0.00  0.00    -0.009 A 
ATOM     16  C   UNL     1       3.670  -7.778  -0.608  0.00  0.00    +0.007 A 
ATOM     17  C   UNL     1       3.956  -9.052  -1.062  0.00  0.00    +0.000 A 
ATOM     18  C   UNL     1       5.242  -9.374  -1.452  0.00  0.00    +0.001 A 
ATOM     19  C   UNL     1       6.243  -8.423  -1.387  0.00  0.00    +0.020 A 
ATOM     20  C   UNL     1       5.956  -7.147  -0.938  0.00  0.00    +0.046 A 
ATOM     21 CL   UNL     1       7.211  -5.950  -0.863  0.00  0.00    -0.083 Cl
ENDBRANCH  13  15
ENDBRANCH   3  13
TORSDOF 3
