REMARK  Name = ZINC26404062
REMARK  8 active torsions:
REMARK  status: ('A' for Active; 'I' for Inactive)
REMARK    1  A    between atoms: C_4  and  C_23
REMARK    2  A    between atoms: C_5  and  C_7
REMARK    3  A    between atoms: C_7  and  N_8
REMARK    4  A    between atoms: C_9  and  C_11
REMARK    5  A    between atoms: C_11  and  C_12
REMARK    6  A    between atoms: C_12  and  N_13
REMARK    7  A    between atoms: C_26  and  C_29
REMARK    8  A    between atoms: C_29  and  N_30
REMARK                            x       y       z     vdW  Elec       q    Type
REMARK                         _______ _______ _______ _____ _____    ______ ____
ROOT
ATOM      1  C   UNL     1      -0.181  -0.584   6.569  0.00  0.00    +0.000 A 
ATOM      2  C   UNL     1       0.975  -0.025   7.083  0.00  0.00    +0.001 A 
ATOM      3  C   UNL     1       1.493   1.127   6.529  0.00  0.00    +0.009 A 
ATOM      4  C   UNL     1       0.852   1.726   5.446  0.00  0.00    -0.013 A 
ATOM      5  C   UNL     1      -0.315   1.161   4.935  0.00  0.00    -0.023 A 
ATOM      6  C   UNL     1      -0.824   0.007   5.497  0.00  0.00    +0.006 A 
ENDROOT
BRANCH   4   7
ATOM      7  C   UNL     1       1.407   2.963   4.843  0.00  0.00    -0.018 A 
ATOM      8  C   UNL     1       2.718   2.984   4.373  0.00  0.00    +0.009 A 
ATOM      9  C   UNL     1       3.228   4.135   3.808  0.00  0.00    +0.002 A 
ATOM     10  C   UNL     1       2.442   5.270   3.717  0.00  0.00    -0.064 A 
ATOM     11  C   UNL     1       1.141   5.256   4.186  0.00  0.00    +0.002 A 
ATOM     12  C   UNL     1       0.620   4.109   4.749  0.00  0.00    +0.009 A 
BRANCH  10  13
ATOM     13  C   UNL     1       3.006   6.526   3.104  0.00  0.00    -0.043 C 
BRANCH  13  14
ATOM     14  N   UNL     1       3.635   7.342   4.151  0.00  0.00    +0.382 N 
ATOM     15  C   UNL     1       4.614   6.544   4.932  0.00  0.00    -0.078 C 
ATOM     16  C   UNL     1       5.516   7.625   5.579  0.00  0.00    -0.020 C 
ATOM     17  C   UNL     1       5.627   8.694   4.467  0.00  0.00    -0.020 C 
ATOM     18  C   UNL     1       4.404   8.460   3.561  0.00  0.00    -0.078 C 
ATOM     19  H   UNL     1       2.810   7.708   4.780  0.00  0.00    -0.081 HD
ENDBRANCH  13  14
ENDBRANCH  10  13
ENDBRANCH   4   7
BRANCH   5  20
ATOM     20  C   UNL     1      -1.016   1.805   3.767  0.00  0.00    +0.140 C 
BRANCH  20  21
ATOM     21  N   UNL     1      -0.262   1.542   2.539  0.00  0.00    -0.311 N 
ATOM     22  C   UNL     1      -0.641   2.115   1.379  0.00  0.00    +0.215 C 
ATOM     23  O   UNL     1      -1.607   2.848   1.352  0.00  0.00    -0.276 OA
ATOM     24  H   UNL     1       0.614   0.877   2.563  0.00  0.00    +0.149 HD
BRANCH  22  25
ATOM     25  C   UNL     1       0.135   1.844   0.116  0.00  0.00    +0.117 C 
BRANCH  25  26
ATOM     26  C   UNL     1      -0.501   2.609  -1.046  0.00  0.00    +0.138 C 
BRANCH  26  27
ATOM     27  N   UNL     1       0.254   2.346  -2.275  0.00  0.00    -0.274 N 
ATOM     28  C   UNL     1       0.015   1.317  -3.184  0.00  0.00    +0.090 A 
ATOM     29  C   UNL     1      -0.916   0.292  -3.239  0.00  0.00    +0.030 A 
ATOM     30  C   UNL     1      -0.899  -0.597  -4.296  0.00  0.00    +0.002 A 
ATOM     31  C   UNL     1       0.046  -0.467  -5.299  0.00  0.00    +0.004 A 
ATOM     32  C   UNL     1       0.978   0.552  -5.251  0.00  0.00    +0.048 A 
ATOM     33  C   UNL     1       0.968   1.449  -4.194  0.00  0.00    +0.157 A 
ATOM     34  O   UNL     1       1.737   2.521  -3.884  0.00  0.00    -0.407 OA
ATOM     35  C   UNL     1       1.301   3.059  -2.735  0.00  0.00    +0.421 A 
ATOM     36  O   UNL     1       1.779   4.036  -2.191  0.00  0.00    -0.223 OA
ENDBRANCH  26  27
ENDBRANCH  25  26
ENDBRANCH  22  25
ENDBRANCH  20  21
ENDBRANCH   5  20
TORSDOF 8
