REMARK  Name = ZINC36206033
REMARK  18 active torsions:
REMARK  status: ('A' for Active; 'I' for Inactive)
REMARK    1  A    between atoms: C_1  and  C_2
REMARK    2  A    between atoms: C_2  and  C_3
REMARK    3  A    between atoms: C_3  and  C_4
REMARK    4  A    between atoms: C_4  and  C_6
REMARK    5  A    between atoms: C_4  and  O_35
REMARK    6  A    between atoms: C_6  and  N_7
REMARK    7  A    between atoms: N_7  and  C_8
REMARK    8  A    between atoms: N_7  and  C_13
REMARK    9  A    between atoms: C_8  and  C_9
REMARK   10  A    between atoms: C_9  and  C_10
REMARK   11  A    between atoms: C_10  and  C_11
REMARK   12  A    between atoms: C_10  and  C_12
REMARK   13  A    between atoms: C_13  and  C_14
REMARK   14  A    between atoms: C_20  and  C_25
REMARK   15  A    between atoms: C_28  and  O_33
REMARK   16  A    between atoms: C_29  and  O_31
REMARK   17  A    between atoms: O_31  and  C_32
REMARK   18  A    between atoms: O_33  and  C_34
REMARK                            x       y       z     vdW  Elec       q    Type
REMARK                         _______ _______ _______ _____ _____    ______ ____
ROOT
ATOM      1  C   UNL     1       3.474  -4.333  -3.105  0.00  0.00    +0.094 A 
ATOM      2  N   UNL     1       4.367  -4.827  -4.000  0.00  0.00    -0.312 N 
ATOM      3  H   UNL     1       4.043  -5.242  -4.815  0.00  0.00    +0.170 HD
ATOM      4  C   UNL     1       5.693  -4.753  -3.780  0.00  0.00    +0.260 A 
ATOM      5  O   UNL     1       6.482  -5.201  -4.594  0.00  0.00    -0.267 OA
ATOM      6  C   UNL     1       6.162  -4.139  -2.575  0.00  0.00    +0.080 A 
ATOM      7  C   UNL     1       7.531  -3.939  -2.114  0.00  0.00    +0.004 A 
ATOM      8  C   UNL     1       7.734  -3.325  -0.924  0.00  0.00    +0.056 A 
ATOM      9  S   UNL     1       6.083  -2.976  -0.352  0.00  0.00    -0.076 S 
ATOM     10  C   UNL     1       5.167  -3.657  -1.710  0.00  0.00    +0.116 A 
ATOM     11  N   UNL     1       3.872  -3.762  -1.999  0.00  0.00    -0.229 NA
ENDROOT
BRANCH   7  12
ATOM     12  C   UNL     1       8.678  -4.402  -2.931  0.00  0.00    -0.013 A 
ATOM     13  C   UNL     1       8.700  -5.703  -3.432  0.00  0.00    +0.012 A 
ATOM     14  C   UNL     1       9.769  -6.132  -4.192  0.00  0.00    +0.050 A 
ATOM     15  C   UNL     1      10.822  -5.271  -4.461  0.00  0.00    +0.162 A 
ATOM     16  C   UNL     1      10.806  -3.971  -3.964  0.00  0.00    +0.162 A 
ATOM     17  C   UNL     1       9.734  -3.534  -3.206  0.00  0.00    +0.058 A 
BRANCH  16  18
ATOM     18  O   UNL     1      11.840  -3.128  -4.229  0.00  0.00    -0.491 OA
ATOM     19  C   UNL     1      11.757  -1.809  -3.688  0.00  0.00    +0.277 C 
ENDBRANCH  16  18
BRANCH  15  20
ATOM     20  O   UNL     1      11.874  -5.699  -5.210  0.00  0.00    -0.491 OA
ATOM     21  C   UNL     1      11.826  -7.045  -5.687  0.00  0.00    +0.277 C 
ENDBRANCH  15  20
ENDBRANCH   7  12
BRANCH   1  22
ATOM     22  C   UNL     1       1.999  -4.438  -3.395  0.00  0.00    -0.003 C 
BRANCH  22  23
ATOM     23  N   UNL     1       1.245  -3.713  -2.364  0.00  0.00    +0.386 N 
ATOM     24  H   UNL     1       1.524  -4.039  -1.451  0.00  0.00    -0.081 HD
BRANCH  23  25
ATOM     25  C   UNL     1       1.520  -2.275  -2.476  0.00  0.00    -0.047 C 
BRANCH  25  26
ATOM     26  C   UNL     1       0.834  -1.533  -1.326  0.00  0.00    +0.098 C 
BRANCH  26  27
ATOM     27  O   UNL     1       1.418  -1.934  -0.085  0.00  0.00    -0.394 OA
ATOM     28  H   UNL     1       2.365  -1.751  -0.018  0.00  0.00    +0.210 HD
ENDBRANCH  26  27
BRANCH  26  29
ATOM     29  C   UNL     1       1.016  -0.025  -1.512  0.00  0.00    +0.029 C 
BRANCH  29  31
ATOM     30  C   UNL     1       0.409   2.228  -0.619  0.00  0.00    +0.004 C 
ATOM     31  C   UNL     1       0.227   0.720  -0.434  0.00  0.00    -0.001 C 
ENDBRANCH  29  31
ENDBRANCH  26  29
ENDBRANCH  25  26
ENDBRANCH  23  25
BRANCH  23  32
ATOM     32  C   UNL     1      -0.193  -3.952  -2.550  0.00  0.00    -0.078 C 
BRANCH  32  33
ATOM     33  C   UNL     1      -0.499  -5.431  -2.307  0.00  0.00    -0.016 C 
BRANCH  33  34
ATOM     34  C   UNL     1      -2.011  -5.657  -2.375  0.00  0.00    -0.019 C 
ATOM     35  C   UNL     1      -2.310  -7.153  -2.257  0.00  0.00    +0.007 C 
ATOM     36  C   UNL     1      -2.690  -4.909  -1.226  0.00  0.00    +0.007 C 
ENDBRANCH  33  34
ENDBRANCH  32  33
ENDBRANCH  23  32
ENDBRANCH  22  23
ENDBRANCH   1  22
TORSDOF 13
