REMARK  Name = ZINC11847126
REMARK  10 active torsions:
REMARK  status: ('A' for Active; 'I' for Inactive)
REMARK    1  A    between atoms: C_1  and  C_2
REMARK    2  A    between atoms: C_4  and  O_30
REMARK    3  A    between atoms: C_7  and  S_8
REMARK    4  A    between atoms: S_8  and  N_11
REMARK    5  A    between atoms: N_11  and  C_12
REMARK    6  A    between atoms: C_12  and  C_13
REMARK    7  A    between atoms: C_13  and  C_15
REMARK    8  A    between atoms: C_13  and  N_60
REMARK    9  A    between atoms: N_19  and  C_20
REMARK   10  A    between atoms: O_30  and  C_31
REMARK                            x       y       z     vdW  Elec       q    Type
REMARK                         _______ _______ _______ _____ _____    ______ ____
ROOT
ATOM      1  C   UNL     1       4.567   3.133  -3.073  0.00  0.00    -0.004 C 
ENDROOT
BRANCH   1  11
ATOM      2  C   UNL     1       3.062   1.665  -4.278  0.00  0.00    -0.073 C 
ATOM      3  C   UNL     1       2.379   1.510  -5.637  0.00  0.00    +0.017 C 
ATOM      4  C   UNL     1       3.416   1.315  -6.714  0.00  0.00    -0.048 A 
ATOM      5  C   UNL     1       3.010   0.811  -7.940  0.00  0.00    +0.004 A 
ATOM      6  C   UNL     1       3.925   0.625  -8.956  0.00  0.00    +0.000 A 
ATOM      7  C   UNL     1       5.255   0.945  -8.751  0.00  0.00    +0.000 A 
ATOM      8  C   UNL     1       5.660   1.445  -7.530  0.00  0.00    +0.002 A 
ATOM      9  C   UNL     1       4.742   1.631  -6.507  0.00  0.00    -0.061 A 
ATOM     10  C   UNL     1       5.233   2.175  -5.192  0.00  0.00    -0.042 C 
ATOM     11  N   UNL     1       4.102   2.704  -4.412  0.00  0.00    +0.389 N 
ATOM     12  H   UNL     1       3.706   3.514  -4.902  0.00  0.00    -0.080 HD
ENDBRANCH   1  11
BRANCH   1  13
ATOM     13  C   UNL     1       5.429   4.359  -3.223  0.00  0.00    +0.006 A 
ATOM     14  C   UNL     1       5.680   5.013  -4.376  0.00  0.00    +0.021 A 
ATOM     15  C   UNL     1       6.527   6.096  -4.071  0.00  0.00    +0.019 A 
ATOM     16  C   UNL     1       6.761   6.064  -2.743  0.00  0.00    +0.085 A 
ATOM     17  N   UNL     1       6.085   5.004  -2.216  0.00  0.00    -0.355 N 
ATOM     18  C   UNL     1       6.069   4.618  -0.803  0.00  0.00    +0.148 C 
ENDBRANCH   1  13
BRANCH   1  19
ATOM     19  C   UNL     1       3.353   3.466  -2.203  0.00  0.00    +0.096 C 
BRANCH  19  20
ATOM     20  N   UNL     1       2.502   4.432  -2.902  0.00  0.00    -0.191 NA
ATOM     21  H   UNL     1       2.863   4.957  -3.633  0.00  0.00    +0.148 HD
BRANCH  20  22
ATOM     22  S   UNL     1       0.922   4.626  -2.445  0.00  0.00    +0.059 S 
ATOM     23  O   UNL     1       0.345   3.328  -2.416  0.00  0.00    -0.153 OA
ATOM     24  O   UNL     1       0.394   5.677  -3.244  0.00  0.00    -0.153 OA
BRANCH  22  31
ATOM     25  C   UNL     1       1.995   7.323  -1.601  0.00  0.00    +0.046 C 
ATOM     26  C   UNL     1       1.442   6.463  -0.495  0.00  0.00    -0.021 A 
ATOM     27  C   UNL     1       1.449   6.924   0.808  0.00  0.00    +0.051 A 
ATOM     28  C   UNL     1       0.940   6.131   1.826  0.00  0.00    +0.120 A 
ATOM     29  C   UNL     1       0.420   4.879   1.533  0.00  0.00    +0.047 A 
ATOM     30  C   UNL     1       0.420   4.420   0.230  0.00  0.00    +0.032 A 
ATOM     31  C   UNL     1       0.929   5.212  -0.783  0.00  0.00    +0.108 A 
BRANCH  28  32
ATOM     32  O   UNL     1       0.945   6.583   3.108  0.00  0.00    -0.495 OA
ATOM     33  C   UNL     1       0.405   5.713   4.104  0.00  0.00    +0.277 C 
ENDBRANCH  28  32
ENDBRANCH  22  31
ENDBRANCH  20  22
ENDBRANCH  19  20
ENDBRANCH   1  19
TORSDOF 7
