REMARK  Name = ZINC35105797
REMARK  12 active torsions:
REMARK  status: ('A' for Active; 'I' for Inactive)
REMARK    1  A    between atoms: C_1  and  N_2
REMARK    2  A    between atoms: N_2  and  C_3
REMARK    3  A    between atoms: N_2  and  C_4
REMARK    4  A    between atoms: C_7  and  C_10
REMARK    5  A    between atoms: C_11  and  C_32
REMARK    6  A    between atoms: C_14  and  S_16
REMARK    7  A    between atoms: S_16  and  C_17
REMARK    8  A    between atoms: C_17  and  C_18
REMARK    9  A    between atoms: C_18  and  C_19
REMARK   10  A    between atoms: C_19  and  N_20
REMARK   11  A    between atoms: N_23  and  C_24
REMARK   12  A    between atoms: C_28  and  C_30
REMARK                            x       y       z     vdW  Elec       q    Type
REMARK                         _______ _______ _______ _____ _____    ______ ____
ROOT
ATOM      1  C   UNL     1      -4.854  -2.881   0.017  0.00  0.00    +0.075 A 
ATOM      2  C   UNL     1      -5.956  -2.641   0.813  0.00  0.00    +0.098 A 
ATOM      3  N   UNL     1      -6.893  -3.560   0.505  0.00  0.00    -0.221 NA
ATOM      4  H   UNL     1      -4.608  -4.381  -1.444  0.00  0.00    +0.168 HD
ATOM      5  C   UNL     1      -6.437  -4.354  -0.435  0.00  0.00    +0.167 A 
ATOM      6  N   UNL     1      -5.175  -3.968  -0.774  0.00  0.00    -0.332 N 
ENDROOT
BRANCH   1  10
ATOM      7  C   UNL     1      -1.208  -0.702  -0.013  0.00  0.00    +0.029 A 
ATOM      8  C   UNL     1      -1.185  -2.092  -0.022  0.00  0.00    +0.024 A 
ATOM      9  C   UNL     1      -2.366  -2.802  -0.013  0.00  0.00    +0.012 A 
ATOM     10  C   UNL     1      -3.587  -2.124   0.007  0.00  0.00    +0.001 A 
ATOM     11  C   UNL     1      -3.606  -0.727   0.017  0.00  0.00    +0.012 A 
ATOM     12  C   UNL     1      -2.421  -0.023   0.013  0.00  0.00    +0.024 A 
BRANCH   7  14
ATOM     13  C   UNL     1      -0.032   1.480  -0.007  0.00  0.00    +0.129 C 
ATOM     14  N   UNL     1      -0.009   0.015  -0.023  0.00  0.00    -0.336 N 
ATOM     15  C   UNL     1       1.270  -0.698  -0.050  0.00  0.00    +0.129 C 
ENDBRANCH   7  14
ENDBRANCH   1  10
BRANCH   2  16
ATOM     16  C   UNL     1      -6.085  -1.568   1.825  0.00  0.00    +0.002 A 
ATOM     17  C   UNL     1      -4.974  -1.170   2.570  0.00  0.00    +0.010 A 
ATOM     18  C   UNL     1      -5.101  -0.169   3.511  0.00  0.00    +0.001 A 
ATOM     19  C   UNL     1      -6.326   0.439   3.718  0.00  0.00    +0.000 A 
ATOM     20  C   UNL     1      -7.431   0.049   2.983  0.00  0.00    +0.001 A 
ATOM     21  C   UNL     1      -7.316  -0.946   2.034  0.00  0.00    +0.010 A 
ENDBRANCH   2  16
BRANCH   5  22
ATOM     22  S   UNL     1      -7.319  -5.702  -1.148  0.00  0.00    -0.088 S 
BRANCH  22  23
ATOM     23  C   UNL     1      -8.915  -5.688  -0.286  0.00  0.00    +0.079 C 
BRANCH  23  24
ATOM     24  C   UNL     1      -9.792  -6.824  -0.817  0.00  0.00    +0.030 C 
BRANCH  24  25
ATOM     25  C   UNL     1     -11.138  -6.811  -0.090  0.00  0.00    +0.106 C 
BRANCH  25  26
ATOM     26  N   UNL     1     -11.977  -7.900  -0.598  0.00  0.00    -0.299 N 
ATOM     27  C   UNL     1     -13.216  -8.084  -0.100  0.00  0.00    +0.304 C 
ATOM     28  O   UNL     1     -13.637  -7.346   0.770  0.00  0.00    -0.253 OA
ATOM     29  N   UNL     1     -13.988  -9.085  -0.568  0.00  0.00    -0.269 N 
ATOM     30  H   UNL     1     -11.641  -8.488  -1.292  0.00  0.00    +0.150 HD
ATOM     31  H   UNL     1     -13.679  -9.630  -1.308  0.00  0.00    +0.156 HD
BRANCH  29  32
ATOM     32  C   UNL     1     -15.236  -9.336   0.015  0.00  0.00    +0.036 A 
ATOM     33  C   UNL     1     -15.701 -10.642   0.125  0.00  0.00    +0.023 A 
ATOM     34  C   UNL     1     -16.932 -10.896   0.699  0.00  0.00    +0.003 A 
ATOM     35  C   UNL     1     -17.709  -9.855   1.166  0.00  0.00    +0.019 A 
ATOM     36  C   UNL     1     -17.251  -8.540   1.060  0.00  0.00    +0.054 A 
ATOM     37  C   UNL     1     -16.005  -8.285   0.486  0.00  0.00    +0.042 A 
BRANCH  36  38
ATOM     38  C   UNL     1     -18.055  -7.459   1.545  0.00  0.00    +0.099 C 
ATOM     39  N   UNL     1     -18.693  -6.601   1.929  0.00  0.00    -0.191 NA
ENDBRANCH  36  38
ENDBRANCH  29  32
ENDBRANCH  25  26
ENDBRANCH  24  25
ENDBRANCH  23  24
ENDBRANCH  22  23
ENDBRANCH   5  22
TORSDOF 10
