REMARK  Name = ZINC00647313
REMARK  8 active torsions:
REMARK  status: ('A' for Active; 'I' for Inactive)
REMARK    1  A    between atoms: C_1  and  C_2
REMARK    2  A    between atoms: C_3  and  C_9
REMARK    3  A    between atoms: C_4  and  C_8
REMARK    4  A    between atoms: N_5  and  C_7
REMARK    5  A    between atoms: C_9  and  N_10
REMARK    6  A    between atoms: C_11  and  C_13
REMARK    7  A    between atoms: C_18  and  C_29
REMARK    8  A    between atoms: C_21  and  C_24
REMARK                            x       y       z     vdW  Elec       q    Type
REMARK                         _______ _______ _______ _____ _____    ______ ____
ROOT
ATOM      1  C   UNL     1       2.992   0.426  -4.769  0.00  0.00    +0.163 A 
ATOM      2  C   UNL     1       3.380   0.864  -6.056  0.00  0.00    +0.089 A 
ATOM      3  C   UNL     1       4.727   0.891  -6.088  0.00  0.00    +0.133 A 
ATOM      4  N   UNL     1       5.190   0.483  -4.869  0.00  0.00    -0.237 N 
ATOM      5  N   UNL     1       4.087   0.205  -4.063  0.00  0.00    -0.163 NA
ATOM      6  C   UNL     1       6.613   0.381  -4.532  0.00  0.00    +0.215 C 
ATOM      7  C   UNL     1       7.426   0.319  -5.830  0.00  0.00    +0.063 C 
ATOM      8  C   UNL     1       7.001   1.453  -6.768  0.00  0.00    +0.111 C 
ATOM      9  N   UNL     1       5.584   1.255  -7.132  0.00  0.00    -0.321 N 
ATOM     10 BR   UNL     1       2.219   1.328  -7.475  0.00  0.00    -0.044 Br
ATOM     11  H   UNL     1       5.266   1.371  -8.041  0.00  0.00    +0.148 HD
ENDROOT
BRANCH   8  12
ATOM     12  C   UNL     1       7.168   2.778  -6.068  0.00  0.00    +0.010 A 
ATOM     13  C   UNL     1       8.169   3.684  -6.184  0.00  0.00    +0.013 A 
ATOM     14  C   UNL     1       8.112   4.845  -5.436  0.00  0.00    +0.008 A 
ATOM     15  C   UNL     1       7.056   5.042  -4.608  0.00  0.00    +0.045 A 
ATOM     16  S   UNL     1       6.094   3.563  -4.878  0.00  0.00    -0.100 S 
ENDBRANCH   8  12
BRANCH   1  18
ATOM     17  N   UNL     1       1.370  -0.170  -3.036  0.00  0.00    -0.306 N 
ATOM     18  C   UNL     1       1.604   0.251  -4.295  0.00  0.00    +0.266 C 
ATOM     19  O   UNL     1       0.673   0.487  -5.040  0.00  0.00    -0.268 OA
ATOM     20  H   UNL     1       2.114  -0.358  -2.442  0.00  0.00    +0.149 HD
BRANCH  17  21
ATOM     21  C   UNL     1      -0.006  -0.343  -2.566  0.00  0.00    +0.143 C 
BRANCH  21  24
ATOM     22  C   UNL     1      -0.018   1.503   0.010  0.00  0.00    +0.068 C 
ATOM     23  C   UNL     1       0.002  -0.004   0.002  0.00  0.00    +0.065 A 
ATOM     24  C   UNL     1       0.008  -0.818  -1.135  0.00  0.00    +0.013 A 
ATOM     25  C   UNL     1       0.028  -2.107  -0.725  0.00  0.00    +0.041 A 
ATOM     26  N   UNL     1       0.034  -2.109   0.625  0.00  0.00    -0.271 N 
ATOM     27  N   UNL     1       0.023  -0.777   1.058  0.00  0.00    -0.176 NA
ATOM     28  C   UNL     1       0.055  -3.295   1.485  0.00  0.00    +0.172 C 
ATOM     29  C   UNL     1       0.040  -3.323  -1.615  0.00  0.00    +0.065 C 
ENDBRANCH  21  24
ENDBRANCH  17  21
ENDBRANCH   1  18
BRANCH   6  30
ATOM     30  C   UNL     1       6.855  -0.888  -3.712  0.00  0.00    +0.412 C 
ATOM     31  F   UNL     1       6.472  -2.007  -4.459  0.00  0.00    -0.168 F 
ATOM     32  F   UNL     1       8.213  -0.984  -3.392  0.00  0.00    -0.168 F 
ATOM     33  F   UNL     1       6.101  -0.833  -2.534  0.00  0.00    -0.168 F 
ENDBRANCH   6  30
TORSDOF 5
