REMARK  Name = ZINC36345972
REMARK  19 active torsions:
REMARK  status: ('A' for Active; 'I' for Inactive)
REMARK    1  A    between atoms: C_1  and  C_2
REMARK    2  A    between atoms: C_3  and  C_21
REMARK    3  A    between atoms: C_4  and  O_13
REMARK    4  A    between atoms: N_5  and  C_7
REMARK    5  A    between atoms: O_13  and  C_14
REMARK    6  A    between atoms: C_21  and  N_22
REMARK    7  A    between atoms: N_22  and  C_23
REMARK    8  A    between atoms: N_22  and  C_33
REMARK    9  A    between atoms: C_23  and  C_24
REMARK   10  A    between atoms: C_24  and  C_26
REMARK   11  A    between atoms: C_24  and  O_32
REMARK   12  A    between atoms: C_26  and  O_27
REMARK   13  A    between atoms: O_27  and  C_28
REMARK   14  A    between atoms: C_28  and  C_29
REMARK   15  A    between atoms: C_28  and  C_30
REMARK   16  A    between atoms: C_28  and  C_31
REMARK   17  A    between atoms: C_33  and  C_34
REMARK   18  A    between atoms: C_34  and  C_35
REMARK   19  A    between atoms: C_34  and  C_36
REMARK                            x       y       z     vdW  Elec       q    Type
REMARK                         _______ _______ _______ _____ _____    ______ ____
ROOT
ATOM      1  C   UNL     1      -1.028   2.113   0.032  0.00  0.00    +0.068 C 
ATOM      2  C   UNL     1      -0.355   0.786   0.277  0.00  0.00    +0.065 A 
ATOM      3  C   UNL     1       0.087  -0.100  -0.710  0.00  0.00    +0.021 A 
ATOM      4  C   UNL     1       0.636  -1.177  -0.087  0.00  0.00    +0.225 A 
ATOM      5  N   UNL     1       0.538  -0.968   1.253  0.00  0.00    -0.200 N 
ATOM      6  N   UNL     1      -0.082   0.272   1.449  0.00  0.00    -0.168 NA
ENDROOT
BRANCH   5   7
ATOM      7  C   UNL     1       0.984  -1.837   2.259  0.00  0.00    +0.069 A 
ATOM      8  C   UNL     1       0.761  -3.203   2.148  0.00  0.00    +0.028 A 
ATOM      9  C   UNL     1       1.202  -4.056   3.141  0.00  0.00    +0.002 A 
ATOM     10  C   UNL     1       1.864  -3.551   4.245  0.00  0.00    +0.000 A 
ATOM     11  C   UNL     1       2.087  -2.191   4.359  0.00  0.00    +0.002 A 
ATOM     12  C   UNL     1       1.654  -1.333   3.366  0.00  0.00    +0.028 A 
ENDBRANCH   5   7
BRANCH   4  13
ATOM     13  O   UNL     1       1.182  -2.263  -0.693  0.00  0.00    -0.435 OA
BRANCH  13  14
ATOM     14  C   UNL     1       0.352  -3.278  -1.050  0.00  0.00    +0.165 A 
ATOM     15  C   UNL     1      -1.019  -3.146  -0.885  0.00  0.00    +0.049 A 
ATOM     16  C   UNL     1      -1.861  -4.179  -1.250  0.00  0.00    +0.004 A 
ATOM     17  C   UNL     1      -1.338  -5.345  -1.779  0.00  0.00    +0.003 A 
ATOM     18  C   UNL     1       0.027  -5.481  -1.946  0.00  0.00    +0.042 A 
ATOM     19  C   UNL     1       0.875  -4.448  -1.588  0.00  0.00    +0.165 A 
ATOM     20  F   UNL     1       2.209  -4.578  -1.755  0.00  0.00    -0.202 F 
ENDBRANCH  13  14
ENDBRANCH   4  13
BRANCH   3  21
ATOM     21  C   UNL     1      -0.024   0.102  -2.199  0.00  0.00    -0.036 C 
BRANCH  21  22
ATOM     22  N   UNL     1       1.175   0.793  -2.690  0.00  0.00    +0.384 N 
ATOM     23  H   UNL     1       1.303   1.652  -2.176  0.00  0.00    -0.081 HD
BRANCH  22  24
ATOM     24  C   UNL     1       1.015   1.097  -4.119  0.00  0.00    -0.044 C 
BRANCH  24  25
ATOM     25  C   UNL     1      -0.120   2.107  -4.301  0.00  0.00    +0.124 C 
BRANCH  25  26
ATOM     26  O   UNL     1       0.202   3.315  -3.608  0.00  0.00    -0.391 OA
ATOM     27  H   UNL     1       0.971   3.780  -3.964  0.00  0.00    +0.210 HD
ENDBRANCH  25  26
BRANCH  25  28
ATOM     28  C   UNL     1      -0.302   2.406  -5.790  0.00  0.00    +0.189 C 
BRANCH  28  29
ATOM     29  O   UNL     1      -1.435   3.259  -5.970  0.00  0.00    -0.372 OA
BRANCH  29  30
ATOM     30  C   UNL     1      -1.695   3.601  -7.332  0.00  0.00    +0.061 C 
ATOM     31  C   UNL     1      -1.957   2.326  -8.137  0.00  0.00    +0.041 C 
ATOM     32  C   UNL     1      -2.923   4.511  -7.405  0.00  0.00    +0.041 C 
ATOM     33  C   UNL     1      -0.484   4.332  -7.914  0.00  0.00    +0.041 C 
ENDBRANCH  29  30
ENDBRANCH  28  29
ENDBRANCH  25  28
ENDBRANCH  24  25
ENDBRANCH  22  24
BRANCH  22  34
ATOM     34  C   UNL     1       2.349  -0.070  -2.502  0.00  0.00    -0.075 C 
BRANCH  34  35
ATOM     35  C   UNL     1       3.615   0.702  -2.881  0.00  0.00    -0.034 C 
ATOM     36  C   UNL     1       3.788   1.893  -1.938  0.00  0.00    +0.005 C 
ATOM     37  C   UNL     1       4.829  -0.222  -2.764  0.00  0.00    +0.005 C 
ENDBRANCH  34  35
ENDBRANCH  22  34
ENDBRANCH  21  22
ENDBRANCH   3  21
TORSDOF 13
