REMARK  Name = ZINC33937300
REMARK  12 active torsions:
REMARK  status: ('A' for Active; 'I' for Inactive)
REMARK    1  A    between atoms: C_1  and  C_2
REMARK    2  A    between atoms: C_2  and  C_3
REMARK    3  A    between atoms: C_3  and  C_4
REMARK    4  A    between atoms: C_4  and  C_6
REMARK    5  A    between atoms: C_4  and  N_18
REMARK    6  A    between atoms: N_10  and  C_11
REMARK    7  A    between atoms: C_11  and  C_12
REMARK    8  A    between atoms: N_18  and  C_19
REMARK    9  A    between atoms: N_18  and  C_34
REMARK   10  A    between atoms: C_19  and  C_20
REMARK   11  A    between atoms: C_24  and  C_33
REMARK   12  A    between atoms: C_26  and  C_32
REMARK                            x       y       z     vdW  Elec       q    Type
REMARK                         _______ _______ _______ _____ _____    ______ ____
ROOT
ATOM      1  N   UNL     1       0.009  -2.592  -1.159  0.00  0.00    +0.391 N 
ATOM      2  H   UNL     1      -0.473  -2.428  -2.030  0.00  0.00    -0.080 HD
ENDROOT
BRANCH   1   3
ATOM      3  C   UNL     1      -0.951  -2.527  -0.049  0.00  0.00    -0.067 C 
ATOM      4  C   UNL     1      -1.684  -1.184  -0.087  0.00  0.00    -0.015 C 
ATOM      5  C   UNL     1      -2.683  -1.116   1.070  0.00  0.00    -0.002 C 
ATOM      6  C   UNL     1      -1.936  -1.252   2.398  0.00  0.00    -0.000 C 
ATOM      7  C   UNL     1      -1.203  -2.595   2.436  0.00  0.00    -0.002 C 
ATOM      8  C   UNL     1      -0.204  -2.663   1.280  0.00  0.00    -0.015 C 
ENDBRANCH   1   3
BRANCH   1   9
ATOM      9  C   UNL     1       1.045  -1.569  -0.972  0.00  0.00    +0.003 C 
BRANCH   9  10
ATOM     10  C   UNL     1       1.976  -1.993   0.135  0.00  0.00    +0.138 A 
ATOM     11  N   UNL     1       2.228  -3.221   0.518  0.00  0.00    -0.115 NA
ATOM     12  N   UNL     1       3.073  -3.169   1.489  0.00  0.00    -0.023 NA
ATOM     13  N   UNL     1       3.366  -1.940   1.736  0.00  0.00    -0.044 NA
ATOM     14  N   UNL     1       2.713  -1.185   0.919  0.00  0.00    -0.228 N 
BRANCH  14  15
ATOM     15  C   UNL     1       2.764   0.278   0.858  0.00  0.00    +0.178 C 
BRANCH  15  16
ATOM     16  C   UNL     1       1.786   0.865   1.878  0.00  0.00    +0.140 C 
ATOM     17  C   UNL     1       1.861   2.413   1.866  0.00  0.00    +0.035 C 
ATOM     18  C   UNL     1       0.453   2.781   2.408  0.00  0.00    +0.031 C 
ATOM     19  C   UNL     1      -0.427   1.654   1.825  0.00  0.00    +0.160 C 
ATOM     20  O   UNL     1       0.433   0.551   1.510  0.00  0.00    -0.375 OA
ENDBRANCH  15  16
ENDBRANCH  14  15
ENDBRANCH   9  10
BRANCH   9  21
ATOM     21  C   UNL     1       1.839  -1.402  -2.269  0.00  0.00    -0.008 C 
BRANCH  21  23
ATOM     22  C   UNL     1       1.742  -0.559  -4.619  0.00  0.00    +0.004 C 
ATOM     23  C   UNL     1       0.922  -0.845  -3.360  0.00  0.00    -0.005 C 
ENDBRANCH  21  23
ENDBRANCH   9  21
ENDBRANCH   1   9
BRANCH   1  24
ATOM     24  C   UNL     1       0.633  -3.922  -1.189  0.00  0.00    -0.036 C 
BRANCH  24  25
ATOM     25  C   UNL     1      -0.376  -4.941  -1.652  0.00  0.00    +0.001 A 
ATOM     26  C   UNL     1      -0.448  -5.272  -2.964  0.00  0.00    +0.017 A 
ATOM     27  C   UNL     1      -1.440  -6.266  -3.381  0.00  0.00    -0.001 A 
ATOM     28  C   UNL     1      -1.561  -6.649  -4.721  0.00  0.00    +0.013 A 
ATOM     29  C   UNL     1      -2.495  -7.580  -5.077  0.00  0.00    -0.050 A 
ATOM     30  C   UNL     1      -3.327  -8.148  -4.122  0.00  0.00    +0.008 A 
ATOM     31  C   UNL     1      -3.225  -7.785  -2.796  0.00  0.00    -0.026 A 
ATOM     32  C   UNL     1      -2.280  -6.840  -2.409  0.00  0.00    +0.052 A 
ATOM     33  N   UNL     1      -2.156  -6.460  -1.090  0.00  0.00    -0.322 N 
ATOM     34  H   UNL     1      -2.737  -6.856  -0.422  0.00  0.00    +0.169 HD
ATOM     35  C   UNL     1      -1.240  -5.550  -0.716  0.00  0.00    +0.251 A 
ATOM     36  O   UNL     1      -1.155  -5.241   0.460  0.00  0.00    -0.268 OA
ATOM     37  C   UNL     1      -4.135  -8.409  -1.770  0.00  0.00    +0.046 C 
ATOM     38  C   UNL     1      -2.626  -7.992  -6.521  0.00  0.00    +0.044 C 
ENDBRANCH  24  25
ENDBRANCH   1  24
TORSDOF 9
