REMARK  Name = ZINC35851551
REMARK  4 active torsions:
REMARK  status: ('A' for Active; 'I' for Inactive)
REMARK    1  A    between atoms: C_1  and  C_2
REMARK    2  A    between atoms: C_7  and  C_8
REMARK    3  A    between atoms: N_25  and  C_28
REMARK    4  A    between atoms: C_31  and  N_35
REMARK                            x       y       z     vdW  Elec       q    Type
REMARK                         _______ _______ _______ _____ _____    ______ ____
ROOT
ATOM      1  C   UNL     1      -0.018   1.503   0.010  0.00  0.00    +0.044 C 
ATOM      2  C   UNL     1       0.002  -0.004   0.002  0.00  0.00    -0.046 A 
ATOM      3  C   UNL     1       0.006  -0.685  -1.202  0.00  0.00    +0.004 A 
ATOM      4  C   UNL     1       0.026  -2.069  -1.209  0.00  0.00    +0.008 A 
ATOM      5  C   UNL     1       0.043  -2.764  -0.021  0.00  0.00    +0.004 A 
ATOM      6  C   UNL     1       0.038  -2.090   1.196  0.00  0.00    +0.042 A 
ATOM      7  C   UNL     1       0.023  -0.697   1.195  0.00  0.00    -0.026 A 
ATOM      8  C   UNL     1       0.024   0.056   2.501  0.00  0.00    +0.046 C 
ATOM      9  N   UNL     1       0.053  -3.001   2.254  0.00  0.00    -0.283 N 
ATOM     10  C   UNL     1       0.071  -4.278   1.824  0.00  0.00    +0.243 C 
ATOM     11  O   UNL     1       0.086  -5.274   2.515  0.00  0.00    -0.273 OA
ATOM     12  C   UNL     1       0.068  -4.228   0.320  0.00  0.00    +0.138 C 
ATOM     13  C   UNL     1       1.308  -4.916  -0.263  0.00  0.00    +0.123 C 
ATOM     14  C   UNL     1       0.803  -5.594  -1.566  0.00  0.00    +0.107 C 
ATOM     15  C   UNL     1      -0.700  -5.269  -1.635  0.00  0.00    +0.071 C 
ATOM     16  N   UNL     1      -1.097  -4.933  -0.240  0.00  0.00    -0.281 NA
ATOM     17  C   UNL     1      -1.251  -6.252   0.418  0.00  0.00    +0.086 C 
ATOM     18  C   UNL     1      -1.867  -7.172  -0.655  0.00  0.00    +0.017 C 
ATOM     19  C   UNL     1      -1.478  -6.540  -2.021  0.00  0.00    +0.021 C 
ATOM     20  C   UNL     1       1.543  -4.850  -2.655  0.00  0.00    +0.232 C 
ATOM     21  O   UNL     1       1.437  -5.061  -3.844  0.00  0.00    -0.274 OA
ATOM     22  N   UNL     1       2.332  -3.922  -2.102  0.00  0.00    -0.208 N 
ATOM     23  C   UNL     1       2.287  -3.873  -0.751  0.00  0.00    +0.233 C 
ATOM     24  O   UNL     1       2.920  -3.120  -0.042  0.00  0.00    -0.274 OA
ATOM     25  H   UNL     1       0.052  -2.745   3.189  0.00  0.00    +0.155 HD
ENDROOT
BRANCH  22  26
ATOM     26  C   UNL     1       3.149  -3.071  -2.861  0.00  0.00    +0.062 A 
ATOM     27  C   UNL     1       2.662  -1.847  -3.297  0.00  0.00    +0.027 A 
ATOM     28  C   UNL     1       3.468  -1.010  -4.043  0.00  0.00    +0.034 A 
ATOM     29  C   UNL     1       4.760  -1.391  -4.357  0.00  0.00    +0.128 A 
ATOM     30  C   UNL     1       5.249  -2.609  -3.925  0.00  0.00    +0.054 A 
ATOM     31  C   UNL     1       4.449  -3.449  -3.172  0.00  0.00    +0.065 A 
ATOM     32 CL   UNL     1       5.065  -4.976  -2.623  0.00  0.00    -0.082 Cl
BRANCH  29  33
ATOM     33  N   UNL     1       5.621  -0.492  -5.159  0.00  0.00    +0.056 N 
ATOM     34  O   UNL     1       5.194   0.574  -5.538  0.00  0.00    -0.126 OA
ATOM     35  O   UNL     1       6.750  -0.823  -5.434  0.00  0.00    -0.126 OA
ENDBRANCH  29  33
ENDBRANCH  22  26
TORSDOF 2
