REMARK  Name = ZINC00647892
REMARK  14 active torsions:
REMARK  status: ('A' for Active; 'I' for Inactive)
REMARK    1  A    between atoms: C_1  and  C_2
REMARK    2  A    between atoms: C_3  and  C_35
REMARK    3  A    between atoms: C_4  and  C_25
REMARK    4  A    between atoms: C_10  and  C_15
REMARK    5  A    between atoms: C_18  and  O_23
REMARK    6  A    between atoms: C_19  and  O_21
REMARK    7  A    between atoms: O_21  and  C_22
REMARK    8  A    between atoms: O_23  and  C_24
REMARK    9  A    between atoms: C_28  and  O_33
REMARK   10  A    between atoms: C_30  and  O_31
REMARK   11  A    between atoms: O_31  and  C_32
REMARK   12  A    between atoms: O_33  and  C_34
REMARK   13  A    between atoms: C_35  and  O_37
REMARK   14  A    between atoms: O_37  and  C_38
REMARK                            x       y       z     vdW  Elec       q    Type
REMARK                         _______ _______ _______ _____ _____    ______ ____
ROOT
ATOM      1  C   UNL     1      -0.018   1.503   0.010  0.00  0.00    +0.061 C 
ATOM      2  C   UNL     1       0.002  -0.004   0.002  0.00  0.00    +0.016 C 
ATOM      3  C   UNL     1      -1.155  -0.687   0.004  0.00  0.00    +0.065 C 
ATOM      4  C   UNL     1      -1.174  -2.188  -0.012  0.00  0.00    +0.096 C 
ATOM      5  C   UNL     1       0.164  -2.749   0.399  0.00  0.00    +0.024 C 
ATOM      6  C   UNL     1       1.272  -1.979   0.376  0.00  0.00    +0.016 C 
ATOM      7  N   UNL     1       1.198  -0.667  -0.013  0.00  0.00    -0.321 N 
ATOM      8  C   UNL     1       2.616  -2.539   0.768  0.00  0.00    +0.059 C 
ATOM      9  C   UNL     1       2.429  -3.633   1.822  0.00  0.00    +0.032 C 
ATOM     10  C   UNL     1       1.521  -4.720   1.240  0.00  0.00    +0.088 C 
ATOM     11  C   UNL     1       0.224  -4.094   0.806  0.00  0.00    +0.162 C 
ATOM     12  O   UNL     1      -0.791  -4.762   0.808  0.00  0.00    -0.292 OA
ATOM     13  H   UNL     1       2.000  -0.203  -0.298  0.00  0.00    +0.152 HD
ENDROOT
BRANCH   9  14
ATOM     14  C   UNL     1       3.768  -4.225   2.181  0.00  0.00    -0.040 A 
ATOM     15  C   UNL     1       4.540  -4.826   1.204  0.00  0.00    +0.008 A 
ATOM     16  C   UNL     1       5.769  -5.370   1.528  0.00  0.00    +0.049 A 
ATOM     17  C   UNL     1       6.230  -5.314   2.833  0.00  0.00    +0.161 A 
ATOM     18  C   UNL     1       5.453  -4.708   3.816  0.00  0.00    +0.162 A 
ATOM     19  C   UNL     1       4.224  -4.160   3.484  0.00  0.00    +0.053 A 
BRANCH  18  20
ATOM     20  O   UNL     1       5.901  -4.650   5.099  0.00  0.00    -0.491 OA
ATOM     21  C   UNL     1       5.050  -4.013   6.055  0.00  0.00    +0.277 C 
ENDBRANCH  18  20
BRANCH  17  22
ATOM     22  O   UNL     1       7.438  -5.849   3.154  0.00  0.00    -0.491 OA
ATOM     23  C   UNL     1       8.180  -6.455   2.094  0.00  0.00    +0.277 C 
ENDBRANCH  17  22
ENDBRANCH   9  14
BRANCH   4  24
ATOM     24  C   UNL     1      -1.503  -2.664  -1.404  0.00  0.00    +0.007 A 
ATOM     25  C   UNL     1      -0.678  -2.329  -2.461  0.00  0.00    +0.012 A 
ATOM     26  C   UNL     1      -0.977  -2.764  -3.738  0.00  0.00    +0.046 A 
ATOM     27  C   UNL     1      -2.107  -3.538  -3.962  0.00  0.00    +0.124 A 
ATOM     28  C   UNL     1      -2.935  -3.876  -2.903  0.00  0.00    +0.091 A 
ATOM     29  C   UNL     1      -2.630  -3.443  -1.621  0.00  0.00    +0.128 A 
BRANCH  29  30
ATOM     30  O   UNL     1      -3.437  -3.777  -0.580  0.00  0.00    -0.495 OA
ATOM     31  C   UNL     1      -4.580  -4.582  -0.878  0.00  0.00    +0.277 C 
ENDBRANCH  29  30
BRANCH  27  32
ATOM     32  O   UNL     1      -2.401  -3.966  -5.218  0.00  0.00    -0.495 OA
ATOM     33  C   UNL     1      -1.503  -3.580  -6.261  0.00  0.00    +0.277 C 
ENDBRANCH  27  32
ENDBRANCH   4  24
BRANCH   3  34
ATOM     34  C   UNL     1      -2.380   0.021   0.021  0.00  0.00    +0.338 C 
ATOM     35  O   UNL     1      -2.378   1.238   0.035  0.00  0.00    -0.245 OA
BRANCH  34  36
ATOM     36  O   UNL     1      -3.549  -0.652   0.024  0.00  0.00    -0.458 OA
BRANCH  36  37
ATOM     37  C   UNL     1      -4.746   0.128   0.042  0.00  0.00    +0.177 C 
ATOM     38  C   UNL     1      -5.284   0.329  -1.397  0.00  0.00    +0.044 C 
ATOM     39  C   UNL     1      -6.789   0.613  -1.162  0.00  0.00    +0.004 C 
ATOM     40  C   UNL     1      -7.175  -0.326  -0.001  0.00  0.00    +0.004 C 
ATOM     41  C   UNL     1      -5.876  -0.634   0.765  0.00  0.00    +0.044 C 
ENDBRANCH  36  37
ENDBRANCH  34  36
ENDBRANCH   3  34
TORSDOF 9
