REMARK  Name = ZINC22831329
REMARK  11 active torsions:
REMARK  status: ('A' for Active; 'I' for Inactive)
REMARK    1  A    between atoms: C_1  and  C_2
REMARK    2  A    between atoms: C_4  and  C_36
REMARK    3  A    between atoms: C_6  and  C_8
REMARK    4  A    between atoms: C_11  and  S_13
REMARK    5  A    between atoms: S_13  and  C_14
REMARK    6  A    between atoms: C_14  and  C_15
REMARK    7  A    between atoms: C_16  and  C_32
REMARK    8  A    between atoms: C_17  and  C_26
REMARK    9  A    between atoms: N_22  and  C_23
REMARK   10  A    between atoms: C_32  and  O_34
REMARK   11  A    between atoms: O_34  and  C_35
REMARK                            x       y       z     vdW  Elec       q    Type
REMARK                         _______ _______ _______ _____ _____    ______ ____
ROOT
ATOM      1  C   UNL     1       1.030   3.507  -0.250  0.00  0.00    +0.038 C 
ATOM      2  C   UNL     1      -0.199   3.996   0.026  0.00  0.00    +0.079 C 
ATOM      3  C   UNL     1      -1.306   3.001   0.308  0.00  0.00    +0.144 C 
ATOM      4  N   UNL     1      -0.951   1.573   0.253  0.00  0.00    -0.288 N 
ATOM      5  C   UNL     1       0.324   1.240  -0.032  0.00  0.00    +0.307 C 
ATOM      6  O   UNL     1       0.628   0.064  -0.075  0.00  0.00    -0.252 OA
ATOM      7  N   UNL     1       1.264   2.162  -0.274  0.00  0.00    -0.255 N 
ATOM      8  H   UNL     1      -1.718   0.808   0.442  0.00  0.00    +0.151 HD
ENDROOT
BRANCH   3   9
ATOM      9  C   UNL     1      -2.410   3.240  -0.690  0.00  0.00    -0.023 A 
ATOM     10  C   UNL     1      -2.301   2.739  -1.974  0.00  0.00    +0.006 A 
ATOM     11  C   UNL     1      -3.316   2.954  -2.888  0.00  0.00    +0.000 A 
ATOM     12  C   UNL     1      -4.435   3.678  -2.521  0.00  0.00    +0.000 A 
ATOM     13  C   UNL     1      -4.542   4.183  -1.239  0.00  0.00    +0.000 A 
ATOM     14  C   UNL     1      -3.529   3.964  -0.323  0.00  0.00    +0.006 A 
ENDBRANCH   3   9
BRANCH   7  15
ATOM     15  C   UNL     1       2.621   1.702  -0.580  0.00  0.00    +0.083 C 
ATOM     16  C   UNL     1       3.171   0.531   0.237  0.00  0.00    +0.025 C 
ATOM     17  C   UNL     1       3.704   1.946   0.473  0.00  0.00    +0.025 C 
ENDBRANCH   7  15
BRANCH   2  18
ATOM     18  C   UNL     1      -0.443   5.389   0.050  0.00  0.00    +0.339 C 
ATOM     19  O   UNL     1      -0.421   5.992   1.107  0.00  0.00    -0.245 OA
BRANCH  18  20
ATOM     20  O   UNL     1      -0.700   6.049  -1.099  0.00  0.00    -0.465 OA
ATOM     21  C   UNL     1      -0.937   7.455  -1.000  0.00  0.00    +0.280 C 
ENDBRANCH  18  20
ENDBRANCH   2  18
BRANCH   1  22
ATOM     22  C   UNL     1       2.160   4.461  -0.537  0.00  0.00    +0.130 C 
BRANCH  22  23
ATOM     23  S   UNL     1       3.199   4.626   0.936  0.00  0.00    -0.060 S 
BRANCH  23  27
ATOM     24  C   UNL     1       6.104   7.085   0.185  0.00  0.00    +0.249 A 
ATOM     25  N   UNL     1       5.458   7.076  -0.955  0.00  0.00    -0.106 NA
ATOM     26  N   UNL     1       4.444   6.289  -0.867  0.00  0.00    -0.101 NA
ATOM     27  C   UNL     1       4.403   5.764   0.336  0.00  0.00    +0.278 A 
ATOM     28  O   UNL     1       5.446   6.260   1.029  0.00  0.00    -0.411 OA
BRANCH  24  34
ATOM     29  C   UNL     1       9.678   8.410   3.405  0.00  0.00    +0.044 C 
ATOM     30  C   UNL     1       9.045   8.502   2.041  0.00  0.00    -0.049 A 
ATOM     31  C   UNL     1       9.608   9.314   1.072  0.00  0.00    +0.006 A 
ATOM     32  C   UNL     1       9.034   9.405  -0.183  0.00  0.00    -0.049 A 
ATOM     33  C   UNL     1       7.896   8.683  -0.478  0.00  0.00    +0.016 A 
ATOM     34  C   UNL     1       7.323   7.861   0.494  0.00  0.00    +0.039 A 
ATOM     35  C   UNL     1       7.904   7.779   1.761  0.00  0.00    +0.016 A 
ATOM     36  C   UNL     1       9.654  10.293  -1.231  0.00  0.00    +0.044 C 
ENDBRANCH  24  34
ENDBRANCH  23  27
ENDBRANCH  22  23
ENDBRANCH   1  22
TORSDOF 8
