REMARK  Name = ZINC16647784
REMARK  12 active torsions:
REMARK  status: ('A' for Active; 'I' for Inactive)
REMARK    1  A    between atoms: C_1  and  C_2
REMARK    2  A    between atoms: C_2  and  C_3
REMARK    3  A    between atoms: C_3  and  C_5
REMARK    4  A    between atoms: C_3  and  C_6
REMARK    5  A    between atoms: C_6  and  N_7
REMARK    6  A    between atoms: C_8  and  C_10
REMARK    7  A    between atoms: C_10  and  N_11
REMARK    8  A    between atoms: N_13  and  C_33
REMARK    9  A    between atoms: N_19  and  S_22
REMARK   10  A    between atoms: S_22  and  C_25
REMARK   11  A    between atoms: C_28  and  O_31
REMARK   12  A    between atoms: O_31  and  C_32
REMARK                            x       y       z     vdW  Elec       q    Type
REMARK                         _______ _______ _______ _____ _____    ______ ____
ROOT
ATOM      1  N   UNL     1      -0.012   0.059  -0.023  0.00  0.00    -0.275 N 
ATOM      2  C   UNL     1       1.368  -0.442  -0.073  0.00  0.00    +0.217 C 
ATOM      3  N   UNL     1       2.229   0.673   0.387  0.00  0.00    -0.300 N 
ATOM      4  C   UNL     1       1.435   1.871   0.044  0.00  0.00    +0.115 C 
ATOM      5  C   UNL     1      -0.001   1.407   0.036  0.00  0.00    +0.241 C 
ATOM      6  O   UNL     1      -0.979   2.123   0.072  0.00  0.00    -0.273 OA
ATOM      7  C   UNL     1       1.638   2.953   1.101  0.00  0.00    +0.052 C 
ATOM      8  C   UNL     1       0.768   4.168   0.759  0.00  0.00    +0.112 C 
ATOM      9  N   UNL     1       1.065   4.588  -0.618  0.00  0.00    -0.176 NA
ATOM     10  C   UNL     1       0.966   3.597  -1.698  0.00  0.00    +0.112 C 
ATOM     11  C   UNL     1       1.834   2.386  -1.336  0.00  0.00    +0.052 C 
ENDROOT
BRANCH   3  12
ATOM     12  C   UNL     1       3.451   0.672  -0.289  0.00  0.00    +0.032 A 
ATOM     13  C   UNL     1       3.783  -0.385  -1.127  0.00  0.00    +0.023 A 
ATOM     14  C   UNL     1       4.991  -0.380  -1.797  0.00  0.00    +0.002 A 
ATOM     15  C   UNL     1       5.874   0.671  -1.626  0.00  0.00    +0.000 A 
ATOM     16  C   UNL     1       5.549   1.722  -0.788  0.00  0.00    +0.002 A 
ATOM     17  C   UNL     1       4.341   1.726  -0.119  0.00  0.00    +0.023 A 
ENDBRANCH   3  12
BRANCH   9  18
ATOM     18  S   UNL     1       1.504   6.151  -0.946  0.00  0.00    +0.061 S 
ATOM     19  O   UNL     1       2.044   6.682   0.257  0.00  0.00    -0.153 OA
ATOM     20  O   UNL     1       2.239   6.119  -2.162  0.00  0.00    -0.153 OA
BRANCH  18  21
ATOM     21  C   UNL     1       0.025   7.049  -1.274  0.00  0.00    +0.106 A 
ATOM     22  C   UNL     1      -0.458   7.135  -2.567  0.00  0.00    +0.032 A 
ATOM     23  C   UNL     1      -1.621   7.835  -2.826  0.00  0.00    +0.047 A 
ATOM     24  C   UNL     1      -2.298   8.460  -1.790  0.00  0.00    +0.120 A 
ATOM     25  C   UNL     1      -1.809   8.377  -0.494  0.00  0.00    +0.047 A 
ATOM     26  C   UNL     1      -0.649   7.672  -0.239  0.00  0.00    +0.032 A 
BRANCH  24  27
ATOM     27  O   UNL     1      -3.440   9.153  -2.043  0.00  0.00    -0.495 OA
ATOM     28  C   UNL     1      -3.885   9.197  -3.400  0.00  0.00    +0.277 C 
ENDBRANCH  24  27
ENDBRANCH  18  21
ENDBRANCH   9  18
BRANCH   1  29
ATOM     29  C   UNL     1      -1.215  -0.777  -0.035  0.00  0.00    +0.205 C 
BRANCH  29  31
ATOM     30  N   UNL     1      -2.750  -1.746  -1.716  0.00  0.00    -0.314 N 
ATOM     31  C   UNL     1      -1.657  -1.001  -1.458  0.00  0.00    +0.230 C 
ATOM     32  O   UNL     1      -1.028  -0.510  -2.373  0.00  0.00    -0.274 OA
ATOM     33  H   UNL     1      -3.252  -2.138  -0.985  0.00  0.00    +0.149 HD
BRANCH  30  34
ATOM     34  C   UNL     1      -3.179  -1.963  -3.099  0.00  0.00    +0.107 C 
BRANCH  34  35
ATOM     35  C   UNL     1      -4.436  -2.836  -3.112  0.00  0.00    +0.003 C 
ATOM     36  C   UNL     1      -4.096  -4.226  -2.571  0.00  0.00    +0.009 C 
BRANCH  35  38
ATOM     37  C   UNL     1      -6.279  -3.728  -4.543  0.00  0.00    +0.004 C 
ATOM     38  C   UNL     1      -4.956  -2.960  -4.546  0.00  0.00    +0.001 C 
ENDBRANCH  35  38
ENDBRANCH  34  35
ENDBRANCH  30  34
ENDBRANCH  29  31
ENDBRANCH   1  29
TORSDOF 9
