REMARK  Name = ZINC34756110
REMARK  7 active torsions:
REMARK  status: ('A' for Active; 'I' for Inactive)
REMARK    1  A    between atoms: C_1  and  C_2
REMARK    2  A    between atoms: C_2  and  C_4
REMARK    3  A    between atoms: C_4  and  S_5
REMARK    4  A    between atoms: S_5  and  C_6
REMARK    5  A    between atoms: N_22  and  C_25
REMARK    6  A    between atoms: C_25  and  C_26
REMARK    7  A    between atoms: N_28  and  C_29
REMARK                            x       y       z     vdW  Elec       q    Type
REMARK                         _______ _______ _______ _____ _____    ______ ____
ROOT
ATOM      1  C   UNL     1      -3.684  -3.269   1.204  0.00  0.00    +0.191 A 
ATOM      2  N   UNL     1      -4.467  -3.361   2.273  0.00  0.00    -0.206 NA
ATOM      3  C   UNL     1      -5.425  -2.484   2.521  0.00  0.00    +0.134 A 
ATOM      4  C   UNL     1      -5.629  -1.404   1.616  0.00  0.00    +0.051 A 
ATOM      5  C   UNL     1      -6.620  -0.327   1.686  0.00  0.00    -0.025 A 
ATOM      6  C   UNL     1      -6.604   0.583   0.692  0.00  0.00    -0.004 A 
ATOM      7  S   UNL     1      -5.290   0.072  -0.383  0.00  0.00    -0.073 S 
ATOM      8  C   UNL     1      -4.763  -1.369   0.506  0.00  0.00    +0.115 A 
ATOM      9  N   UNL     1      -3.826  -2.281   0.331  0.00  0.00    -0.215 NA
ATOM     10  C   UNL     1      -7.506   1.770   0.533  0.00  0.00    +0.043 C 
ATOM     11  C   UNL     1      -8.704   1.597   1.477  0.00  0.00    +0.005 C 
ATOM     12  C   UNL     1      -8.185   1.203   2.863  0.00  0.00    +0.005 C 
ATOM     13  C   UNL     1      -7.632  -0.222   2.823  0.00  0.00    +0.037 C 
ATOM     14  N   UNL     1      -6.220  -2.614   3.645  0.00  0.00    -0.318 N 
ATOM     15  C   UNL     1      -7.524  -3.290   3.575  0.00  0.00    +0.088 C 
ATOM     16  C   UNL     1      -7.590  -4.338   4.691  0.00  0.00    -0.059 C 
ATOM     17  N   UNL     1      -7.308  -3.695   5.981  0.00  0.00    +0.387 N 
ATOM     18  C   UNL     1      -5.931  -3.187   5.996  0.00  0.00    -0.059 C 
ATOM     19  C   UNL     1      -5.781  -2.087   4.946  0.00  0.00    +0.088 C 
ATOM     20  H   UNL     1      -7.950  -2.929   6.121  0.00  0.00    -0.081 HD
ENDROOT
BRANCH   1  21
ATOM     21  S   UNL     1      -2.430  -4.479   0.945  0.00  0.00    -0.082 S 
BRANCH  21  22
ATOM     22  C   UNL     1      -1.627  -3.956  -0.595  0.00  0.00    +0.107 C 
BRANCH  22  24
ATOM     23  C   UNL     1       0.777  -4.879  -0.168  0.00  0.00    +0.039 C 
ATOM     24  C   UNL     1      -0.519  -4.918  -0.936  0.00  0.00    -0.069 C 
ATOM     25  C   UNL     1      -0.682  -5.790  -1.901  0.00  0.00    +0.008 C 
ENDBRANCH  22  24
ENDBRANCH  21  22
ENDBRANCH   1  21
BRANCH  17  26
ATOM     26  C   UNL     1      -7.478  -4.676   7.061  0.00  0.00    +0.019 C 
BRANCH  26  27
ATOM     27  C   UNL     1      -7.311  -3.990   8.393  0.00  0.00    +0.197 C 
ATOM     28  O   UNL     1      -7.073  -2.802   8.437  0.00  0.00    -0.278 OA
ATOM     29  N   UNL     1      -7.425  -4.698   9.534  0.00  0.00    -0.314 N 
ATOM     30  H   UNL     1      -7.615  -5.648   9.499  0.00  0.00    +0.149 HD
BRANCH  29  31
ATOM     31  C   UNL     1      -7.262  -4.031  10.829  0.00  0.00    +0.073 C 
ATOM     32  C   UNL     1      -5.776  -3.971  11.188  0.00  0.00    +0.022 C 
ATOM     33  C   UNL     1      -5.606  -3.275  12.539  0.00  0.00    +0.002 C 
ATOM     34  C   UNL     1      -6.359  -4.059  13.616  0.00  0.00    +0.000 C 
ATOM     35  C   UNL     1      -7.845  -4.120  13.257  0.00  0.00    +0.002 C 
ATOM     36  C   UNL     1      -8.015  -4.816  11.905  0.00  0.00    +0.022 C 
ENDBRANCH  29  31
ENDBRANCH  26  27
ENDBRANCH  17  26
TORSDOF 6
