REMARK  Name = ZINC08959142
REMARK  8 active torsions:
REMARK  status: ('A' for Active; 'I' for Inactive)
REMARK    1  A    between atoms: C_1  and  C_2
REMARK    2  A    between atoms: C_2  and  C_3
REMARK    3  A    between atoms: C_2  and  O_4
REMARK    4  A    between atoms: O_4  and  C_5
REMARK    5  A    between atoms: C_8  and  C_11
REMARK    6  A    between atoms: N_13  and  C_14
REMARK    7  A    between atoms: C_22  and  C_26
REMARK    8  A    between atoms: C_22  and  C_27
REMARK                            x       y       z     vdW  Elec       q    Type
REMARK                         _______ _______ _______ _____ _____    ______ ____
ROOT
ATOM      1  C   UNL     1       1.040  -2.396   1.131  0.00  0.00    +0.037 A 
ATOM      2  C   UNL     1      -0.294  -2.349   0.750  0.00  0.00    +0.025 A 
ATOM      3  C   UNL     1      -0.986  -3.519   0.503  0.00  0.00    +0.029 A 
ATOM      4  C   UNL     1      -0.351  -4.742   0.648  0.00  0.00    +0.076 A 
ATOM      5  C   UNL     1       0.986  -4.793   1.040  0.00  0.00    +0.143 A 
ATOM      6  C   UNL     1       1.680  -3.620   1.279  0.00  0.00    +0.070 A 
ATOM      7  O   UNL     1       1.598  -5.998   1.191  0.00  0.00    -0.489 OA
ATOM      8  C   UNL     1       1.270  -6.754   2.354  0.00  0.00    +0.244 C 
ATOM      9  C   UNL     1      -0.237  -6.727   2.601  0.00  0.00    +0.076 C 
ATOM     10  C   UNL     1      -0.978  -6.939   1.306  0.00  0.00    +0.226 C 
ATOM     11  O   UNL     1      -1.514  -8.003   1.078  0.00  0.00    -0.275 OA
ATOM     12  N   UNL     1      -1.042  -5.938   0.400  0.00  0.00    -0.282 N 
ATOM     13  C   UNL     1      -0.630  -5.372   3.194  0.00  0.00    +0.024 C 
ATOM     14  C   UNL     1      -0.607  -7.838   3.585  0.00  0.00    +0.024 C 
ATOM     15  H   UNL     1      -1.560  -6.045  -0.413  0.00  0.00    +0.155 HD
ENDROOT
BRANCH   1  18
ATOM     16  C   UNL     1       2.700  -1.173   2.319  0.00  0.00    +0.248 C 
ATOM     17  O   UNL     1       2.893  -2.143   3.026  0.00  0.00    -0.270 OA
ATOM     18  N   UNL     1       1.740  -1.208   1.373  0.00  0.00    -0.281 N 
ATOM     19  H   UNL     1       1.534  -0.411   0.861  0.00  0.00    +0.155 HD
BRANCH  16  23
ATOM     20  C   UNL     1       5.040   2.333   2.838  0.00  0.00    +0.121 A 
ATOM     21  C   UNL     1       5.266   1.223   3.644  0.00  0.00    +0.046 A 
ATOM     22  C   UNL     1       4.509   0.085   3.479  0.00  0.00    +0.016 A 
ATOM     23  C   UNL     1       3.513   0.046   2.499  0.00  0.00    +0.037 A 
ATOM     24  C   UNL     1       3.293   1.161   1.687  0.00  0.00    +0.016 A 
ATOM     25  C   UNL     1       4.050   2.298   1.863  0.00  0.00    +0.046 A 
BRANCH  20  26
ATOM     26  O   UNL     1       5.788   3.453   3.004  0.00  0.00    -0.489 OA
BRANCH  26  28
ATOM     27  C   UNL     1       8.016   2.805   3.679  0.00  0.00    +0.051 C 
ATOM     28  C   UNL     1       6.702   3.466   4.102  0.00  0.00    +0.167 C 
ATOM     29  C   UNL     1       6.971   4.912   4.524  0.00  0.00    +0.051 C 
ENDBRANCH  26  28
ENDBRANCH  20  26
ENDBRANCH  16  23
ENDBRANCH   1  18
TORSDOF 4
