REMARK  Name = ZINC27530371
REMARK  5 active torsions:
REMARK  status: ('A' for Active; 'I' for Inactive)
REMARK    1  A    between atoms: C_3  and  C_8
REMARK    2  A    between atoms: C_5  and  O_7
REMARK    3  A    between atoms: N_12  and  C_16
REMARK    4  A    between atoms: C_19  and  O_25
REMARK    5  A    between atoms: C_20  and  C_22
REMARK                            x       y       z     vdW  Elec       q    Type
REMARK                         _______ _______ _______ _____ _____    ______ ____
ROOT
ATOM      1  C   UNL     1       0.299  -7.212   2.082  0.00  0.00    +0.028 C 
ATOM      2  C   UNL     1      -0.114  -6.367   1.105  0.00  0.00    +0.078 C 
ATOM      3  C   UNL     1      -0.736  -5.030   1.215  0.00  0.00    +0.263 C 
ATOM      4  O   UNL     1      -0.956  -4.514   2.295  0.00  0.00    -0.269 OA
ATOM      5  N   UNL     1      -1.041  -4.424   0.080  0.00  0.00    -0.224 N 
ATOM      6  C   UNL     1      -0.800  -5.002  -1.114  0.00  0.00    +0.125 C 
ATOM      7  S   UNL     1      -1.126  -4.386  -2.678  0.00  0.00    -0.027 S 
ATOM      8  S   UNL     1      -0.057  -6.564  -0.671  0.00  0.00    -0.061 S 
ENDROOT
BRANCH   1  11
ATOM      9  C   UNL     1      -0.069  -7.202   5.815  0.00  0.00    +0.004 A 
ATOM     10  C   UNL     1      -0.089  -7.628   4.503  0.00  0.00    +0.008 A 
ATOM     11  C   UNL     1       0.318  -6.763   3.482  0.00  0.00    -0.020 A 
ATOM     12  C   UNL     1       0.748  -5.470   3.800  0.00  0.00    +0.053 A 
ATOM     13  C   UNL     1       0.758  -5.054   5.119  0.00  0.00    +0.117 A 
ATOM     14  C   UNL     1       0.351  -5.922   6.125  0.00  0.00    +0.045 A 
BRANCH  13  15
ATOM     15  O   UNL     1       1.170  -3.798   5.432  0.00  0.00    -0.507 OA
ATOM     16  H   UNL     1       1.178  -3.466   6.481  0.00  0.00    +0.292 HD
ENDBRANCH  13  15
ENDBRANCH   1  11
BRANCH   5  17
ATOM     17  C   UNL     1      -1.633  -3.153   0.119  0.00  0.00    +0.044 A 
ATOM     18  C   UNL     1      -0.946  -2.051  -0.378  0.00  0.00    +0.027 A 
ATOM     19  C   UNL     1      -1.520  -0.797  -0.344  0.00  0.00    +0.048 A 
ATOM     20  C   UNL     1      -2.790  -0.626   0.188  0.00  0.00    +0.131 A 
ATOM     21  C   UNL     1      -3.487  -1.731   0.696  0.00  0.00    +0.106 A 
ATOM     22  C   UNL     1      -2.901  -2.999   0.653  0.00  0.00    +0.042 A 
BRANCH  21  23
ATOM     23  C   UNL     1      -4.835  -1.558   1.268  0.00  0.00    +0.390 C 
ATOM     24  O   UNL     1      -5.343  -0.455   1.300  0.00  0.00    -0.240 OA
ATOM     25  O   UNL     1      -5.502  -2.622   1.756  0.00  0.00    -0.240 OA
ENDBRANCH  21  23
BRANCH  20  26
ATOM     26  O   UNL     1      -3.353   0.608   0.221  0.00  0.00    -0.506 OA
ATOM     27  H   UNL     1      -4.361   0.741   0.643  0.00  0.00    +0.292 HD
ENDBRANCH  20  26
ENDBRANCH   5  17
TORSDOF 5
