REMARK  Name = ZINC39481828
REMARK  10 active torsions:
REMARK  status: ('A' for Active; 'I' for Inactive)
REMARK    1  A    between atoms: C_4  and  C_7
REMARK    2  A    between atoms: C_7  and  C_9
REMARK    3  A    between atoms: C_7  and  N_28
REMARK    4  A    between atoms: C_9  and  C_10
REMARK    5  A    between atoms: C_10  and  O_12
REMARK    6  A    between atoms: O_12  and  C_13
REMARK    7  A    between atoms: C_13  and  C_14
REMARK    8  A    between atoms: N_16  and  C_17
REMARK    9  A    between atoms: C_18  and  C_25
REMARK   10  A    between atoms: C_29  and  C_31
REMARK                            x       y       z     vdW  Elec       q    Type
REMARK                         _______ _______ _______ _____ _____    ______ ____
ROOT
ATOM      1  C   UNL     1       5.389  -1.794  -1.504  0.00  0.00    +0.310 C 
ATOM      2  O   UNL     1       6.051  -1.866  -0.496  0.00  0.00    -0.251 OA
ENDROOT
BRANCH   1   3
ATOM      3  C   UNL     1       4.019  -1.168  -1.464  0.00  0.00    +0.147 C 
BRANCH   3   4
ATOM      4  C   UNL     1       3.711  -0.707  -0.038  0.00  0.00    +0.114 C 
BRANCH   4   8
ATOM      5  C   UNL     1      -0.017   1.378   0.010  0.00  0.00    +0.000 A 
ATOM      6  C   UNL     1       1.171   2.086   0.002  0.00  0.00    +0.000 A 
ATOM      7  C   UNL     1       2.377   1.411  -0.013  0.00  0.00    +0.005 A 
ATOM      8  C   UNL     1       2.396   0.029  -0.020  0.00  0.00    -0.027 A 
ATOM      9  C   UNL     1       1.208  -0.679  -0.012  0.00  0.00    +0.005 A 
ATOM     10  C   UNL     1       0.002  -0.004   0.002  0.00  0.00    +0.000 A 
ENDBRANCH   4   8
BRANCH   4  11
ATOM     11  N   UNL     1       3.630  -1.873   0.845  0.00  0.00    -0.304 N 
ATOM     12  C   UNL     1       3.871  -1.738   2.164  0.00  0.00    +0.245 C 
ATOM     13  O   UNL     1       4.155  -0.648   2.622  0.00  0.00    -0.270 OA
ATOM     14  H   UNL     1       3.403  -2.743   0.480  0.00  0.00    +0.150 HD
BRANCH  12  15
ATOM     15  C   UNL     1       3.789  -2.915   3.055  0.00  0.00    +0.037 A 
ATOM     16  C   UNL     1       3.468  -4.169   2.533  0.00  0.00    +0.013 A 
ATOM     17  C   UNL     1       3.394  -5.263   3.370  0.00  0.00    +0.001 A 
ATOM     18  C   UNL     1       3.636  -5.120   4.724  0.00  0.00    +0.000 A 
ATOM     19  C   UNL     1       3.954  -3.879   5.249  0.00  0.00    +0.001 A 
ATOM     20  C   UNL     1       4.038  -2.778   4.422  0.00  0.00    +0.013 A 
ENDBRANCH  12  15
ENDBRANCH   4  11
ENDBRANCH   3   4
ENDBRANCH   1   3
BRANCH   1  21
ATOM     21  O   UNL     1       5.873  -2.274  -2.661  0.00  0.00    -0.455 OA
BRANCH  21  22
ATOM     22  C   UNL     1       7.179  -2.854  -2.626  0.00  0.00    +0.328 C 
BRANCH  22  23
ATOM     23  C   UNL     1       7.552  -3.334  -4.005  0.00  0.00    +0.255 C 
ATOM     24  O   UNL     1       6.777  -3.192  -4.927  0.00  0.00    -0.272 OA
ATOM     25  N   UNL     1       8.747  -3.920  -4.214  0.00  0.00    -0.277 N 
ATOM     26  H   UNL     1       9.367  -4.034  -3.477  0.00  0.00    +0.155 HD
BRANCH  25  27
ATOM     27  C   UNL     1       9.091  -4.361  -5.483  0.00  0.00    +0.084 A 
ATOM     28  C   UNL     1      10.260  -4.984  -5.880  0.00  0.00    +0.068 A 
ATOM     29  C   UNL     1      10.377  -5.354  -7.289  0.00  0.00    -0.023 A 
ATOM     30  C   UNL     1       9.305  -5.029  -8.033  0.00  0.00    -0.004 A 
ATOM     31  S   UNL     1       8.181  -4.268  -6.889  0.00  0.00    -0.077 S 
ATOM     32  C   UNL     1       9.479  -5.428  -9.473  0.00  0.00    +0.043 C 
ATOM     33  C   UNL     1      10.997  -5.670  -9.630  0.00  0.00    +0.010 C 
ATOM     34  C   UNL     1      11.409  -6.032  -8.189  0.00  0.00    +0.037 C 
BRANCH  28  35
ATOM     35  C   UNL     1      11.338  -5.261  -4.925  0.00  0.00    +0.244 C 
ATOM     36  O   UNL     1      11.357  -6.316  -4.318  0.00  0.00    -0.270 OA
ATOM     37  N   UNL     1      12.308  -4.349  -4.720  0.00  0.00    -0.325 N 
ATOM     38  H   UNL     1      12.293  -3.508  -5.204  0.00  0.00    +0.145 HD
ATOM     39  H   UNL     1      13.021  -4.532  -4.089  0.00  0.00    +0.145 HD
ENDBRANCH  28  35
ENDBRANCH  25  27
ENDBRANCH  22  23
ENDBRANCH  21  22
ENDBRANCH   1  21
TORSDOF 10
