REMARK  Name = ZINC20347586
REMARK  13 active torsions:
REMARK  status: ('A' for Active; 'I' for Inactive)
REMARK    1  A    between atoms: C_1  and  C_2
REMARK    2  A    between atoms: C_2  and  C_3
REMARK    3  A    between atoms: C_8  and  N_9
REMARK    4  A    between atoms: C_10  and  C_12
REMARK    5  A    between atoms: C_12  and  S_13
REMARK    6  A    between atoms: S_13  and  C_14
REMARK    7  A    between atoms: C_15  and  C_38
REMARK    8  A    between atoms: C_16  and  C_33
REMARK    9  A    between atoms: C_18  and  C_22
REMARK   10  A    between atoms: C_19  and  C_21
REMARK   11  A    between atoms: N_24  and  C_25
REMARK   12  A    between atoms: C_26  and  C_32
REMARK   13  A    between atoms: C_30  and  C_31
REMARK                            x       y       z     vdW  Elec       q    Type
REMARK                         _______ _______ _______ _____ _____    ______ ____
ROOT
ATOM      1  C   UNL     1      -5.494   5.884   0.752  0.00  0.00    +0.080 C 
ATOM      2  C   UNL     1      -5.481   4.554   0.471  0.00  0.00    +0.072 C 
ATOM      3  C   UNL     1      -4.208   3.848   0.100  0.00  0.00    +0.134 C 
ATOM      4  C   UNL     1      -3.011   4.677   0.468  0.00  0.00    +0.047 C 
ATOM      5  C   UNL     1      -3.118   5.985   0.751  0.00  0.00    +0.015 C 
ATOM      6  N   UNL     1      -4.330   6.618   0.712  0.00  0.00    -0.312 N 
ATOM      7  C   UNL     1      -1.882   6.769   1.111  0.00  0.00    +0.061 C 
ATOM      8  H   UNL     1      -4.373   7.715   0.649  0.00  0.00    +0.152 HD
ENDROOT
BRANCH   3   9
ATOM      9  C   UNL     1      -4.197   3.594  -1.385  0.00  0.00    +0.118 A 
ATOM     10  C   UNL     1      -4.151   2.387  -1.977  0.00  0.00    +0.045 A 
ATOM     11  C   UNL     1      -4.159   2.614  -3.372  0.00  0.00    +0.041 A 
ATOM     12  C   UNL     1      -4.210   3.947  -3.550  0.00  0.00    +0.195 A 
ATOM     13  O   UNL     1      -4.239   4.535  -2.343  0.00  0.00    -0.467 OA
ENDBRANCH   3   9
BRANCH   4  14
ATOM     14  C   UNL     1      -1.738   4.061   0.524  0.00  0.00    +0.247 C 
ATOM     15  O   UNL     1      -0.771   4.696   0.906  0.00  0.00    -0.270 OA
ATOM     16  N   UNL     1      -1.595   2.773   0.155  0.00  0.00    -0.281 N 
ATOM     17  H   UNL     1      -2.477   2.183  -0.137  0.00  0.00    +0.155 HD
BRANCH  16  18
ATOM     18  C   UNL     1      -0.326   2.186   0.141  0.00  0.00    +0.040 A 
ATOM     19  C   UNL     1      -0.134   0.929   0.701  0.00  0.00    -0.029 A 
ATOM     20  C   UNL     1       1.122   0.355   0.692  0.00  0.00    +0.005 A 
ATOM     21  C   UNL     1       2.188   1.029   0.125  0.00  0.00    +0.001 A 
ATOM     22  C   UNL     1       2.001   2.280  -0.433  0.00  0.00    +0.005 A 
ATOM     23  C   UNL     1       0.747   2.860  -0.427  0.00  0.00    -0.029 A 
ATOM     24  C   UNL     1       0.544   4.224  -1.036  0.00  0.00    +0.045 C 
ATOM     25  C   UNL     1      -1.295   0.194   1.319  0.00  0.00    +0.045 C 
ENDBRANCH  16  18
ENDBRANCH   4  14
BRANCH   2  26
ATOM     26  C   UNL     1      -6.705   3.812   0.529  0.00  0.00    +0.098 C 
ATOM     27  N   UNL     1      -7.675   3.223   0.576  0.00  0.00    -0.191 NA
ENDBRANCH   2  26
BRANCH   1  28
ATOM     28  S   UNL     1      -7.012   6.675   1.173  0.00  0.00    -0.100 S 
BRANCH  28  29
ATOM     29  C   UNL     1      -6.425   8.367   1.430  0.00  0.00    +0.171 C 
BRANCH  29  31
ATOM     30  N   UNL     1      -7.385  10.560   2.051  0.00  0.00    -0.285 N 
ATOM     31  C   UNL     1      -7.586   9.250   1.809  0.00  0.00    +0.227 C 
ATOM     32  O   UNL     1      -8.701   8.781   1.897  0.00  0.00    -0.275 OA
ATOM     33  H   UNL     1      -6.390  11.002   1.896  0.00  0.00    +0.155 HD
BRANCH  30  39
ATOM     34  C   UNL     1      -8.185  12.495   3.255  0.00  0.00    -0.026 A 
ATOM     35  C   UNL     1      -9.231  13.281   3.697  0.00  0.00    +0.005 A 
ATOM     36  C   UNL     1     -10.534  12.938   3.386  0.00  0.00    +0.000 A 
ATOM     37  C   UNL     1     -10.794  11.808   2.633  0.00  0.00    +0.002 A 
ATOM     38  C   UNL     1      -9.752  11.020   2.185  0.00  0.00    +0.023 A 
ATOM     39  C   UNL     1      -8.443  11.359   2.499  0.00  0.00    +0.037 A 
BRANCH  34  41
ATOM     40  C   UNL     1      -6.163  13.678   2.442  0.00  0.00    +0.009 C 
ATOM     41  C   UNL     1      -6.765  12.870   3.594  0.00  0.00    +0.033 C 
ENDBRANCH  34  41
ENDBRANCH  30  39
ENDBRANCH  29  31
ENDBRANCH  28  29
ENDBRANCH   1  28
TORSDOF 9
