REMARK  Name = ZINC38903667
REMARK  15 active torsions:
REMARK  status: ('A' for Active; 'I' for Inactive)
REMARK    1  A    between atoms: C_1  and  C_2
REMARK    2  A    between atoms: C_7  and  C_8
REMARK    3  A    between atoms: C_8  and  S_9
REMARK    4  A    between atoms: S_9  and  C_10
REMARK    5  A    between atoms: C_10  and  C_11
REMARK    6  A    between atoms: C_11  and  C_12
REMARK    7  A    between atoms: C_12  and  N_13
REMARK    8  A    between atoms: C_14  and  C_16
REMARK    9  A    between atoms: N_21  and  C_23
REMARK   10  A    between atoms: C_23  and  C_24
REMARK   11  A    between atoms: C_26  and  C_29
REMARK   12  A    between atoms: C_32  and  C_35
REMARK   13  A    between atoms: C_35  and  C_36
REMARK   14  A    between atoms: C_35  and  C_37
REMARK   15  A    between atoms: C_35  and  C_38
REMARK                            x       y       z     vdW  Elec       q    Type
REMARK                         _______ _______ _______ _____ _____    ______ ____
ROOT
ATOM      1  C   UNL     1      -5.555   3.523   8.790  0.00  0.00    +0.058 C 
ATOM      2  C   UNL     1      -6.302   2.209   9.037  0.00  0.00    +0.009 C 
ATOM      3  C   UNL     1      -7.656   2.517   9.684  0.00  0.00    -0.018 C 
ATOM      4  C   UNL     1      -7.431   3.308  10.974  0.00  0.00    -0.078 C 
ATOM      5  N   UNL     1      -6.736   4.564  10.668  0.00  0.00    +0.386 N 
ATOM      6  C   UNL     1      -5.408   4.277  10.113  0.00  0.00    -0.065 C 
ATOM      7  H   UNL     1      -7.274   5.089   9.994  0.00  0.00    -0.081 HD
ENDROOT
BRANCH   1   9
ATOM      8  N   UNL     1      -4.073   2.563   7.058  0.00  0.00    -0.315 N 
ATOM      9  C   UNL     1      -4.190   3.226   8.225  0.00  0.00    +0.214 C 
ATOM     10  O   UNL     1      -3.196   3.585   8.821  0.00  0.00    -0.276 OA
ATOM     11  H   UNL     1      -4.868   2.276   6.581  0.00  0.00    +0.149 HD
BRANCH   8  12
ATOM     12  C   UNL     1      -2.746   2.275   6.508  0.00  0.00    +0.105 C 
BRANCH  12  13
ATOM     13  C   UNL     1      -2.894   1.519   5.187  0.00  0.00    +0.029 C 
BRANCH  13  14
ATOM     14  C   UNL     1      -1.508   1.218   4.613  0.00  0.00    +0.071 C 
BRANCH  14  15
ATOM     15  S   UNL     1      -1.684   0.321   3.046  0.00  0.00    -0.156 S 
BRANCH  15  16
ATOM     16  C   UNL     1       0.025   0.045   2.504  0.00  0.00    +0.104 C 
BRANCH  16  23
ATOM     17  C   UNL     1      -0.018   1.503   0.010  0.00  0.00    +0.044 C 
ATOM     18  C   UNL     1       0.002  -0.004   0.002  0.00  0.00    -0.046 A 
ATOM     19  C   UNL     1       0.006  -0.689  -1.199  0.00  0.00    +0.003 A 
ATOM     20  C   UNL     1       0.025  -2.071  -1.207  0.00  0.00    +0.000 A 
ATOM     21  C   UNL     1       0.040  -2.768  -0.013  0.00  0.00    +0.000 A 
ATOM     22  C   UNL     1       0.037  -2.084   1.188  0.00  0.00    +0.005 A 
ATOM     23  C   UNL     1       0.023  -0.702   1.195  0.00  0.00    -0.035 A 
ENDBRANCH  16  23
ENDBRANCH  15  16
ENDBRANCH  14  15
ENDBRANCH  13  14
ENDBRANCH  12  13
ENDBRANCH   8  12
ENDBRANCH   1   9
BRANCH   5  24
ATOM     24  C   UNL     1      -6.592   5.355  11.897  0.00  0.00    +0.022 C 
BRANCH  24  25
ATOM     25  C   UNL     1      -7.954   5.763  12.395  0.00  0.00    +0.211 A 
ATOM     26  N   UNL     1      -8.695   5.087  13.226  0.00  0.00    -0.193 NA
ATOM     27  C   UNL     1      -9.848   5.742  13.454  0.00  0.00    +0.202 A 
ATOM     28  N   UNL     1      -9.842   6.852  12.759  0.00  0.00    -0.056 NA
ATOM     29  O   UNL     1      -8.605   6.885  12.062  0.00  0.00    -0.340 OA
BRANCH  27  30
ATOM     30  C   UNL     1     -10.943   5.283  14.344  0.00  0.00    +0.022 A 
ATOM     31  C   UNL     1     -10.824   4.079  15.036  0.00  0.00    +0.012 A 
ATOM     32  C   UNL     1     -11.846   3.657  15.862  0.00  0.00    +0.005 A 
ATOM     33  C   UNL     1     -12.986   4.427  16.004  0.00  0.00    -0.042 A 
ATOM     34  C   UNL     1     -13.109   5.623  15.320  0.00  0.00    +0.005 A 
ATOM     35  C   UNL     1     -12.091   6.058  14.496  0.00  0.00    +0.012 A 
BRANCH  33  36
ATOM     36  C   UNL     1     -14.099   3.961  16.907  0.00  0.00    -0.013 C 
ATOM     37  C   UNL     1     -13.569   3.814  18.335  0.00  0.00    +0.015 C 
ATOM     38  C   UNL     1     -15.235   4.985  16.887  0.00  0.00    +0.015 C 
ATOM     39  C   UNL     1     -14.622   2.610  16.416  0.00  0.00    +0.015 C 
ENDBRANCH  33  36
ENDBRANCH  27  30
ENDBRANCH  24  25
ENDBRANCH   5  24
TORSDOF 11
