REMARK  Name = ZINC20112025
REMARK  7 active torsions:
REMARK  status: ('A' for Active; 'I' for Inactive)
REMARK    1  A    between atoms: C_1  and  O_2
REMARK    2  A    between atoms: O_2  and  C_3
REMARK    3  A    between atoms: C_6  and  C_9
REMARK    4  A    between atoms: C_9  and  C_10
REMARK    5  A    between atoms: C_10  and  C_25
REMARK    6  A    between atoms: N_16  and  C_19
REMARK    7  A    between atoms: C_25  and  N_26
REMARK                            x       y       z     vdW  Elec       q    Type
REMARK                         _______ _______ _______ _____ _____    ______ ____
ROOT
ATOM      1  C   UNL     1      -0.273   0.502  -4.262  0.00  0.00    +0.115 C 
ATOM      2  C   UNL     1      -1.349  -0.257  -3.510  0.00  0.00    +0.254 C 
ATOM      3  O   UNL     1      -1.422  -1.466  -3.567  0.00  0.00    -0.272 OA
ATOM      4  N   UNL     1      -2.224   0.463  -2.775  0.00  0.00    -0.127 NA
ATOM      5  C   UNL     1      -2.157   1.797  -2.703  0.00  0.00    +0.335 C 
ATOM      6  O   UNL     1      -2.983   2.366  -2.018  0.00  0.00    -0.250 OA
ATOM      7  N   UNL     1      -1.246   2.551  -3.329  0.00  0.00    -0.220 N 
ATOM      8  C   UNL     1      -0.288   2.011  -4.112  0.00  0.00    +0.237 C 
ATOM      9  O   UNL     1       0.531   2.707  -4.673  0.00  0.00    -0.274 OA
ENDROOT
BRANCH   7  10
ATOM     10  C   UNL     1      -1.291   4.006  -3.161  0.00  0.00    +0.086 C 
ATOM     11  C   UNL     1      -1.125   4.353  -1.680  0.00  0.00    +0.023 C 
ATOM     12  C   UNL     1      -1.171   5.872  -1.504  0.00  0.00    +0.002 C 
ATOM     13  C   UNL     1      -2.516   6.403  -2.005  0.00  0.00    +0.000 C 
ATOM     14  C   UNL     1      -2.682   6.055  -3.485  0.00  0.00    +0.002 C 
ATOM     15  C   UNL     1      -2.636   4.536  -3.661  0.00  0.00    +0.023 C 
ENDBRANCH   7  10
BRANCH   1  16
ATOM     16  C   UNL     1      -0.414   0.171  -5.749  0.00  0.00    +0.058 C 
BRANCH  16  20
ATOM     17  C   UNL     1      -4.196   1.564  -7.168  0.00  0.00    +0.120 A 
ATOM     18  C   UNL     1      -3.086   2.394  -7.220  0.00  0.00    +0.046 A 
ATOM     19  C   UNL     1      -1.865   1.942  -6.760  0.00  0.00    +0.007 A 
ATOM     20  C   UNL     1      -1.748   0.662  -6.250  0.00  0.00    -0.046 A 
ATOM     21  C   UNL     1      -2.852  -0.169  -6.202  0.00  0.00    +0.007 A 
ATOM     22  C   UNL     1      -4.077   0.281  -6.655  0.00  0.00    +0.046 A 
BRANCH  17  24
ATOM     23  C   UNL     1      -6.498   1.098  -7.536  0.00  0.00    +0.277 C 
ATOM     24  O   UNL     1      -5.399   2.007  -7.620  0.00  0.00    -0.495 OA
ENDBRANCH  17  24
ENDBRANCH  16  20
ENDBRANCH   1  16
BRANCH   1  25
ATOM     25  C   UNL     1       1.089  -0.010  -3.791  0.00  0.00    -0.053 C 
BRANCH  25  26
ATOM     26  N   UNL     1       1.219   0.206  -2.344  0.00  0.00    +0.381 N 
ATOM     27  C   UNL     1       1.559   1.602  -2.049  0.00  0.00    -0.074 C 
ATOM     28  C   UNL     1       1.636   1.842  -0.549  0.00  0.00    -0.007 C 
ATOM     29  C   UNL     1       2.622   0.871   0.107  0.00  0.00    +0.011 C 
ATOM     30  C   UNL     1       2.163  -0.552  -0.231  0.00  0.00    +0.020 C 
ATOM     31  C   UNL     1       2.207  -0.715  -1.760  0.00  0.00    -0.069 C 
ATOM     32  C   UNL     1       0.725  -0.727   0.203  0.00  0.00    +0.023 A 
ATOM     33  C   UNL     1       0.318  -1.981   0.533  0.00  0.00    +0.022 A 
ATOM     34  C   UNL     1      -1.015  -2.228   0.881  0.00  0.00    +0.007 A 
ATOM     35  C   UNL     1      -1.901  -1.191   0.869  0.00  0.00    +0.070 A 
ATOM     36  C   UNL     1      -1.449   0.090   0.525  0.00  0.00    +0.251 A 
ATOM     37  O   UNL     1      -2.245   1.012   0.453  0.00  0.00    -0.268 OA
ATOM     38  N   UNL     1      -0.136   0.316   0.271  0.00  0.00    -0.312 N 
ATOM     39  C   UNL     1       0.277   1.711   0.117  0.00  0.00    +0.126 C 
ATOM     40  H   UNL     1       0.244  -0.005  -1.880  0.00  0.00    -0.082 HD
ENDBRANCH  25  26
ENDBRANCH   1  25
TORSDOF 6
