REMARK  Name = ZINC02108651
REMARK  8 active torsions:
REMARK  status: ('A' for Active; 'I' for Inactive)
REMARK    1  A    between atoms: C_1  and  C_2
REMARK    2  A    between atoms: C_6  and  O_29
REMARK    3  A    between atoms: C_12  and  C_13
REMARK    4  A    between atoms: C_13  and  C_14
REMARK    5  A    between atoms: C_14  and  C_15
REMARK    6  A    between atoms: C_20  and  O_28
REMARK    7  A    between atoms: O_29  and  C_30
REMARK    8  A    between atoms: C_30  and  C_31
REMARK                            x       y       z     vdW  Elec       q    Type
REMARK                         _______ _______ _______ _____ _____    ______ ____
ROOT
ATOM      1  C   UNL     1      -0.018   1.503   0.010  0.00  0.00    +0.045 C 
ATOM      2  C   UNL     1       0.002  -0.004   0.002  0.00  0.00    -0.030 A 
ATOM      3  C   UNL     1      -0.006  -0.749  -1.258  0.00  0.00    +0.021 A 
ATOM      4  C   UNL     1      -0.021  -0.083  -2.489  0.00  0.00    +0.015 A 
ATOM      5  C   UNL     1      -0.021  -0.802  -3.649  0.00  0.00    +0.046 A 
ATOM      6  C   UNL     1      -0.002  -2.195  -3.616  0.00  0.00    +0.125 A 
ATOM      7  C   UNL     1       0.018  -2.871  -2.407  0.00  0.00    +0.092 A 
ATOM      8  C   UNL     1       0.019  -2.156  -1.219  0.00  0.00    +0.143 A 
ATOM      9  O   UNL     1       0.039  -2.795  -0.029  0.00  0.00    -0.422 OA
ATOM     10  C   UNL     1       0.041  -2.118   1.129  0.00  0.00    +0.341 A 
ATOM     11  O   UNL     1       0.059  -2.736   2.178  0.00  0.00    -0.245 OA
ATOM     12  C   UNL     1       0.023  -0.708   1.164  0.00  0.00    +0.041 A 
ENDROOT
BRANCH  12  13
ATOM     13  C   UNL     1       0.025   0.016   2.486  0.00  0.00    +0.052 C 
BRANCH  13  14
ATOM     14  C   UNL     1      -1.416   0.241   2.947  0.00  0.00    +0.101 C 
BRANCH  14  15
ATOM     15  C   UNL     1      -1.413   0.965   4.269  0.00  0.00    +0.216 C 
ATOM     16  O   UNL     1      -0.362   1.270   4.790  0.00  0.00    -0.276 OA
ATOM     17  N   UNL     1      -2.579   1.272   4.871  0.00  0.00    -0.301 N 
ATOM     18  C   UNL     1      -3.861   0.915   4.248  0.00  0.00    +0.110 C 
ATOM     19  C   UNL     1      -4.729   2.167   4.142  0.00  0.00    +0.054 C 
ATOM     20  C   UNL     1      -4.862   2.813   5.524  0.00  0.00    +0.072 C 
ATOM     21  C   UNL     1      -5.746   4.059   5.415  0.00  0.00    +0.035 C 
ATOM     22  C   UNL     1      -5.114   5.044   4.430  0.00  0.00    +0.003 C 
ATOM     23  C   UNL     1      -3.725   5.448   4.930  0.00  0.00    +0.001 C 
ATOM     24  C   UNL     1      -2.843   4.203   5.047  0.00  0.00    +0.008 C 
ATOM     25  C   UNL     1      -3.478   3.221   6.033  0.00  0.00    +0.038 C 
ATOM     26  C   UNL     1      -2.594   1.978   6.160  0.00  0.00    +0.114 C 
BRANCH  20  27
ATOM     27  O   UNL     1      -5.454   1.886   6.436  0.00  0.00    -0.388 OA
ATOM     28  H   UNL     1      -6.335   1.584   6.175  0.00  0.00    +0.210 HD
ENDBRANCH  20  27
ENDBRANCH  14  15
ENDBRANCH  13  14
ENDBRANCH  12  13
BRANCH   6  29
ATOM     29  O   UNL     1      -0.003  -2.896  -4.779  0.00  0.00    -0.487 OA
BRANCH  29  30
ATOM     30  C   UNL     1      -0.024  -2.141  -5.992  0.00  0.00    +0.265 C 
BRANCH  30  31
ATOM     31  C   UNL     1      -0.022  -3.081  -7.170  0.00  0.00    -0.003 A 
ATOM     32  C   UNL     1       0.004  -4.428  -6.970  0.00  0.00    +0.007 A 
ATOM     33  C   UNL     1      -0.001  -5.313  -8.046  0.00  0.00    +0.001 A 
ATOM     34  C   UNL     1      -0.018  -4.856  -9.329  0.00  0.00    +0.008 A 
ATOM     35  C   UNL     1      -0.039  -3.473  -9.574  0.00  0.00    -0.018 A 
ATOM     36  C   UNL     1      -0.041  -2.573  -8.479  0.00  0.00    -0.011 A 
ATOM     37  C   UNL     1      -0.061  -1.189  -8.725  0.00  0.00    +0.009 A 
ATOM     38  C   UNL     1      -0.078  -0.734 -10.007  0.00  0.00    +0.001 A 
ATOM     39  C   UNL     1      -0.075  -1.619 -11.084  0.00  0.00    +0.001 A 
ATOM     40  C   UNL     1      -0.056  -2.965 -10.884  0.00  0.00    +0.008 A 
ENDBRANCH  30  31
ENDBRANCH  29  30
ENDBRANCH   6  29
TORSDOF 7
