REMARK  Name = ZINC33864231
REMARK  6 active torsions:
REMARK  status: ('A' for Active; 'I' for Inactive)
REMARK    1  A    between atoms: C_3  and  N_32
REMARK    2  A    between atoms: C_6  and  C_7
REMARK    3  A    between atoms: C_7  and  C_8
REMARK    4  A    between atoms: C_8  and  C_29
REMARK    5  A    between atoms: C_13  and  C_16
REMARK    6  A    between atoms: C_21  and  O_22
REMARK                            x       y       z     vdW  Elec       q    Type
REMARK                         _______ _______ _______ _____ _____    ______ ____
ROOT
ATOM      1  C   UNL     1      -1.744  -1.028  -1.429  0.00  0.00    +0.138 C 
ATOM      2  C   UNL     1      -3.164  -1.632  -1.449  0.00  0.00    +0.120 C 
ATOM      3  C   UNL     1      -4.111  -0.417  -1.639  0.00  0.00    +0.111 C 
ATOM      4  C   UNL     1      -3.175   0.808  -1.700  0.00  0.00    +0.101 C 
ATOM      5  N   UNL     1      -1.870   0.255  -2.166  0.00  0.00    -0.293 NA
ATOM      6  C   UNL     1      -4.724  -0.661  -2.999  0.00  0.00    +0.225 C 
ATOM      7  O   UNL     1      -5.533   0.060  -3.543  0.00  0.00    -0.275 OA
ATOM      8  N   UNL     1      -4.234  -1.797  -3.510  0.00  0.00    -0.256 N 
ATOM      9  C   UNL     1      -3.345  -2.437  -2.716  0.00  0.00    +0.225 C 
ATOM     10  O   UNL     1      -2.782  -3.480  -2.970  0.00  0.00    -0.275 OA
ATOM     11  H   UNL     1      -1.114   0.881  -1.933  0.00  0.00    +0.124 HD
ATOM     12  H   UNL     1      -4.499  -2.138  -4.379  0.00  0.00    +0.157 HD
ENDROOT
BRANCH   4  13
ATOM     13  C   UNL     1      -3.691   1.813  -2.698  0.00  0.00    +0.013 A 
ATOM     14  C   UNL     1      -3.216   1.805  -3.995  0.00  0.00    +0.024 A 
ATOM     15  C   UNL     1      -3.688   2.728  -4.912  0.00  0.00    +0.018 A 
ATOM     16  C   UNL     1      -4.638   3.660  -4.531  0.00  0.00    +0.019 A 
ATOM     17  C   UNL     1      -5.115   3.671  -3.235  0.00  0.00    +0.047 A 
ATOM     18  C   UNL     1      -4.646   2.743  -2.316  0.00  0.00    +0.122 A 
ATOM     19 BR   UNL     1      -3.037   2.715  -6.686  0.00  0.00    -0.050 Br
BRANCH  18  20
ATOM     20  O   UNL     1      -5.118   2.750  -1.041  0.00  0.00    -0.506 OA
ATOM     21  H   UNL     1      -4.614   3.313  -0.438  0.00  0.00    +0.292 HD
ENDBRANCH  18  20
ENDBRANCH   4  13
BRANCH   1  22
ATOM     22  C   UNL     1      -0.773  -1.943  -2.130  0.00  0.00    +0.377 C 
ATOM     23  O   UNL     1      -0.579  -3.068  -1.704  0.00  0.00    -0.244 OA
ATOM     24  O   UNL     1      -0.181  -1.557  -3.124  0.00  0.00    -0.244 OA
ENDBRANCH   1  22
BRANCH   1  25
ATOM     25  C   UNL     1      -1.293  -0.775   0.010  0.00  0.00    +0.069 C 
BRANCH  25  31
ATOM     26  C   UNL     1      -0.017   1.378   0.010  0.00  0.00    +0.006 A 
ATOM     27  C   UNL     1       1.171   2.086   0.002  0.00  0.00    +0.033 A 
ATOM     28  C   UNL     1       2.377   1.411  -0.013  0.00  0.00    +0.126 A 
ATOM     29  C   UNL     1       2.396   0.029  -0.020  0.00  0.00    +0.033 A 
ATOM     30  C   UNL     1       1.208  -0.679  -0.012  0.00  0.00    +0.006 A 
ATOM     31  C   UNL     1       0.002  -0.004   0.002  0.00  0.00    -0.045 A 
BRANCH  28  32
ATOM     32  N   UNL     1       3.649   2.168  -0.022  0.00  0.00    +0.056 N 
ATOM     33  O   UNL     1       3.633   3.377  -0.016  0.00  0.00    -0.126 OA
ATOM     34  O   UNL     1       4.704   1.578  -0.035  0.00  0.00    -0.126 OA
ENDBRANCH  28  32
ENDBRANCH  25  31
ENDBRANCH   1  25
TORSDOF 6
