REMARK  Name = ZINC09203072
REMARK  6 active torsions:
REMARK  status: ('A' for Active; 'I' for Inactive)
REMARK    1  A    between atoms: C_6  and  C_7
REMARK    2  A    between atoms: C_7  and  C_8
REMARK    3  A    between atoms: N_10  and  N_11
REMARK    4  A    between atoms: C_12  and  C_13
REMARK    5  A    between atoms: C_16  and  C_18
REMARK    6  A    between atoms: C_23  and  N_24
REMARK                            x       y       z     vdW  Elec       q    Type
REMARK                         _______ _______ _______ _____ _____    ______ ____
ROOT
ATOM      1  C   UNL     1      -1.138   1.852  -5.825  0.00  0.00    +0.148 A 
ATOM      2  C   UNL     1      -0.756   1.595  -7.220  0.00  0.00    +0.051 A 
ATOM      3  C   UNL     1      -1.678   2.221  -7.996  0.00  0.00    +0.050 A 
ATOM      4  C   UNL     1      -2.623   2.872  -7.091  0.00  0.00    +0.138 A 
ATOM      5  O   UNL     1      -2.250   2.616  -5.824  0.00  0.00    -0.454 OA
ENDROOT
BRANCH   4   6
ATOM      6  C   UNL     1      -3.745   3.643  -7.481  0.00  0.00    +0.047 A 
ATOM      7  C   UNL     1      -3.599   4.679  -8.425  0.00  0.00    +0.015 A 
ATOM      8  C   UNL     1      -4.688   5.412  -8.799  0.00  0.00    +0.016 A 
ATOM      9  C   UNL     1      -5.934   5.147  -8.244  0.00  0.00    +0.020 A 
ATOM     10  C   UNL     1      -6.088   4.132  -7.309  0.00  0.00    +0.048 A 
ATOM     11  C   UNL     1      -5.013   3.383  -6.925  0.00  0.00    +0.138 A 
ATOM     12 BR   UNL     1      -7.432   6.177  -8.766  0.00  0.00    -0.050 Br
BRANCH  11  13
ATOM     13  N   UNL     1      -5.179   2.302  -5.928  0.00  0.00    +0.057 N 
ATOM     14  O   UNL     1      -6.365   2.061  -5.409  0.00  0.00    -0.126 OA
ATOM     15  O   UNL     1      -4.140   1.581  -5.559  0.00  0.00    -0.126 OA
ENDBRANCH  11  13
ENDBRANCH   4   6
BRANCH   1  17
ATOM     16  N   UNL     1      -0.912   1.700  -3.488  0.00  0.00    -0.185 NA
ATOM     17  C   UNL     1      -0.466   1.392  -4.699  0.00  0.00    +0.176 C 
BRANCH  16  20
ATOM     18  C   UNL     1      -0.742   1.585  -1.213  0.00  0.00    +0.237 C 
ATOM     19  O   UNL     1      -1.732   2.266  -1.089  0.00  0.00    -0.274 OA
ATOM     20  N   UNL     1      -0.288   1.272  -2.443  0.00  0.00    -0.207 N 
ATOM     21  H   UNL     1       0.507   0.726  -2.543  0.00  0.00    +0.177 HD
BRANCH  18  22
ATOM     22  C   UNL     1      -0.013   1.086   0.008  0.00  0.00    +0.132 C 
BRANCH  22  28
ATOM     23  C   UNL     1      -0.360   2.779   1.819  0.00  0.00    +0.005 A 
ATOM     24  C   UNL     1      -1.010   3.227   2.953  0.00  0.00    +0.015 A 
ATOM     25  C   UNL     1      -2.012   2.463   3.523  0.00  0.00    +0.018 A 
ATOM     26  C   UNL     1      -2.366   1.253   2.955  0.00  0.00    +0.015 A 
ATOM     27  C   UNL     1      -1.719   0.808   1.818  0.00  0.00    +0.005 A 
ATOM     28  C   UNL     1      -0.718   1.572   1.248  0.00  0.00    -0.039 A 
ATOM     29 BR   UNL     1      -2.897   3.073   5.079  0.00  0.00    -0.050 Br
ENDBRANCH  22  28
ENDBRANCH  18  22
ENDBRANCH  16  20
ENDBRANCH   1  17
TORSDOF 6
