REMARK  Name = ZINC39652623
REMARK  9 active torsions:
REMARK  status: ('A' for Active; 'I' for Inactive)
REMARK    1  A    between atoms: C_1  and  C_2
REMARK    2  A    between atoms: C_2  and  O_3
REMARK    3  A    between atoms: O_3  and  C_4
REMARK    4  A    between atoms: C_9  and  C_10
REMARK    5  A    between atoms: C_10  and  C_11
REMARK    6  A    between atoms: C_11  and  N_12
REMARK    7  A    between atoms: C_13  and  C_15
REMARK    8  A    between atoms: C_26  and  C_28
REMARK    9  A    between atoms: C_31  and  C_34
REMARK                            x       y       z     vdW  Elec       q    Type
REMARK                         _______ _______ _______ _____ _____    ______ ____
ROOT
ATOM      1  C   UNL     1       1.875   1.606   7.832  0.00  0.00    +0.100 C 
ATOM      2  C   UNL     1       2.252   2.766   6.884  0.00  0.00    +0.121 C 
ATOM      3  N   UNL     1       1.111   3.708   6.973  0.00  0.00    -0.296 N 
ATOM      4  C   UNL     1       0.732   3.694   8.406  0.00  0.00    +0.115 C 
ATOM      5  C   UNL     1       0.880   2.219   8.832  0.00  0.00    -0.004 C 
ATOM      6  C   UNL     1      -0.466   1.507   8.741  0.00  0.00    -0.010 C 
ATOM      7  C   UNL     1      -1.421   2.097   9.784  0.00  0.00    -0.082 C 
ATOM      8  N   UNL     1      -0.846   1.932  11.124  0.00  0.00    +0.379 N 
ATOM      9  C   UNL     1       0.403   2.696  11.232  0.00  0.00    -0.082 C 
ATOM     10  C   UNL     1       1.434   2.132  10.250  0.00  0.00    -0.010 C 
ATOM     11  C   UNL     1       0.545   4.417   5.976  0.00  0.00    +0.247 C 
ATOM     12  O   UNL     1       0.887   4.226   4.825  0.00  0.00    -0.270 OA
ATOM     13  H   UNL     1      -1.503   2.266  11.814  0.00  0.00    -0.086 HD
ATOM     14  H   UNL     1      -0.656   0.955  11.290  0.00  0.00    -0.086 HD
ENDROOT
BRANCH  11  15
ATOM     15  C   UNL     1      -0.491   5.426   6.282  0.00  0.00    +0.037 A 
ATOM     16  C   UNL     1      -0.587   5.964   7.567  0.00  0.00    +0.013 A 
ATOM     17  C   UNL     1      -1.556   6.906   7.846  0.00  0.00    +0.013 A 
ATOM     18  C   UNL     1      -2.431   7.317   6.856  0.00  0.00    +0.055 A 
ATOM     19  C   UNL     1      -2.341   6.788   5.581  0.00  0.00    +0.013 A 
ATOM     20  C   UNL     1      -1.373   5.850   5.287  0.00  0.00    +0.013 A 
BRANCH  18  21
ATOM     21  C   UNL     1      -3.487   8.346   7.168  0.00  0.00    +0.417 C 
ATOM     22  F   UNL     1      -2.977   9.626   6.926  0.00  0.00    -0.166 F 
ATOM     23  F   UNL     1      -4.605   8.128   6.357  0.00  0.00    -0.166 F 
ATOM     24  F   UNL     1      -3.858   8.240   8.513  0.00  0.00    -0.166 F 
ENDBRANCH  18  21
ENDBRANCH  11  15
BRANCH   1  26
ATOM     25  N   UNL     1       1.242  -0.768   7.546  0.00  0.00    -0.315 N 
ATOM     26  C   UNL     1       1.222   0.489   7.060  0.00  0.00    +0.218 C 
ATOM     27  O   UNL     1       0.677   0.721   6.001  0.00  0.00    -0.275 OA
ATOM     28  H   UNL     1       1.678  -0.954   8.392  0.00  0.00    +0.149 HD
BRANCH  25  29
ATOM     29  C   UNL     1       0.607  -1.854   6.795  0.00  0.00    +0.109 C 
BRANCH  29  30
ATOM     30  C   UNL     1       0.773  -3.168   7.561  0.00  0.00    +0.057 C 
BRANCH  30  36
ATOM     31  C   UNL     1       0.819  -4.937   5.784  0.00  0.00    +0.124 A 
ATOM     32  C   UNL     1       0.217  -5.969   5.079  0.00  0.00    +0.046 A 
ATOM     33  C   UNL     1      -1.080  -6.341   5.375  0.00  0.00    +0.004 A 
ATOM     34  C   UNL     1      -1.778  -5.686   6.373  0.00  0.00    +0.000 A 
ATOM     35  C   UNL     1      -1.180  -4.658   7.077  0.00  0.00    +0.007 A 
ATOM     36  C   UNL     1       0.119  -4.286   6.789  0.00  0.00    -0.004 A 
BRANCH  31  37
ATOM     37  O   UNL     1       2.095  -4.570   5.495  0.00  0.00    -0.492 OA
BRANCH  37  39
ATOM     38  C   UNL     1       4.172  -4.734   4.269  0.00  0.00    +0.048 C 
ATOM     39  C   UNL     1       2.755  -5.285   4.449  0.00  0.00    +0.225 C 
ENDBRANCH  37  39
ENDBRANCH  31  37
ENDBRANCH  30  36
ENDBRANCH  29  30
ENDBRANCH  25  29
ENDBRANCH   1  26
TORSDOF 8
