REMARK  Name = ZINC35987335
REMARK  9 active torsions:
REMARK  status: ('A' for Active; 'I' for Inactive)
REMARK    1  A    between atoms: C_1  and  C_2
REMARK    2  A    between atoms: C_7  and  C_8
REMARK    3  A    between atoms: C_11  and  C_30
REMARK    4  A    between atoms: C_21  and  C_23
REMARK    5  A    between atoms: N_32  and  C_33
REMARK    6  A    between atoms: C_33  and  C_34
REMARK    7  A    between atoms: C_34  and  N_35
REMARK    8  A    between atoms: N_35  and  C_36
REMARK    9  A    between atoms: N_35  and  C_37
REMARK                            x       y       z     vdW  Elec       q    Type
REMARK                         _______ _______ _______ _____ _____    ______ ____
ROOT
ATOM      1  C   UNL     1       1.112  -0.380   2.504  0.00  0.00    +0.250 C 
ATOM      2  O   UNL     1       1.107   0.729   2.005  0.00  0.00    -0.270 OA
ATOM      3  N   UNL     1       0.774  -0.537   3.799  0.00  0.00    -0.255 N 
ATOM      4  C   UNL     1       0.714  -1.809   4.554  0.00  0.00    +0.190 C 
ATOM      5  C   UNL     1      -0.222  -1.459   5.738  0.00  0.00    +0.194 C 
ATOM      6  O   UNL     1       0.141  -0.088   6.025  0.00  0.00    -0.353 OA
ATOM      7  C   UNL     1       0.398   0.519   4.750  0.00  0.00    +0.142 C 
ATOM      8  C   UNL     1       1.541   1.526   4.880  0.00  0.00    +0.074 C 
ATOM      9  C   UNL     1       1.828   2.148   3.510  0.00  0.00    +0.112 C 
ATOM     10  N   UNL     1       0.581   2.710   2.975  0.00  0.00    -0.297 N 
ATOM     11  C   UNL     1      -0.602   1.844   2.883  0.00  0.00    +0.112 C 
ATOM     12  C   UNL     1      -0.868   1.225   4.260  0.00  0.00    +0.074 C 
ATOM     13  C   UNL     1       0.523   3.996   2.575  0.00  0.00    +0.247 C 
ATOM     14  O   UNL     1      -0.537   4.476   2.222  0.00  0.00    -0.270 OA
ENDROOT
BRANCH   1  21
ATOM     15  C   UNL     1      -0.072  -0.747  -0.111  0.00  0.00    +0.044 C 
ATOM     16  C   UNL     1       0.924  -1.742   0.427  0.00  0.00    -0.038 A 
ATOM     17  C   UNL     1       1.284  -2.838  -0.331  0.00  0.00    +0.004 A 
ATOM     18  C   UNL     1       2.197  -3.753   0.162  0.00  0.00    +0.000 A 
ATOM     19  C   UNL     1       2.756  -3.576   1.415  0.00  0.00    +0.001 A 
ATOM     20  C   UNL     1       2.406  -2.484   2.182  0.00  0.00    +0.013 A 
ATOM     21  C   UNL     1       1.488  -1.555   1.689  0.00  0.00    +0.040 A 
ENDBRANCH   1  21
BRANCH  13  22
ATOM     22  C   UNL     1       1.747   4.823   2.567  0.00  0.00    +0.037 A 
ATOM     23  C   UNL     1       1.701   6.149   3.004  0.00  0.00    +0.016 A 
ATOM     24  C   UNL     1       2.846   6.915   2.993  0.00  0.00    +0.039 A 
ATOM     25  C   UNL     1       4.042   6.373   2.550  0.00  0.00    +0.123 A 
ATOM     26  C   UNL     1       4.094   5.058   2.115  0.00  0.00    +0.039 A 
ATOM     27  C   UNL     1       2.956   4.280   2.127  0.00  0.00    +0.016 A 
ATOM     28  F   UNL     1       5.162   7.130   2.541  0.00  0.00    -0.205 F 
ENDBRANCH  13  22
BRANCH   4  29
ATOM     29  C   UNL     1       0.122  -2.906   3.707  0.00  0.00    +0.236 C 
ATOM     30  O   UNL     1      -0.675  -2.635   2.834  0.00  0.00    -0.274 OA
ATOM     31  N   UNL     1       0.480  -4.188   3.918  0.00  0.00    -0.315 N 
ATOM     32  H   UNL     1       1.118  -4.405   4.616  0.00  0.00    +0.149 HD
BRANCH  31  33
ATOM     33  C   UNL     1      -0.095  -5.254   3.095  0.00  0.00    +0.085 C 
BRANCH  33  34
ATOM     34  C   UNL     1       0.474  -6.604   3.538  0.00  0.00    -0.061 C 
BRANCH  34  35
ATOM     35  N   UNL     1      -0.103  -7.673   2.712  0.00  0.00    +0.377 N 
ATOM     36  C   UNL     1       0.334  -7.505   1.319  0.00  0.00    -0.097 C 
ATOM     37  C   UNL     1       0.350  -8.977   3.213  0.00  0.00    -0.097 C 
ATOM     38  H   UNL     1      -1.110  -7.627   2.756  0.00  0.00    -0.083 HD
ENDBRANCH  34  35
ENDBRANCH  33  34
ENDBRANCH  31  33
ENDBRANCH   4  29
TORSDOF 6
