REMARK  Name = ZINC63617079
REMARK  7 active torsions:
REMARK  status: ('A' for Active; 'I' for Inactive)
REMARK    1  A    between atoms: C_7  and  C_10
REMARK    2  A    between atoms: C_10  and  C_11
REMARK    3  A    between atoms: N_13  and  C_14
REMARK    4  A    between atoms: N_13  and  C_20
REMARK    5  A    between atoms: C_14  and  C_15
REMARK    6  A    between atoms: C_20  and  C_26
REMARK    7  A    between atoms: N_28  and  C_29
REMARK                            x       y       z     vdW  Elec       q    Type
REMARK                         _______ _______ _______ _____ _____    ______ ____
ROOT
ATOM      1  C   UNL     1       0.978  -3.455  -1.076  0.00  0.00    +0.221 C 
ATOM      2  O   UNL     1       1.649  -2.962  -1.958  0.00  0.00    -0.275 OA
ATOM      3  N   UNL     1       0.037  -4.371  -1.377  0.00  0.00    -0.282 N 
ENDROOT
BRANCH   3   4
ATOM      4  C   UNL     1      -0.271  -4.672  -2.777  0.00  0.00    +0.114 C 
ATOM      5  C   UNL     1      -1.789  -4.713  -2.968  0.00  0.00    +0.035 C 
ATOM      6  C   UNL     1      -2.386  -3.354  -2.595  0.00  0.00    +0.003 C 
ATOM      7  C   UNL     1      -1.788  -2.270  -3.494  0.00  0.00    +0.000 C 
ATOM      8  C   UNL     1      -0.270  -2.230  -3.303  0.00  0.00    +0.003 C 
ATOM      9  C   UNL     1       0.327  -3.588  -3.675  0.00  0.00    +0.035 C 
BRANCH   4  10
ATOM     10  C   UNL     1       0.317  -6.010  -3.144  0.00  0.00    +0.237 C 
ATOM     11  O   UNL     1       1.021  -6.114  -4.126  0.00  0.00    -0.273 OA
ATOM     12  N   UNL     1       0.061  -7.091  -2.381  0.00  0.00    -0.311 N 
ATOM     13  H   UNL     1      -0.570  -7.028  -1.647  0.00  0.00    +0.149 HD
BRANCH  12  14
ATOM     14  C   UNL     1       0.736  -8.361  -2.660  0.00  0.00    +0.073 C 
ATOM     15  C   UNL     1      -0.036  -9.123  -3.739  0.00  0.00    +0.022 C 
ATOM     16  C   UNL     1       0.668 -10.449  -4.030  0.00  0.00    +0.002 C 
ATOM     17  C   UNL     1       0.722 -11.289  -2.753  0.00  0.00    +0.000 C 
ATOM     18  C   UNL     1       1.495 -10.528  -1.674  0.00  0.00    +0.002 C 
ATOM     19  C   UNL     1       0.790  -9.201  -1.382  0.00  0.00    +0.022 C 
ENDBRANCH  12  14
ENDBRANCH   4  10
ENDBRANCH   3   4
BRANCH   1  20
ATOM     20  C   UNL     1       1.198  -3.042   0.357  0.00  0.00    +0.129 C 
BRANCH  20  27
ATOM     21  C   UNL     1       1.153   1.546   0.421  0.00  0.00    +0.001 A 
ATOM     22  C   UNL     1       2.430   2.119   0.485  0.00  0.00    +0.002 A 
ATOM     23  C   UNL     1       3.560   1.381   0.525  0.00  0.00    +0.026 A 
ATOM     24  C   UNL     1       3.492  -0.039   0.502  0.00  0.00    +0.043 A 
ATOM     25  N   UNL     1       4.426  -0.958   0.529  0.00  0.00    -0.380 N 
ATOM     26  C   UNL     1       3.786  -2.277   0.482  0.00  0.00    +0.145 C 
ATOM     27  C   UNL     1       2.298  -2.014   0.421  0.00  0.00    -0.033 C 
ATOM     28  C   UNL     1       2.154  -0.670   0.434  0.00  0.00    -0.001 A 
ATOM     29  C   UNL     1       0.976   0.205   0.395  0.00  0.00    +0.010 A 
ATOM     30  H   UNL     1       5.381  -0.794   0.573  0.00  0.00    +0.160 HD
ENDBRANCH  20  27
ENDBRANCH   1  20
BRANCH   3  31
ATOM     31  C   UNL     1      -0.679  -5.065  -0.303  0.00  0.00    +0.151 C 
BRANCH  31  32
ATOM     32  C   UNL     1      -1.848  -4.227   0.146  0.00  0.00    +0.007 A 
ATOM     33  C   UNL     1      -3.152  -4.318  -0.212  0.00  0.00    +0.013 A 
ATOM     34  C   UNL     1      -4.061  -3.432   0.334  0.00  0.00    +0.008 A 
ATOM     35  C   UNL     1      -3.621  -2.497   1.212  0.00  0.00    +0.045 A 
ATOM     36  S   UNL     1      -1.875  -2.860   1.294  0.00  0.00    -0.100 S 
ENDBRANCH  31  32
ENDBRANCH   3  31
TORSDOF 7
