REMARK  Name = ZINC02788549
REMARK  10 active torsions:
REMARK  status: ('A' for Active; 'I' for Inactive)
REMARK    1  A    between atoms: C_1  and  C_2
REMARK    2  A    between atoms: C_3  and  C_32
REMARK    3  A    between atoms: C_4  and  C_25
REMARK    4  A    between atoms: C_10  and  C_15
REMARK    5  A    between atoms: C_18  and  O_23
REMARK    6  A    between atoms: C_19  and  O_21
REMARK    7  A    between atoms: O_21  and  C_22
REMARK    8  A    between atoms: O_23  and  C_24
REMARK    9  A    between atoms: C_32  and  O_34
REMARK   10  A    between atoms: O_34  and  C_35
REMARK                            x       y       z     vdW  Elec       q    Type
REMARK                         _______ _______ _______ _____ _____    ______ ____
ROOT
ATOM      1  C   UNL     1       0.197  -4.199   0.796  0.00  0.00    +0.061 C 
ATOM      2  C   UNL     1       0.064  -2.756   0.384  0.00  0.00    +0.016 C 
ATOM      3  C   UNL     1      -1.145  -2.168   0.394  0.00  0.00    +0.065 C 
ATOM      4  C   UNL     1      -1.317  -0.735  -0.018  0.00  0.00    +0.092 C 
ATOM      5  C   UNL     1       0.002  -0.004   0.002  0.00  0.00    +0.024 C 
ATOM      6  C   UNL     1       1.168  -0.685   0.009  0.00  0.00    +0.016 C 
ATOM      7  N   UNL     1       1.173  -2.054   0.002  0.00  0.00    -0.321 N 
ATOM      8  C   UNL     1       2.491   0.039   0.026  0.00  0.00    +0.059 C 
ATOM      9  C   UNL     1       2.352   1.381  -0.696  0.00  0.00    +0.032 C 
ATOM     10  C   UNL     1       1.260   2.198   0.002  0.00  0.00    +0.088 C 
ATOM     11  C   UNL     1      -0.017   1.402   0.010  0.00  0.00    +0.162 C 
ATOM     12  O   UNL     1      -1.083   1.984   0.018  0.00  0.00    -0.292 OA
ATOM     13  H   UNL     1       2.080  -2.589  -0.314  0.00  0.00    +0.152 HD
ENDROOT
BRANCH   4  14
ATOM     14  C   UNL     1      -1.889  -0.686  -1.412  0.00  0.00    -0.035 A 
ATOM     15  C   UNL     1      -1.180  -1.227  -2.468  0.00  0.00    +0.007 A 
ATOM     16  C   UNL     1      -1.706  -1.187  -3.746  0.00  0.00    +0.038 A 
ATOM     17  C   UNL     1      -2.937  -0.595  -3.969  0.00  0.00    +0.123 A 
ATOM     18  C   UNL     1      -3.643  -0.049  -2.911  0.00  0.00    +0.038 A 
ATOM     19  C   UNL     1      -3.119  -0.095  -1.633  0.00  0.00    +0.007 A 
ATOM     20  F   UNL     1      -3.449  -0.550  -5.218  0.00  0.00    -0.205 F 
ENDBRANCH   4  14
BRANCH   9  21
ATOM     21  C   UNL     1       3.660   2.127  -0.634  0.00  0.00    -0.040 A 
ATOM     22  C   UNL     1       4.202   2.470   0.591  0.00  0.00    +0.008 A 
ATOM     23  C   UNL     1       5.404   3.149   0.653  0.00  0.00    +0.049 A 
ATOM     24  C   UNL     1       6.063   3.499  -0.515  0.00  0.00    +0.161 A 
ATOM     25  C   UNL     1       5.515   3.160  -1.748  0.00  0.00    +0.162 A 
ATOM     26  C   UNL     1       4.312   2.473  -1.803  0.00  0.00    +0.053 A 
BRANCH  25  27
ATOM     27  O   UNL     1       6.158   3.500  -2.897  0.00  0.00    -0.491 OA
ATOM     28  C   UNL     1       5.537   3.119  -4.126  0.00  0.00    +0.277 C 
ENDBRANCH  25  27
BRANCH  24  29
ATOM     29  O   UNL     1       7.243   4.173  -0.456  0.00  0.00    -0.491 OA
ATOM     30  C   UNL     1       7.745   4.488   0.844  0.00  0.00    +0.277 C 
ENDBRANCH  24  29
ENDBRANCH   9  21
BRANCH   3  31
ATOM     31  C   UNL     1      -2.276  -2.913   0.801  0.00  0.00    +0.338 C 
ATOM     32  O   UNL     1      -2.150  -4.076   1.137  0.00  0.00    -0.245 OA
BRANCH  31  33
ATOM     33  O   UNL     1      -3.495  -2.335   0.816  0.00  0.00    -0.458 OA
BRANCH  33  34
ATOM     34  C   UNL     1      -4.593  -3.147   1.237  0.00  0.00    +0.177 C 
ATOM     35  C   UNL     1      -5.248  -3.826   0.017  0.00  0.00    +0.044 C 
ATOM     36  C   UNL     1      -6.762  -3.817   0.345  0.00  0.00    +0.004 C 
ATOM     37  C   UNL     1      -6.954  -2.446   1.040  0.00  0.00    +0.004 C 
ATOM     38  C   UNL     1      -5.678  -2.270   1.888  0.00  0.00    +0.044 C 
ENDBRANCH  33  34
ENDBRANCH  31  33
ENDBRANCH   3  31
TORSDOF 7
