REMARK  Name = ZINC09886393
REMARK  11 active torsions:
REMARK  status: ('A' for Active; 'I' for Inactive)
REMARK    1  A    between atoms: C_1  and  C_2
REMARK    2  A    between atoms: C_2  and  C_3
REMARK    3  A    between atoms: C_2  and  C_4
REMARK    4  A    between atoms: C_4  and  C_6
REMARK    5  A    between atoms: C_4  and  N_26
REMARK    6  A    between atoms: N_8  and  N_9
REMARK    7  A    between atoms: C_10  and  C_11
REMARK    8  A    between atoms: C_13  and  N_23
REMARK    9  A    between atoms: C_16  and  N_17
REMARK   10  A    between atoms: C_22  and  N_64
REMARK   11  A    between atoms: C_27  and  C_29
REMARK                            x       y       z     vdW  Elec       q    Type
REMARK                         _______ _______ _______ _____ _____    ______ ____
ROOT
ATOM      1  C   UNL     1      -0.540   3.555   1.474  0.00  0.00    +0.253 C 
ATOM      2  O   UNL     1      -1.583   4.078   1.808  0.00  0.00    -0.272 OA
ATOM      3  N   UNL     1       0.494   4.315   1.066  0.00  0.00    -0.205 N 
ATOM      4  H   UNL     1       1.352   3.904   0.873  0.00  0.00    +0.177 HD
ENDROOT
BRANCH   3   5
ATOM      5  N   UNL     1       0.332   5.699   0.920  0.00  0.00    -0.188 NA
ATOM      6  C   UNL     1       1.329   6.432   0.527  0.00  0.00    +0.140 C 
BRANCH   6   7
ATOM      7  C   UNL     1       1.159   7.887   0.374  0.00  0.00    +0.018 A 
ATOM      8  C   UNL     1       2.230   8.680  -0.043  0.00  0.00    +0.044 A 
ATOM      9  C   UNL     1       2.063  10.041  -0.190  0.00  0.00    +0.127 A 
ATOM     10  C   UNL     1       0.839  10.628   0.086  0.00  0.00    +0.034 A 
ATOM     11  C   UNL     1      -0.228   9.857   0.505  0.00  0.00    +0.026 A 
ATOM     12  C   UNL     1      -0.079   8.486   0.652  0.00  0.00    +0.038 A 
BRANCH  12  13
ATOM     13  N   UNL     1      -1.155   7.707   1.075  0.00  0.00    -0.333 N 
ATOM     14  C   UNL     1      -2.250   7.745   0.096  0.00  0.00    +0.086 C 
ATOM     15  C   UNL     1      -3.376   6.817   0.557  0.00  0.00    -0.060 C 
ATOM     16  C   UNL     1      -2.749   7.202   2.863  0.00  0.00    -0.060 C 
ATOM     17  C   UNL     1      -1.623   8.131   2.402  0.00  0.00    +0.086 C 
ATOM     18  C   UNL     1      -4.978   6.420   2.329  0.00  0.00    -0.096 C 
ATOM     19  N   UNL     1      -3.852   7.268   1.881  0.00  0.00    +0.380 N 
ATOM     20  H   UNL     1      -4.176   8.239   1.806  0.00  0.00    -0.082 HD
ENDBRANCH  12  13
BRANCH   9  21
ATOM     21  N   UNL     1       3.198  10.879  -0.638  0.00  0.00    +0.056 N 
ATOM     22  O   UNL     1       3.054  12.082  -0.764  0.00  0.00    -0.126 OA
ATOM     23  O   UNL     1       4.275  10.365  -0.881  0.00  0.00    -0.126 OA
ENDBRANCH   9  21
ENDBRANCH   6   7
ENDBRANCH   3   5
BRANCH   1  24
ATOM     24  C   UNL     1      -0.403   2.055   1.517  0.00  0.00    +0.163 C 
BRANCH  24  25
ATOM     25  N   UNL     1      -1.476   1.489   2.337  0.00  0.00    -0.300 N 
ATOM     26  C   UNL     1      -1.307   0.293   2.937  0.00  0.00    +0.245 C 
ATOM     27  O   UNL     1      -0.264  -0.315   2.797  0.00  0.00    -0.270 OA
ATOM     28  H   UNL     1      -2.308   1.974   2.450  0.00  0.00    +0.150 HD
BRANCH  26  29
ATOM     29  C   UNL     1      -2.390  -0.277   3.765  0.00  0.00    +0.037 A 
ATOM     30  C   UNL     1      -3.587   0.422   3.933  0.00  0.00    +0.014 A 
ATOM     31  C   UNL     1      -4.596  -0.119   4.701  0.00  0.00    +0.021 A 
ATOM     32  C   UNL     1      -4.419  -1.348   5.317  0.00  0.00    +0.041 A 
ATOM     33  C   UNL     1      -3.232  -2.043   5.159  0.00  0.00    +0.021 A 
ATOM     34  C   UNL     1      -2.218  -1.515   4.388  0.00  0.00    +0.014 A 
ATOM     35 CL   UNL     1      -5.691  -2.018   6.289  0.00  0.00    -0.084 Cl
ENDBRANCH  26  29
ENDBRANCH  24  25
BRANCH  24  37
ATOM     36  C   UNL     1      -1.884   1.790  -0.478  0.00  0.00    +0.009 C 
ATOM     37  C   UNL     1      -0.497   1.494   0.096  0.00  0.00    +0.012 C 
ATOM     38  C   UNL     1      -0.271  -0.019   0.130  0.00  0.00    +0.009 C 
ENDBRANCH  24  37
ENDBRANCH   1  24
TORSDOF 8
