REMARK  Name = ZINC17161750
REMARK  7 active torsions:
REMARK  status: ('A' for Active; 'I' for Inactive)
REMARK    1  A    between atoms: C_1  and  C_2
REMARK    2  A    between atoms: C_2  and  C_3
REMARK    3  A    between atoms: C_3  and  N_4
REMARK    4  A    between atoms: C_13  and  C_15
REMARK    5  A    between atoms: N_17  and  N_18
REMARK    6  A    between atoms: C_19  and  C_21
REMARK    7  A    between atoms: C_22  and  C_34
REMARK                            x       y       z     vdW  Elec       q    Type
REMARK                         _______ _______ _______ _____ _____    ______ ____
ROOT
ATOM      1  C   UNL     1      -1.457  -4.532   2.535  0.00  0.00    +0.281 C 
ATOM      2  O   UNL     1      -1.543  -5.743   2.589  0.00  0.00    -0.267 OA
ATOM      3  N   UNL     1      -2.413  -3.763   3.092  0.00  0.00    -0.229 N 
ATOM      4  H   UNL     1      -2.345  -2.796   3.049  0.00  0.00    +0.173 HD
ENDROOT
BRANCH   1  14
ATOM      5  N   UNL     1       0.762  -1.976   1.234  0.00  0.00    -0.228 N 
ATOM      6  C   UNL     1       1.797  -2.597   0.631  0.00  0.00    +0.275 A 
ATOM      7  O   UNL     1       2.690  -1.955   0.108  0.00  0.00    -0.266 OA
ATOM      8  C   UNL     1       1.821  -4.066   0.620  0.00  0.00    +0.050 A 
ATOM      9  C   UNL     1       2.842  -4.801   0.025  0.00  0.00    +0.014 A 
ATOM     10  C   UNL     1       2.791  -6.178   0.058  0.00  0.00    +0.001 A 
ATOM     11  C   UNL     1       1.735  -6.834   0.676  0.00  0.00    +0.001 A 
ATOM     12  C   UNL     1       0.713  -6.125   1.270  0.00  0.00    +0.011 A 
ATOM     13  C   UNL     1       0.746  -4.734   1.250  0.00  0.00    +0.020 A 
ATOM     14  C   UNL     1      -0.304  -3.903   1.861  0.00  0.00    +0.155 A 
ATOM     15  N   UNL     1      -0.200  -2.597   1.803  0.00  0.00    -0.163 NA
BRANCH   5  16
ATOM     16  C   UNL     1       0.742  -0.511   1.242  0.00  0.00    +0.147 C 
BRANCH  16  18
ATOM     17  C   UNL     1      -0.019   1.526   0.010  0.00  0.00    +0.005 C 
ATOM     18  C   UNL     1       0.002  -0.004   0.002  0.00  0.00    +0.020 C 
ENDBRANCH  16  18
ENDBRANCH   5  16
ENDBRANCH   1  14
BRANCH   3  19
ATOM     19  N   UNL     1      -3.507  -4.359   3.732  0.00  0.00    -0.228 N 
ATOM     20  C   UNL     1      -4.464  -3.590   4.289  0.00  0.00    +0.296 C 
ATOM     21  O   UNL     1      -4.378  -2.378   4.235  0.00  0.00    -0.265 OA
ATOM     22  H   UNL     1      -3.576  -5.326   3.775  0.00  0.00    +0.173 HD
BRANCH  20  23
ATOM     23  C   UNL     1      -5.611  -4.216   4.960  0.00  0.00    +0.195 A 
ATOM     24  C   UNL     1      -6.637  -3.549   5.551  0.00  0.00    +0.008 A 
ATOM     25  C   UNL     1      -7.519  -4.528   6.071  0.00  0.00    +0.024 A 
ATOM     26  C   UNL     1      -8.737  -4.453   6.779  0.00  0.00    +0.012 A 
ATOM     27  C   UNL     1      -9.384  -5.577   7.165  0.00  0.00    +0.009 A 
ATOM     28  C   UNL     1      -8.849  -6.848   6.863  0.00  0.00    -0.014 A 
ATOM     29  C   UNL     1      -9.511  -8.020   7.258  0.00  0.00    +0.008 A 
ATOM     30  C   UNL     1      -8.974  -9.235   6.955  0.00  0.00    +0.001 A 
ATOM     31  C   UNL     1      -7.773  -9.333   6.257  0.00  0.00    +0.001 A 
ATOM     32  C   UNL     1      -7.103  -8.215   5.859  0.00  0.00    +0.012 A 
ATOM     33  C   UNL     1      -7.628  -6.948   6.154  0.00  0.00    +0.025 A 
ATOM     34  C   UNL     1      -6.959  -5.770   5.755  0.00  0.00    +0.144 A 
ATOM     35  O   UNL     1      -5.816  -5.545   5.082  0.00  0.00    -0.449 OA
ATOM     36  C   UNL     1      -6.804  -2.053   5.637  0.00  0.00    +0.048 C 
ENDBRANCH  20  23
ENDBRANCH   3  19
TORSDOF 5
