REMARK  Name = ZINC04964462
REMARK  9 active torsions:
REMARK  status: ('A' for Active; 'I' for Inactive)
REMARK    1  A    between atoms: C_1  and  C_2
REMARK    2  A    between atoms: C_2  and  C_3
REMARK    3  A    between atoms: C_3  and  C_4
REMARK    4  A    between atoms: C_4  and  C_20
REMARK    5  A    between atoms: N_5  and  N_6
REMARK    6  A    between atoms: N_6  and  C_7
REMARK    7  A    between atoms: C_10  and  S_16
REMARK    8  A    between atoms: C_12  and  N_13
REMARK    9  A    between atoms: S_16  and  N_19
REMARK                            x       y       z     vdW  Elec       q    Type
REMARK                         _______ _______ _______ _____ _____    ______ ____
ROOT
ATOM      1  C   UNL     1      -1.228   1.648   0.003  0.00  0.00    +0.079 A 
ATOM      2  C   UNL     1      -1.251   3.034   0.110  0.00  0.00    +0.029 A 
ATOM      3  C   UNL     1      -2.458   3.703   0.132  0.00  0.00    +0.030 A 
ATOM      4  C   UNL     1      -3.644   2.997   0.048  0.00  0.00    +0.107 A 
ATOM      5  C   UNL     1      -3.626   1.618  -0.058  0.00  0.00    +0.063 A 
ATOM      6  C   UNL     1      -2.422   0.942  -0.086  0.00  0.00    +0.150 A 
ENDROOT
BRANCH   6   7
ATOM      7  N   UNL     1      -2.403  -0.533  -0.206  0.00  0.00    +0.058 N 
ATOM      8  O   UNL     1      -3.442  -1.143  -0.388  0.00  0.00    -0.126 OA
ATOM      9  O   UNL     1      -1.349  -1.138  -0.123  0.00  0.00    -0.126 OA
ENDBRANCH   6   7
BRANCH   4  10
ATOM     10  S   UNL     1      -5.183   3.856   0.078  0.00  0.00    +0.056 S 
ATOM     11  O   UNL     1      -6.157   2.928   0.534  0.00  0.00    -0.153 OA
ATOM     12  O   UNL     1      -4.944   5.094   0.732  0.00  0.00    -0.153 OA
BRANCH  10  13
ATOM     13  N   UNL     1      -5.572   4.217  -1.491  0.00  0.00    -0.204 NA
ATOM     14  H   UNL     1      -4.979   3.951  -2.211  0.00  0.00    +0.144 HD
ATOM     15  H   UNL     1      -6.392   4.694  -1.690  0.00  0.00    +0.144 HD
ENDBRANCH  10  13
ENDBRANCH   4  10
BRANCH   1  16
ATOM     16  N   UNL     1      -0.010   0.968  -0.020  0.00  0.00    -0.235 N 
ATOM     17  H   UNL     1       0.004  -0.002  -0.019  0.00  0.00    +0.174 HD
BRANCH  16  19
ATOM     18  C   UNL     1       2.326   1.053  -0.078  0.00  0.00    +0.066 C 
ATOM     19  N   UNL     1       1.192   1.686  -0.051  0.00  0.00    -0.186 NA
BRANCH  18  20
ATOM     20  C   UNL     1       3.591   1.809  -0.111  0.00  0.00    -0.002 A 
ATOM     21  C   UNL     1       4.813   1.131  -0.134  0.00  0.00    +0.010 A 
ATOM     22  C   UNL     1       5.993   1.845  -0.170  0.00  0.00    +0.001 A 
ATOM     23  C   UNL     1       5.969   3.228  -0.172  0.00  0.00    +0.000 A 
ATOM     24  C   UNL     1       4.763   3.906  -0.144  0.00  0.00    +0.001 A 
ATOM     25  C   UNL     1       3.575   3.206  -0.113  0.00  0.00    +0.010 A 
ENDBRANCH  18  20
BRANCH  18  26
ATOM     26  C   UNL     1       2.348  -0.454  -0.076  0.00  0.00    +0.057 C 
BRANCH  26  28
ATOM     27  C   UNL     1       2.342  -2.496  -1.515  0.00  0.00    +0.004 C 
ATOM     28  C   UNL     1       2.319  -0.966  -1.517  0.00  0.00    +0.003 C 
ENDBRANCH  26  28
ENDBRANCH  18  26
ENDBRANCH  16  19
ENDBRANCH   1  16
TORSDOF 8
