REMARK  Name = ZINC14014047
REMARK  8 active torsions:
REMARK  status: ('A' for Active; 'I' for Inactive)
REMARK    1  A    between atoms: C_1  and  C_2
REMARK    2  A    between atoms: C_5  and  N_9
REMARK    3  A    between atoms: C_6  and  C_8
REMARK    4  A    between atoms: C_21  and  C_23
REMARK    5  A    between atoms: C_23  and  C_24
REMARK    6  A    between atoms: N_26  and  C_27
REMARK    7  A    between atoms: C_27  and  C_28
REMARK    8  A    between atoms: C_27  and  C_34
REMARK                            x       y       z     vdW  Elec       q    Type
REMARK                         _______ _______ _______ _____ _____    ______ ____
ROOT
ATOM      1  N   UNL     1      -4.002   4.215  -4.998  0.00  0.00    -0.214 N 
ATOM      2  C   UNL     1      -4.181   3.683  -3.758  0.00  0.00    +0.171 A 
ATOM      3  C   UNL     1      -2.972   3.856  -3.064  0.00  0.00    +0.103 A 
ATOM      4  C   UNL     1      -2.082   4.507  -3.944  0.00  0.00    +0.150 A 
ATOM      5  N   UNL     1      -2.695   4.713  -5.076  0.00  0.00    -0.172 NA
ATOM      6  C   UNL     1      -2.877   3.389  -1.735  0.00  0.00    +0.266 A 
ATOM      7  O   UNL     1      -1.839   3.528  -1.112  0.00  0.00    -0.267 OA
ATOM      8  N   UNL     1      -3.956   2.780  -1.146  0.00  0.00    -0.283 N 
ATOM      9  C   UNL     1      -5.091   2.654  -1.895  0.00  0.00    +0.174 A 
ATOM     10  N   UNL     1      -5.198   3.082  -3.133  0.00  0.00    -0.203 NA
ATOM     11  S   UNL     1      -6.295   1.835  -0.870  0.00  0.00    -0.085 S 
ATOM     12  C   UNL     1      -5.295   1.621   0.649  0.00  0.00    +0.103 C 
ATOM     13  C   UNL     1      -3.967   2.260   0.221  0.00  0.00    +0.112 C 
ENDROOT
BRANCH   1  18
ATOM     14  C   UNL     1      -7.878   4.383  -9.139  0.00  0.00    +0.044 C 
ATOM     15  C   UNL     1      -6.848   4.338  -8.040  0.00  0.00    -0.050 A 
ATOM     16  C   UNL     1      -7.118   3.651  -6.869  0.00  0.00    +0.005 A 
ATOM     17  C   UNL     1      -6.177   3.609  -5.860  0.00  0.00    +0.028 A 
ATOM     18  C   UNL     1      -4.958   4.255  -6.021  0.00  0.00    +0.071 A 
ATOM     19  C   UNL     1      -4.692   4.947  -7.195  0.00  0.00    -0.025 A 
ATOM     20  C   UNL     1      -5.636   4.982  -8.203  0.00  0.00    +0.008 A 
ATOM     21  C   UNL     1      -3.374   5.655  -7.371  0.00  0.00    +0.046 C 
ENDBRANCH   1  18
BRANCH  13  22
ATOM     22  C   UNL     1      -2.860   1.212   0.350  0.00  0.00    +0.121 C 
BRANCH  22  23
ATOM     23  C   UNL     1      -2.728   0.796   1.793  0.00  0.00    +0.216 C 
ATOM     24  O   UNL     1      -3.409   1.329   2.642  0.00  0.00    -0.276 OA
ATOM     25  N   UNL     1      -1.853  -0.169   2.139  0.00  0.00    -0.304 N 
ATOM     26  H   UNL     1      -1.307  -0.595   1.459  0.00  0.00    +0.150 HD
BRANCH  25  27
ATOM     27  C   UNL     1      -1.720  -0.569   3.542  0.00  0.00    +0.134 C 
BRANCH  27  28
ATOM     28  C   UNL     1      -1.196  -1.980   3.614  0.00  0.00    -0.023 A 
ATOM     29  C   UNL     1      -0.214  -2.399   2.736  0.00  0.00    +0.006 A 
ATOM     30  C   UNL     1       0.270  -3.692   2.806  0.00  0.00    +0.000 A 
ATOM     31  C   UNL     1      -0.235  -4.569   3.747  0.00  0.00    +0.000 A 
ATOM     32  C   UNL     1      -1.221  -4.152   4.622  0.00  0.00    +0.000 A 
ATOM     33  C   UNL     1      -1.701  -2.857   4.555  0.00  0.00    +0.006 A 
ENDBRANCH  27  28
BRANCH  27  34
ATOM     34  C   UNL     1      -0.760   0.360   4.240  0.00  0.00    -0.023 A 
ATOM     35  C   UNL     1       0.386   0.783   3.593  0.00  0.00    +0.006 A 
ATOM     36  C   UNL     1       1.264   1.639   4.232  0.00  0.00    +0.000 A 
ATOM     37  C   UNL     1       1.001   2.063   5.521  0.00  0.00    +0.000 A 
ATOM     38  C   UNL     1      -0.143   1.636   6.170  0.00  0.00    +0.000 A 
ATOM     39  C   UNL     1      -1.023   0.784   5.529  0.00  0.00    +0.006 A 
ENDBRANCH  27  34
ENDBRANCH  25  27
ENDBRANCH  22  23
ENDBRANCH  13  22
TORSDOF 6
