REMARK  Name = ZINC21934850
REMARK  8 active torsions:
REMARK  status: ('A' for Active; 'I' for Inactive)
REMARK    1  A    between atoms: C_1  and  C_2
REMARK    2  A    between atoms: C_5  and  C_8
REMARK    3  A    between atoms: C_8  and  N_9
REMARK    4  A    between atoms: C_12  and  C_15
REMARK    5  A    between atoms: C_15  and  N_16
REMARK    6  A    between atoms: C_17  and  C_19
REMARK    7  A    between atoms: C_21  and  C_30
REMARK    8  A    between atoms: C_26  and  C_29
REMARK                            x       y       z     vdW  Elec       q    Type
REMARK                         _______ _______ _______ _____ _____    ______ ____
ROOT
ATOM      1  N   UNL     1      -0.011   0.966  -0.010  0.00  0.00    -0.311 N 
ATOM      2  C   UNL     1       1.147   1.655   0.000  0.00  0.00    +0.245 C 
ATOM      3  O   UNL     1       1.130   2.871   0.022  0.00  0.00    -0.270 OA
ATOM      4  H   UNL     1       0.004  -0.134  -0.026  0.00  0.00    +0.149 HD
ENDROOT
BRANCH   2   5
ATOM      5  C   UNL     1       2.438   0.933  -0.016  0.00  0.00    +0.048 A 
ATOM      6  C   UNL     1       2.485  -0.449   0.079  0.00  0.00    +0.042 A 
ATOM      7  C   UNL     1       3.727  -1.101   0.056  0.00  0.00    +0.074 A 
ATOM      8  N   UNL     1       4.858  -0.431  -0.045  0.00  0.00    -0.247 NA
ATOM      9  C   UNL     1       4.880   0.900  -0.136  0.00  0.00    +0.072 A 
ATOM     10  C   UNL     1       3.667   1.634  -0.124  0.00  0.00    +0.013 A 
ATOM     11  C   UNL     1       3.701   3.031  -0.219  0.00  0.00    +0.014 A 
ATOM     12  C   UNL     1       4.900   3.672  -0.321  0.00  0.00    -0.050 A 
ATOM     13  C   UNL     1       6.094   2.955  -0.332  0.00  0.00    +0.005 A 
ATOM     14  C   UNL     1       6.098   1.597  -0.242  0.00  0.00    +0.028 A 
ATOM     15  C   UNL     1       4.934   5.175  -0.422  0.00  0.00    +0.044 C 
BRANCH   7  16
ATOM     16  C   UNL     1       3.770  -2.580   0.154  0.00  0.00    +0.018 A 
ATOM     17  C   UNL     1       4.993  -3.252   0.237  0.00  0.00    +0.013 A 
ATOM     18  C   UNL     1       4.979  -4.632   0.332  0.00  0.00    +0.020 A 
ATOM     19  C   UNL     1       3.766  -5.298   0.329  0.00  0.00    +0.111 A 
ATOM     20  N   UNL     1       2.628  -4.637   0.244  0.00  0.00    -0.263 NA
ATOM     21  C   UNL     1       2.591  -3.323   0.158  0.00  0.00    +0.120 A 
ENDBRANCH   7  16
ENDBRANCH   2   5
BRANCH   1  22
ATOM     22  C   UNL     1      -1.290   1.681  -0.000  0.00  0.00    +0.106 C 
BRANCH  22  26
ATOM     23  N   UNL     1      -4.748   0.679   0.734  0.00  0.00    +0.383 N 
ATOM     24  C   UNL     1      -4.046  -0.461   1.361  0.00  0.00    -0.078 C 
ATOM     25  C   UNL     1      -2.549  -0.063   1.340  0.00  0.00    -0.015 C 
ATOM     26  C   UNL     1      -2.439   0.672  -0.022  0.00  0.00    -0.012 C 
ATOM     27  C   UNL     1      -3.798   1.394  -0.138  0.00  0.00    -0.073 C 
ATOM     28  H   UNL     1      -5.121   1.362   1.512  0.00  0.00    -0.081 HD
BRANCH  23  29
ATOM     29  C   UNL     1      -5.919   0.223  -0.026  0.00  0.00    -0.043 C 
BRANCH  29  34
ATOM     30  C   UNL     1      -9.958  -1.705   3.629  0.00  0.00    +0.044 C 
ATOM     31  C   UNL     1      -8.905  -1.202   2.675  0.00  0.00    -0.050 A 
ATOM     32  C   UNL     1      -8.891   0.128   2.300  0.00  0.00    +0.003 A 
ATOM     33  C   UNL     1      -7.925   0.589   1.426  0.00  0.00    +0.002 A 
ATOM     34  C   UNL     1      -6.973  -0.280   0.927  0.00  0.00    -0.064 A 
ATOM     35  C   UNL     1      -6.990  -1.611   1.298  0.00  0.00    +0.002 A 
ATOM     36  C   UNL     1      -7.954  -2.072   2.176  0.00  0.00    +0.003 A 
ENDBRANCH  29  34
ENDBRANCH  23  29
ENDBRANCH  22  26
ENDBRANCH   1  22
TORSDOF 6
