REMARK  Name = ZINC64871794
REMARK  7 active torsions:
REMARK  status: ('A' for Active; 'I' for Inactive)
REMARK    1  A    between atoms: C_1  and  C_2
REMARK    2  A    between atoms: C_5  and  C_8
REMARK    3  A    between atoms: N_19  and  C_22
REMARK    4  A    between atoms: C_22  and  C_23
REMARK    5  A    between atoms: N_25  and  C_26
REMARK    6  A    between atoms: C_26  and  C_27
REMARK    7  A    between atoms: C_27  and  C_28
REMARK                            x       y       z     vdW  Elec       q    Type
REMARK                         _______ _______ _______ _____ _____    ______ ____
ROOT
ATOM      1  C   UNL     1       0.061  -4.251  -0.021  0.00  0.00    +0.169 A 
ATOM      2  N   UNL     1      -0.292  -5.035  -1.026  0.00  0.00    -0.128 NA
ATOM      3  N   UNL     1      -0.150  -6.270  -0.690  0.00  0.00    -0.123 NA
ATOM      4  C   UNL     1       0.300  -6.345   0.544  0.00  0.00    +0.227 A 
ATOM      5  N   UNL     1       0.451  -5.058   1.000  0.00  0.00    -0.269 N 
ATOM      6  C   UNL     1       0.923  -4.827   2.289  0.00  0.00    +0.074 A 
ATOM      7  C   UNL     1       1.074  -3.526   2.753  0.00  0.00    +0.028 A 
ATOM      8  C   UNL     1       1.542  -3.298   4.031  0.00  0.00    +0.002 A 
ATOM      9  C   UNL     1       1.863  -4.363   4.856  0.00  0.00    +0.002 A 
ATOM     10  C   UNL     1       1.718  -5.659   4.405  0.00  0.00    +0.028 A 
ATOM     11  C   UNL     1       1.247  -5.901   3.120  0.00  0.00    +0.069 A 
ATOM     12  N   UNL     1       1.102  -7.213   2.672  0.00  0.00    -0.295 N 
ATOM     13  C   UNL     1       0.640  -7.466   1.431  0.00  0.00    +0.297 A 
ATOM     14  O   UNL     1       0.517  -8.613   1.044  0.00  0.00    -0.264 OA
ENDROOT
BRANCH   1  19
ATOM     15  C   UNL     1      -0.018   1.503   0.011  0.00  0.00    +0.044 C 
ATOM     16  C   UNL     1       0.003  -0.004   0.003  0.00  0.00    -0.050 A 
ATOM     17  C   UNL     1      -1.157  -0.707  -0.270  0.00  0.00    +0.004 A 
ATOM     18  C   UNL     1      -1.145  -2.087  -0.279  0.00  0.00    +0.012 A 
ATOM     19  C   UNL     1       0.041  -2.773  -0.013  0.00  0.00    +0.020 A 
ATOM     20  C   UNL     1       1.207  -2.058   0.261  0.00  0.00    +0.012 A 
ATOM     21  C   UNL     1       1.183  -0.678   0.262  0.00  0.00    +0.004 A 
ENDBRANCH   1  19
BRANCH  12  22
ATOM     22  C   UNL     1       1.448  -8.326   3.560  0.00  0.00    +0.221 C 
BRANCH  22  23
ATOM     23  C   UNL     1       0.233  -8.728   4.357  0.00  0.00    +0.233 C 
ATOM     24  O   UNL     1      -0.817  -8.143   4.199  0.00  0.00    -0.274 OA
ATOM     25  N   UNL     1       0.315  -9.739   5.245  0.00  0.00    -0.314 N 
ATOM     26  H   UNL     1       1.155 -10.207   5.372  0.00  0.00    +0.149 HD
BRANCH  25  27
ATOM     27  C   UNL     1      -0.866 -10.130   6.020  0.00  0.00    +0.109 C 
BRANCH  27  28
ATOM     28  C   UNL     1      -0.505 -11.292   6.947  0.00  0.00    +0.054 C 
BRANCH  28  29
ATOM     29  C   UNL     1      -1.719 -11.695   7.744  0.00  0.00    -0.046 A 
ATOM     30  C   UNL     1      -1.974 -11.097   8.963  0.00  0.00    +0.004 A 
ATOM     31  C   UNL     1      -3.088 -11.466   9.694  0.00  0.00    +0.000 A 
ATOM     32  C   UNL     1      -3.947 -12.433   9.205  0.00  0.00    +0.000 A 
ATOM     33  C   UNL     1      -3.692 -13.030   7.985  0.00  0.00    +0.000 A 
ATOM     34  C   UNL     1      -2.580 -12.658   7.252  0.00  0.00    +0.004 A 
ENDBRANCH  28  29
ENDBRANCH  27  28
ENDBRANCH  25  27
ENDBRANCH  22  23
ENDBRANCH  12  22
TORSDOF 6
