REMARK  Name = ZINC40919835
REMARK  13 active torsions:
REMARK  status: ('A' for Active; 'I' for Inactive)
REMARK    1  A    between atoms: C_1  and  C_2
REMARK    2  A    between atoms: C_2  and  C_3
REMARK    3  A    between atoms: C_3  and  O_4
REMARK    4  A    between atoms: O_4  and  C_5
REMARK    5  A    between atoms: C_5  and  C_7
REMARK    6  A    between atoms: C_8  and  C_35
REMARK    7  A    between atoms: C_15  and  C_17
REMARK    8  A    between atoms: C_20  and  O_26
REMARK    9  A    between atoms: C_21  and  O_23
REMARK   10  A    between atoms: O_23  and  C_24
REMARK   11  A    between atoms: C_24  and  C_25
REMARK   12  A    between atoms: O_26  and  C_27
REMARK   13  A    between atoms: C_27  and  C_28
REMARK                            x       y       z     vdW  Elec       q    Type
REMARK                         _______ _______ _______ _____ _____    ______ ____
ROOT
ATOM      1  C   UNL     1      -0.928  -4.878   1.820  0.00  0.00    -0.015 A 
ATOM      2  C   UNL     1      -1.269  -5.475   3.020  0.00  0.00    +0.010 A 
ATOM      3  C   UNL     1      -2.596  -5.573   3.394  0.00  0.00    +0.050 A 
ATOM      4  C   UNL     1      -3.588  -5.074   2.567  0.00  0.00    +0.162 A 
ATOM      5  C   UNL     1      -3.246  -4.473   1.359  0.00  0.00    +0.162 A 
ATOM      6  C   UNL     1      -1.913  -4.373   0.992  0.00  0.00    +0.055 A 
ENDROOT
BRANCH   1  15
ATOM      7  C   UNL     1       1.273  -3.979   2.451  0.00  0.00    +0.082 C 
ATOM      8  C   UNL     1       2.143  -4.533   3.309  0.00  0.00    +0.020 C 
ATOM      9  N   UNL     1       2.429  -5.876   3.300  0.00  0.00    -0.286 N 
ATOM     10  C   UNL     1       1.988  -6.614   2.211  0.00  0.00    +0.240 A 
ATOM     11  N   UNL     1       2.281  -7.823   1.825  0.00  0.00    -0.092 NA
ATOM     12  N   UNL     1       1.642  -8.114   0.744  0.00  0.00    -0.021 NA
ATOM     13  N   UNL     1       0.904  -7.117   0.374  0.00  0.00    -0.042 NA
ATOM     14  N   UNL     1       1.100  -6.109   1.316  0.00  0.00    -0.201 N 
ATOM     15  C   UNL     1       0.520  -4.774   1.416  0.00  0.00    +0.181 C 
ATOM     16  C   UNL     1       2.831  -3.650   4.319  0.00  0.00    +0.061 C 
ATOM     17  H   UNL     1       2.920  -6.292   4.026  0.00  0.00    +0.155 HD
BRANCH   7  18
ATOM     18  C   UNL     1       1.049  -2.586   2.524  0.00  0.00    +0.339 C 
ATOM     19  O   UNL     1       1.520  -1.849   1.678  0.00  0.00    -0.245 OA
BRANCH  18  20
ATOM     20  O   UNL     1       0.313  -2.073   3.532  0.00  0.00    -0.461 OA
BRANCH  20  21
ATOM     21  C   UNL     1       0.127  -0.657   3.544  0.00  0.00    +0.232 C 
BRANCH  21  23
ATOM     22  C   UNL     1      -0.925   1.253   4.764  0.00  0.00    +0.007 C 
ATOM     23  C   UNL     1      -0.726  -0.264   4.752  0.00  0.00    +0.038 C 
ENDBRANCH  21  23
ENDBRANCH  20  21
ENDBRANCH  18  20
ENDBRANCH   7  18
ENDBRANCH   1  15
BRANCH   5  24
ATOM     24  O   UNL     1      -4.216  -3.981   0.543  0.00  0.00    -0.489 OA
BRANCH  24  25
ATOM     25  C   UNL     1      -3.791  -3.378  -0.681  0.00  0.00    +0.226 C 
ATOM     26  C   UNL     1      -5.013  -2.887  -1.459  0.00  0.00    +0.048 C 
ENDBRANCH  24  25
ENDBRANCH   5  24
BRANCH   4  27
ATOM     27  O   UNL     1      -4.894  -5.170   2.933  0.00  0.00    -0.484 OA
BRANCH  27  28
ATOM     28  C   UNL     1      -5.171  -5.800   4.186  0.00  0.00    +0.267 C 
BRANCH  28  29
ATOM     29  C   UNL     1      -6.660  -5.815   4.422  0.00  0.00    +0.025 A 
ATOM     30  C   UNL     1      -7.515  -5.273   3.481  0.00  0.00    +0.010 A 
ATOM     31  C   UNL     1      -8.880  -5.287   3.697  0.00  0.00    +0.001 A 
ATOM     32  C   UNL     1      -9.392  -5.844   4.854  0.00  0.00    +0.003 A 
ATOM     33  C   UNL     1      -8.539  -6.387   5.796  0.00  0.00    +0.039 A 
ATOM     34  C   UNL     1      -7.172  -6.378   5.579  0.00  0.00    +0.130 A 
ATOM     35  F   UNL     1      -6.337  -6.913   6.497  0.00  0.00    -0.205 F 
ENDBRANCH  28  29
ENDBRANCH  27  28
ENDBRANCH   4  27
TORSDOF 10
