REMARK  Name = ZINC33737944
REMARK  12 active torsions:
REMARK  status: ('A' for Active; 'I' for Inactive)
REMARK    1  A    between atoms: C_1  and  C_2
REMARK    2  A    between atoms: C_2  and  C_3
REMARK    3  A    between atoms: C_2  and  C_4
REMARK    4  A    between atoms: C_2  and  N_20
REMARK    5  A    between atoms: C_4  and  O_5
REMARK    6  A    between atoms: O_5  and  C_6
REMARK    7  A    between atoms: C_6  and  C_8
REMARK    8  A    between atoms: C_9  and  C_10
REMARK    9  A    between atoms: C_13  and  O_18
REMARK   10  A    between atoms: C_14  and  O_16
REMARK   11  A    between atoms: O_16  and  C_17
REMARK   12  A    between atoms: O_18  and  C_19
REMARK                            x       y       z     vdW  Elec       q    Type
REMARK                         _______ _______ _______ _____ _____    ______ ____
ROOT
ATOM      1  C   UNL     1      -0.048   1.521  -0.024  0.00  0.00    +0.035 C 
ATOM      2  C   UNL     1       0.007  -0.008   0.009  0.00  0.00    +0.064 C 
ATOM      3  C   UNL     1       0.763  -0.465   1.257  0.00  0.00    +0.035 C 
ENDROOT
BRANCH   2   4
ATOM      4  N   UNL     1       0.697  -0.498  -1.187  0.00  0.00    -0.290 N 
ATOM      5  C   UNL     1       1.972  -0.132  -1.427  0.00  0.00    +0.311 C 
ATOM      6  O   UNL     1       2.525   0.663  -0.692  0.00  0.00    -0.252 OA
ATOM      7  N   UNL     1       2.633  -0.647  -2.482  0.00  0.00    -0.222 N 
ATOM      8  C   UNL     1       3.997  -0.366  -2.634  0.00  0.00    +0.057 A 
ATOM      9  C   UNL     1       4.493   0.888  -2.312  0.00  0.00    +0.025 A 
ATOM     10  C   UNL     1       5.840   1.160  -2.467  0.00  0.00    +0.002 A 
ATOM     11  C   UNL     1       6.701   0.188  -2.942  0.00  0.00    +0.001 A 
ATOM     12  C   UNL     1       6.217  -1.068  -3.267  0.00  0.00    +0.017 A 
ATOM     13  C   UNL     1       4.871  -1.345  -3.114  0.00  0.00    +0.035 A 
ATOM     14  S   UNL     1       4.224  -2.937  -3.520  0.00  0.00    -0.086 S 
ATOM     15  C   UNL     1       2.558  -2.564  -3.970  0.00  0.00    +0.035 A 
ATOM     16  C   UNL     1       1.940  -1.455  -3.393  0.00  0.00    +0.057 A 
ATOM     17  C   UNL     1       0.630  -1.158  -3.736  0.00  0.00    +0.025 A 
ATOM     18  C   UNL     1      -0.047  -1.959  -4.638  0.00  0.00    +0.002 A 
ATOM     19  C   UNL     1       0.573  -3.058  -5.202  0.00  0.00    +0.001 A 
ATOM     20  C   UNL     1       1.875  -3.357  -4.874  0.00  0.00    +0.017 A 
ATOM     21  H   UNL     1       0.236  -1.086  -1.806  0.00  0.00    +0.151 HD
ENDBRANCH   2   4
BRANCH   2  22
ATOM     22  C   UNL     1      -1.417  -0.568   0.042  0.00  0.00    +0.257 C 
BRANCH  22  23
ATOM     23  O   UNL     1      -2.090  -0.090   1.208  0.00  0.00    -0.459 OA
BRANCH  23  24
ATOM     24  C   UNL     1      -3.365  -0.494   1.388  0.00  0.00    +0.332 C 
ATOM     25  O   UNL     1      -3.889  -1.233   0.576  0.00  0.00    -0.246 OA
BRANCH  24  26
ATOM     26  C   UNL     1      -4.092  -0.058   2.524  0.00  0.00    +0.092 C 
ATOM     27  C   UNL     1      -5.369  -0.463   2.705  0.00  0.00    +0.015 C 
BRANCH  27  28
ATOM     28  C   UNL     1      -6.123  -0.011   3.882  0.00  0.00    -0.021 A 
ATOM     29  C   UNL     1      -5.523   0.843   4.815  0.00  0.00    +0.012 A 
ATOM     30  C   UNL     1      -6.232   1.265   5.918  0.00  0.00    +0.050 A 
ATOM     31  C   UNL     1      -7.543   0.846   6.107  0.00  0.00    +0.162 A 
ATOM     32  C   UNL     1      -8.147  -0.005   5.183  0.00  0.00    +0.162 A 
ATOM     33  C   UNL     1      -7.446  -0.429   4.072  0.00  0.00    +0.057 A 
BRANCH  32  34
ATOM     34  O   UNL     1      -9.430  -0.414   5.373  0.00  0.00    -0.491 OA
ATOM     35  C   UNL     1      -9.987  -1.285   4.386  0.00  0.00    +0.277 C 
ENDBRANCH  32  34
BRANCH  31  36
ATOM     36  O   UNL     1      -8.237   1.265   7.197  0.00  0.00    -0.491 OA
ATOM     37  C   UNL     1      -7.557   2.135   8.104  0.00  0.00    +0.277 C 
ENDBRANCH  31  36
ENDBRANCH  27  28
ENDBRANCH  24  26
ENDBRANCH  23  24
ENDBRANCH  22  23
ENDBRANCH   2  22
TORSDOF 8
