REMARK  Name = ZINC13673068
REMARK  11 active torsions:
REMARK  status: ('A' for Active; 'I' for Inactive)
REMARK    1  A    between atoms: C_1  and  C_2
REMARK    2  A    between atoms: C_5  and  S_8
REMARK    3  A    between atoms: S_8  and  N_11
REMARK    4  A    between atoms: C_13  and  C_22
REMARK    5  A    between atoms: N_24  and  C_25
REMARK    6  A    between atoms: C_25  and  C_27
REMARK    7  A    between atoms: C_25  and  C_28
REMARK    8  A    between atoms: C_31  and  C_34
REMARK    9  A    between atoms: C_34  and  C_35
REMARK   10  A    between atoms: C_34  and  C_36
REMARK   11  A    between atoms: C_34  and  C_37
REMARK                            x       y       z     vdW  Elec       q    Type
REMARK                         _______ _______ _______ _____ _____    ______ ____
ROOT
ATOM      1  N   UNL     1      -1.203  -0.724   0.013  0.00  0.00    -0.195 N 
ATOM      2  C   UNL     1      -1.144  -2.162  -0.302  0.00  0.00    +0.186 C 
ATOM      3  C   UNL     1       0.082  -2.745   0.415  0.00  0.00    +0.277 C 
ATOM      4  O   UNL     1       1.248  -2.046  -0.026  0.00  0.00    -0.476 OA
ATOM      5  C   UNL     1       1.215  -0.688  -0.014  0.00  0.00    +0.144 A 
ATOM      6  C   UNL     1       0.002  -0.004   0.002  0.00  0.00    +0.093 A 
ATOM      7  C   UNL     1      -0.017   1.381   0.010  0.00  0.00    +0.028 A 
ATOM      8  C   UNL     1       1.173   2.086   0.002  0.00  0.00    +0.002 A 
ATOM      9  C   UNL     1       2.379   1.410  -0.012  0.00  0.00    +0.004 A 
ATOM     10  C   UNL     1       2.403   0.028  -0.020  0.00  0.00    +0.047 A 
ENDROOT
BRANCH   3  11
ATOM     11  C   UNL     1       0.213  -4.209   0.082  0.00  0.00    +0.256 C 
ATOM     12  O   UNL     1       1.171  -4.604  -0.547  0.00  0.00    -0.272 OA
ATOM     13  N   UNL     1      -0.735  -5.079   0.484  0.00  0.00    -0.306 N 
ATOM     14  H   UNL     1      -1.501  -4.763   0.987  0.00  0.00    +0.149 HD
BRANCH  13  15
ATOM     15  C   UNL     1      -0.607  -6.502   0.160  0.00  0.00    +0.100 C 
ATOM     16  C   UNL     1       0.263  -7.189   1.215  0.00  0.00    +0.033 C 
BRANCH  15  17
ATOM     17  C   UNL     1      -1.973  -7.138   0.144  0.00  0.00    -0.027 A 
ATOM     18  C   UNL     1      -2.909  -6.790   1.100  0.00  0.00    +0.006 A 
ATOM     19  C   UNL     1      -4.164  -7.370   1.083  0.00  0.00    +0.004 A 
ATOM     20  C   UNL     1      -4.479  -8.305   0.115  0.00  0.00    -0.042 A 
ATOM     21  C   UNL     1      -3.542  -8.656  -0.838  0.00  0.00    +0.004 A 
ATOM     22  C   UNL     1      -2.289  -8.073  -0.824  0.00  0.00    +0.006 A 
BRANCH  20  23
ATOM     23  C   UNL     1      -5.846  -8.941   0.099  0.00  0.00    -0.013 C 
ATOM     24  C   UNL     1      -5.705 -10.456   0.260  0.00  0.00    +0.015 C 
ATOM     25  C   UNL     1      -6.683  -8.381   1.250  0.00  0.00    +0.015 C 
ATOM     26  C   UNL     1      -6.536  -8.631  -1.231  0.00  0.00    +0.015 C 
ENDBRANCH  20  23
ENDBRANCH  15  17
ENDBRANCH  13  15
ENDBRANCH   3  11
BRANCH   1  27
ATOM     27  S   UNL     1      -2.640   0.017   0.370  0.00  0.00    +0.075 S 
ATOM     28  O   UNL     1      -3.515  -0.999   0.841  0.00  0.00    -0.150 OA
ATOM     29  O   UNL     1      -2.324   1.167   1.141  0.00  0.00    -0.150 OA
BRANCH  27  34
ATOM     30  C   UNL     1      -4.956   2.012  -4.832  0.00  0.00    +0.044 C 
ATOM     31  C   UNL     1      -4.378   1.514  -3.533  0.00  0.00    -0.050 A 
ATOM     32  C   UNL     1      -4.685   0.244  -3.082  0.00  0.00    +0.005 A 
ATOM     33  C   UNL     1      -4.155  -0.213  -1.890  0.00  0.00    +0.029 A 
ATOM     34  C   UNL     1      -3.317   0.599  -1.149  0.00  0.00    +0.109 A 
ATOM     35  C   UNL     1      -3.014   1.871  -1.598  0.00  0.00    +0.029 A 
ATOM     36  C   UNL     1      -3.541   2.327  -2.792  0.00  0.00    +0.005 A 
ENDBRANCH  27  34
ENDBRANCH   1  27
TORSDOF 6
