REMARK  Name = ZINC37424914
REMARK  11 active torsions:
REMARK  status: ('A' for Active; 'I' for Inactive)
REMARK    1  A    between atoms: C_1  and  C_2
REMARK    2  A    between atoms: C_2  and  C_3
REMARK    3  A    between atoms: C_3  and  N_4
REMARK    4  A    between atoms: C_5  and  C_7
REMARK    5  A    between atoms: C_7  and  N_8
REMARK    6  A    between atoms: C_11  and  C_21
REMARK    7  A    between atoms: N_13  and  C_14
REMARK    8  A    between atoms: C_21  and  C_22
REMARK    9  A    between atoms: C_21  and  C_23
REMARK   10  A    between atoms: C_21  and  C_24
REMARK   11  A    between atoms: C_25  and  C_31
REMARK                            x       y       z     vdW  Elec       q    Type
REMARK                         _______ _______ _______ _____ _____    ______ ____
ROOT
ATOM      1  N   UNL     1       4.832  -4.454   0.138  0.00  0.00    -0.246 N 
ATOM      2  C   UNL     1       5.274  -5.001   1.352  0.00  0.00    +0.136 A 
ATOM      3  C   UNL     1       5.662  -4.259   2.416  0.00  0.00    +0.034 A 
ATOM      4  C   UNL     1       6.027  -5.135   3.439  0.00  0.00    +0.075 A 
ATOM      5  N   UNL     1       5.867  -6.362   3.005  0.00  0.00    -0.169 NA
ATOM      6  N   UNL     1       5.393  -6.308   1.685  0.00  0.00    -0.216 N 
ATOM      7  C   UNL     1       5.688  -2.752   2.451  0.00  0.00    +0.118 C 
ATOM      8  S   UNL     1       3.967  -2.142   2.560  0.00  0.00    -0.138 S 
ATOM      9  C   UNL     1       3.097  -3.263   1.413  0.00  0.00    +0.166 C 
ATOM     10  C   UNL     1       3.913  -3.484   0.173  0.00  0.00    +0.231 C 
ATOM     11  O   UNL     1       3.736  -2.784  -0.801  0.00  0.00    -0.274 OA
ENDROOT
BRANCH   6  12
ATOM     12  C   UNL     1       5.097  -7.404   0.863  0.00  0.00    +0.086 A 
ATOM     13  C   UNL     1       3.894  -7.450   0.171  0.00  0.00    +0.029 A 
ATOM     14  C   UNL     1       3.605  -8.532  -0.638  0.00  0.00    +0.002 A 
ATOM     15  C   UNL     1       4.512  -9.568  -0.760  0.00  0.00    +0.002 A 
ATOM     16  C   UNL     1       5.711  -9.527  -0.072  0.00  0.00    +0.022 A 
ATOM     17  C   UNL     1       6.009  -8.444   0.734  0.00  0.00    +0.066 A 
ATOM     18 CL   UNL     1       7.518  -8.388   1.591  0.00  0.00    -0.081 Cl
ENDBRANCH   6  12
BRANCH   7  19
ATOM     19  C   UNL     1       6.470  -2.288   3.651  0.00  0.00    +0.007 A 
ATOM     20  C   UNL     1       6.061  -2.153   4.937  0.00  0.00    +0.012 A 
ATOM     21  C   UNL     1       6.963  -1.704   5.883  0.00  0.00    +0.008 A 
ATOM     22  C   UNL     1       8.230  -1.412   5.498  0.00  0.00    +0.045 A 
ATOM     23  S   UNL     1       8.179  -1.779   3.752  0.00  0.00    -0.100 S 
ENDBRANCH   7  19
BRANCH   4  24
ATOM     24  C   UNL     1       6.520  -4.739   4.807  0.00  0.00    +0.007 C 
ATOM     25  C   UNL     1       5.401  -4.021   5.564  0.00  0.00    +0.017 C 
ATOM     26  C   UNL     1       6.938  -5.991   5.581  0.00  0.00    +0.017 C 
ATOM     27  C   UNL     1       7.721  -3.802   4.664  0.00  0.00    +0.017 C 
ENDBRANCH   4  24
BRANCH   1  28
ATOM     28  C   UNL     1       5.369  -4.931  -1.139  0.00  0.00    +0.210 C 
BRANCH  28  30
ATOM     29  N   UNL     1       7.160  -4.293  -2.720  0.00  0.00    -0.314 N 
ATOM     30  C   UNL     1       6.509  -4.043  -1.567  0.00  0.00    +0.231 C 
ATOM     31  O   UNL     1       6.839  -3.104  -0.875  0.00  0.00    -0.274 OA
ATOM     32  H   UNL     1       6.896  -5.044  -3.274  0.00  0.00    +0.149 HD
BRANCH  29  33
ATOM     33  C   UNL     1       8.268  -3.429  -3.137  0.00  0.00    +0.104 C 
BRANCH  33  35
ATOM     34  C   UNL     1       9.986  -3.026  -4.906  0.00  0.00    +0.005 C 
ATOM     35  C   UNL     1       8.829  -3.928  -4.470  0.00  0.00    +0.015 C 
ENDBRANCH  33  35
ENDBRANCH  29  33
ENDBRANCH  28  30
ENDBRANCH   1  28
TORSDOF 7
