REMARK  Name = ZINC08790417
REMARK  6 active torsions:
REMARK  status: ('A' for Active; 'I' for Inactive)
REMARK    1  A    between atoms: C_1  and  C_2
REMARK    2  A    between atoms: C_2  and  C_4
REMARK    3  A    between atoms: C_2  and  O_34
REMARK    4  A    between atoms: N_12  and  C_15
REMARK    5  A    between atoms: C_15  and  C_16
REMARK    6  A    between atoms: C_16  and  C_17
REMARK                            x       y       z     vdW  Elec       q    Type
REMARK                         _______ _______ _______ _____ _____    ______ ____
ROOT
ATOM      1  C   UNL     1       1.404   1.698  -0.002  0.00  0.00    -0.028 C 
ATOM      2  C   UNL     1      -0.071   1.244  -0.008  0.00  0.00    +0.075 C 
ATOM      3  C   UNL     1      -0.677   1.872  -1.294  0.00  0.00    +0.088 C 
ATOM      4  C   UNL     1      -1.711   2.836  -0.757  0.00  0.00    +0.225 C 
ATOM      5  O   UNL     1      -2.431   3.540  -1.432  0.00  0.00    -0.275 OA
ATOM      6  N   UNL     1      -1.708   2.791   0.581  0.00  0.00    -0.241 N 
ATOM      7  C   UNL     1      -0.810   1.933   1.117  0.00  0.00    +0.224 C 
ATOM      8  O   UNL     1      -0.626   1.738   2.299  0.00  0.00    -0.275 OA
ATOM      9  C   UNL     1       0.485   2.643  -1.931  0.00  0.00    +0.050 C 
ATOM     10  C   UNL     1       1.141   1.847  -3.024  0.00  0.00    -0.026 A 
ATOM     11  C   UNL     1       1.762   0.619  -3.060  0.00  0.00    +0.024 A 
ATOM     12  C   UNL     1       2.282   0.140  -4.250  0.00  0.00    +0.041 A 
ATOM     13  C   UNL     1       2.176   0.900  -5.402  0.00  0.00    +0.022 A 
ATOM     14  C   UNL     1       1.554   2.131  -5.370  0.00  0.00    +0.025 A 
ATOM     15  C   UNL     1       1.028   2.619  -4.176  0.00  0.00    +0.036 A 
ATOM     16  N   UNL     1       0.364   3.815  -3.893  0.00  0.00    -0.286 N 
ATOM     17  C   UNL     1       0.011   3.906  -2.596  0.00  0.00    +0.211 C 
ATOM     18  O   UNL     1      -0.575   4.827  -2.067  0.00  0.00    -0.277 OA
ATOM     19 CL   UNL     1       3.066  -1.408  -4.298  0.00  0.00    -0.084 Cl
ATOM     20  H   UNL     1       0.177   4.501  -4.554  0.00  0.00    +0.155 HD
ATOM     21  N   UNL     1       1.408   2.900  -0.839  0.00  0.00    +0.396 N 
ATOM     22  H   UNL     1       2.351   3.075  -1.205  0.00  0.00    -0.083 HD
ATOM     23  H   UNL     1       1.096   3.713  -0.295  0.00  0.00    -0.083 HD
ENDROOT
BRANCH   1  25
ATOM     24  C   UNL     1       1.879   0.720   2.247  0.00  0.00    +0.036 C 
ATOM     25  C   UNL     1       1.859   2.010   1.425  0.00  0.00    +0.098 C 
BRANCH  25  26
ATOM     26  O   UNL     1       3.171   2.576   1.393  0.00  0.00    -0.394 OA
ATOM     27  H   UNL     1       3.839   1.998   1.001  0.00  0.00    +0.210 HD
ENDBRANCH  25  26
ENDBRANCH   1  25
BRANCH   6  28
ATOM     28  C   UNL     1      -2.599   3.614   1.403  0.00  0.00    +0.121 C 
BRANCH  28  29
ATOM     29  C   UNL     1      -3.904   2.857   1.656  0.00  0.00    +0.054 C 
BRANCH  29  30
ATOM     30  C   UNL     1      -4.820   3.703   2.502  0.00  0.00    -0.046 A 
ATOM     31  C   UNL     1      -4.773   3.608   3.880  0.00  0.00    +0.004 A 
ATOM     32  C   UNL     1      -5.610   4.387   4.656  0.00  0.00    +0.000 A 
ATOM     33  C   UNL     1      -6.501   5.256   4.053  0.00  0.00    +0.000 A 
ATOM     34  C   UNL     1      -6.551   5.348   2.675  0.00  0.00    +0.000 A 
ATOM     35  C   UNL     1      -5.711   4.571   1.899  0.00  0.00    +0.004 A 
ENDBRANCH  29  30
ENDBRANCH  28  29
ENDBRANCH   6  28
TORSDOF 5
