REMARK  Name = ZINC40149608
REMARK  6 active torsions:
REMARK  status: ('A' for Active; 'I' for Inactive)
REMARK    1  A    between atoms: C_1  and  C_2
REMARK    2  A    between atoms: C_2  and  C_3
REMARK    3  A    between atoms: C_6  and  C_9
REMARK    4  A    between atoms: C_11  and  C_14
REMARK    5  A    between atoms: C_14  and  N_15
REMARK    6  A    between atoms: C_18  and  C_21
REMARK                            x       y       z     vdW  Elec       q    Type
REMARK                         _______ _______ _______ _____ _____    ______ ____
ROOT
ATOM      1  N   UNL     1      -8.306  -4.551  -1.923  0.00  0.00    +0.386 N 
ATOM      2  C   UNL     1      -8.511  -5.326  -0.694  0.00  0.00    -0.077 C 
ATOM      3  C   UNL     1      -8.309  -6.815  -0.985  0.00  0.00    -0.006 C 
ATOM      4  C   UNL     1      -9.317  -7.263  -2.047  0.00  0.00    +0.072 C 
ATOM      5  C   UNL     1      -9.144  -6.398  -3.299  0.00  0.00    -0.006 C 
ATOM      6  C   UNL     1      -9.315  -4.925  -2.921  0.00  0.00    -0.077 C 
ATOM      7  H   UNL     1      -7.385  -4.742  -2.289  0.00  0.00    -0.081 HD
ENDROOT
BRANCH   4   8
ATOM      8  C   UNL     1      -9.073  -8.708  -2.396  0.00  0.00    +0.221 C 
ATOM      9  O   UNL     1      -8.180  -9.321  -1.849  0.00  0.00    -0.275 OA
ATOM     10  N   UNL     1      -9.846  -9.320  -3.314  0.00  0.00    -0.270 N 
ATOM     11  C   UNL     1      -9.555 -10.623  -3.715  0.00  0.00    +0.125 A 
ATOM     12  C   UNL     1     -10.291 -11.210  -4.738  0.00  0.00    +0.045 A 
ATOM     13  C   UNL     1      -9.991 -12.504  -5.126  0.00  0.00    +0.020 A 
ATOM     14  C   UNL     1      -8.961 -13.169  -4.474  0.00  0.00    +0.036 A 
ATOM     15  C   UNL     1      -8.271 -12.524  -3.466  0.00  0.00    +0.128 A 
ATOM     16  N   UNL     1      -8.576 -11.288  -3.121  0.00  0.00    -0.239 NA
ATOM     17 BR   UNL     1      -8.507 -14.939  -4.962  0.00  0.00    -0.049 Br
ATOM     18  H   UNL     1     -10.606  -8.853  -3.697  0.00  0.00    +0.156 HD
ENDBRANCH   4   8
BRANCH   1  19
ATOM     19  C   UNL     1      -8.424  -3.118  -1.622  0.00  0.00    +0.022 C 
BRANCH  19  22
ATOM     20  C   UNL     1      -5.395  -1.998   0.033  0.00  0.00    +0.202 A 
ATOM     21  N   UNL     1      -6.138  -2.274  -1.053  0.00  0.00    -0.193 NA
ATOM     22  C   UNL     1      -7.312  -2.707  -0.692  0.00  0.00    +0.211 A 
ATOM     23  O   UNL     1      -7.365  -2.724   0.646  0.00  0.00    -0.340 OA
ATOM     24  N   UNL     1      -6.103  -2.262   1.103  0.00  0.00    -0.056 NA
BRANCH  20  28
ATOM     25  C   UNL     1      -1.404  -0.528   0.000  0.00  0.00    -0.048 A 
ATOM     26  C   UNL     1      -2.041  -0.766   1.205  0.00  0.00    +0.004 A 
ATOM     27  C   UNL     1      -3.336  -1.243   1.221  0.00  0.00    +0.012 A 
ATOM     28  C   UNL     1      -4.002  -1.484   0.022  0.00  0.00    +0.022 A 
ATOM     29  C   UNL     1      -3.356  -1.243  -1.189  0.00  0.00    +0.012 A 
ATOM     30  C   UNL     1      -2.063  -0.761  -1.194  0.00  0.00    +0.004 A 
BRANCH  25  32
ATOM     31  C   UNL     1      -0.010   1.522  -0.005  0.00  0.00    +0.009 C 
ATOM     32  C   UNL     1       0.010  -0.007  -0.012  0.00  0.00    +0.032 C 
ENDBRANCH  25  32
ENDBRANCH  20  28
ENDBRANCH  19  22
ENDBRANCH   1  19
TORSDOF 5
