REMARK  Name = ZINC63873974
REMARK  10 active torsions:
REMARK  status: ('A' for Active; 'I' for Inactive)
REMARK    1  A    between atoms: C_1  and  C_2
REMARK    2  A    between atoms: C_7  and  C_36
REMARK    3  A    between atoms: C_10  and  C_12
REMARK    4  A    between atoms: C_12  and  O_13
REMARK    5  A    between atoms: O_13  and  C_14
REMARK    6  A    between atoms: C_17  and  C_22
REMARK    7  A    between atoms: C_19  and  O_20
REMARK    8  A    between atoms: O_20  and  C_21
REMARK    9  A    between atoms: N_23  and  N_24
REMARK   10  A    between atoms: C_25  and  C_27
REMARK                            x       y       z     vdW  Elec       q    Type
REMARK                         _______ _______ _______ _____ _____    ______ ____
ROOT
ATOM      1  C   UNL     1      -0.201  -2.751   5.250  0.00  0.00    +0.163 A 
ATOM      2  C   UNL     1       1.073  -2.484   5.732  0.00  0.00    +0.050 A 
ATOM      3  C   UNL     1       1.459  -2.960   6.967  0.00  0.00    +0.013 A 
ATOM      4  C   UNL     1       0.568  -3.713   7.736  0.00  0.00    -0.002 A 
ATOM      5  C   UNL     1      -0.715  -3.982   7.250  0.00  0.00    +0.059 A 
ATOM      6  C   UNL     1      -1.097  -3.497   6.013  0.00  0.00    +0.162 A 
ENDROOT
BRANCH   6   7
ATOM      7  O   UNL     1      -2.346  -3.751   5.539  0.00  0.00    -0.491 OA
ATOM      8  C   UNL     1      -3.212  -4.522   6.374  0.00  0.00    +0.277 C 
ENDBRANCH   6   7
BRANCH   4   9
ATOM      9  C   UNL     1       0.978  -4.223   9.056  0.00  0.00    +0.138 C 
ATOM     10  N   UNL     1       2.171  -3.973   9.506  0.00  0.00    -0.187 NA
BRANCH  10  11
ATOM     11  N   UNL     1       2.562  -4.458  10.761  0.00  0.00    -0.203 N 
ATOM     12  C   UNL     1       3.799  -4.199  11.229  0.00  0.00    +0.262 C 
ATOM     13  O   UNL     1       4.577  -3.543  10.560  0.00  0.00    -0.269 OA
ATOM     14  H   UNL     1       1.942  -4.981  11.294  0.00  0.00    +0.178 HD
BRANCH  12  15
ATOM     15  C   UNL     1       4.208  -4.706  12.541  0.00  0.00    +0.044 C 
ATOM     16  C   UNL     1       5.426  -4.525  13.161  0.00  0.00    +0.008 A 
ATOM     17  C   UNL     1       6.610  -3.845  12.780  0.00  0.00    +0.010 A 
ATOM     18  C   UNL     1       7.681  -3.829  13.603  0.00  0.00    +0.001 A 
ATOM     19  C   UNL     1       7.681  -4.472  14.851  0.00  0.00    +0.002 A 
ATOM     20  C   UNL     1       6.604  -5.147  15.308  0.00  0.00    +0.026 A 
ATOM     21  C   UNL     1       5.394  -5.213  14.474  0.00  0.00    +0.043 A 
ATOM     22  N   UNL     1       4.237  -5.785  14.662  0.00  0.00    -0.380 N 
ATOM     23  C   UNL     1       3.379  -5.531  13.500  0.00  0.00    +0.154 C 
ATOM     24  H   UNL     1       3.982  -6.293  15.448  0.00  0.00    +0.160 HD
ENDBRANCH  12  15
ENDBRANCH  10  11
ENDBRANCH   4   9
BRANCH   1  25
ATOM     25  O   UNL     1      -0.577  -2.279   4.032  0.00  0.00    -0.479 OA
BRANCH  25  26
ATOM     26  C   UNL     1       0.391  -1.522   3.303  0.00  0.00    +0.325 C 
BRANCH  26  34
ATOM     27  C   UNL     1       2.793  -1.064   0.273  0.00  0.00    +0.028 C 
ATOM     28  C   UNL     1       2.007  -0.266   1.315  0.00  0.00    +0.073 C 
ATOM     29  C   UNL     1       2.352   1.222   1.189  0.00  0.00    +0.022 C 
ATOM     30  C   UNL     1       1.867   1.741  -0.166  0.00  0.00    +0.004 C 
ATOM     31  C   UNL     1       0.347   1.589  -0.259  0.00  0.00    +0.022 C 
ATOM     32  C   UNL     1      -0.021   0.105  -0.150  0.00  0.00    +0.073 C 
ATOM     33  N   UNL     1       0.566  -0.441   1.085  0.00  0.00    -0.293 N 
ATOM     34  C   UNL     1      -0.200  -1.085   1.987  0.00  0.00    +0.254 C 
ATOM     35  O   UNL     1      -1.365  -1.314   1.740  0.00  0.00    -0.272 OA
ATOM     36  C   UNL     1      -1.543  -0.044  -0.106  0.00  0.00    +0.028 C 
ENDBRANCH  26  34
ENDBRANCH  25  26
ENDBRANCH   1  25
TORSDOF 7
