REMARK  Name = ZINC50033668
REMARK  8 active torsions:
REMARK  status: ('A' for Active; 'I' for Inactive)
REMARK    1  A    between atoms: C_1  and  C_2
REMARK    2  A    between atoms: N_5  and  C_11
REMARK    3  A    between atoms: C_7  and  C_9
REMARK    4  A    between atoms: C_7  and  C_10
REMARK    5  A    between atoms: C_13  and  C_19
REMARK    6  A    between atoms: C_14  and  N_18
REMARK    7  A    between atoms: C_19  and  O_21
REMARK    8  A    between atoms: O_21  and  C_22
REMARK                            x       y       z     vdW  Elec       q    Type
REMARK                         _______ _______ _______ _____ _____    ______ ____
ROOT
ATOM      1  C   UNL     1       0.385  -2.840  -2.133  0.00  0.00    +0.066 A 
ATOM      2  C   UNL     1       1.375  -3.071  -3.068  0.00  0.00    +0.042 A 
ATOM      3  C   UNL     1       1.112  -3.887  -4.174  0.00  0.00    +0.081 A 
ATOM      4  C   UNL     1      -0.158  -4.466  -4.324  0.00  0.00    +0.042 A 
ATOM      5  C   UNL     1      -1.143  -4.225  -3.377  0.00  0.00    +0.063 A 
ATOM      6  C   UNL     1      -0.873  -3.422  -2.285  0.00  0.00    +0.146 A 
ATOM      7  F   UNL     1      -1.835  -3.195  -1.363  0.00  0.00    -0.203 F 
ENDROOT
BRANCH   1  11
ATOM      8  C   UNL     1      -0.541   1.345   0.224  0.00  0.00    +0.039 C 
ATOM      9  C   UNL     1      -0.433  -0.179   0.147  0.00  0.00    +0.133 C 
ATOM     10  C   UNL     1       0.401  -0.573  -1.077  0.00  0.00    +0.136 C 
ATOM     11  N   UNL     1       0.647  -2.023  -1.024  0.00  0.00    -0.322 N 
ATOM     12  C   UNL     1       1.176  -2.590   0.226  0.00  0.00    +0.139 C 
ATOM     13  C   UNL     1       0.304  -2.098   1.387  0.00  0.00    +0.080 C 
ATOM     14  O   UNL     1       0.202  -0.673   1.329  0.00  0.00    -0.368 OA
ATOM     15  C   UNL     1      -1.092  -2.714   1.275  0.00  0.00    +0.043 C 
ATOM     16  C   UNL     1       0.941  -2.511   2.716  0.00  0.00    +0.043 C 
ENDBRANCH   1  11
BRANCH   4  17
ATOM     17  N   UNL     1      -0.429  -5.278  -5.421  0.00  0.00    -0.357 N 
ATOM     18  H   UNL     1       0.281  -5.511  -6.039  0.00  0.00    +0.142 HD
ATOM     19  H   UNL     1      -1.328  -5.612  -5.567  0.00  0.00    +0.142 HD
ENDBRANCH   4  17
BRANCH   3  20
ATOM     20  C   UNL     1       2.162  -4.137  -5.174  0.00  0.00    +0.341 C 
ATOM     21  O   UNL     1       1.967  -4.929  -6.075  0.00  0.00    -0.245 OA
BRANCH  20  22
ATOM     22  O   UNL     1       3.340  -3.486  -5.092  0.00  0.00    -0.464 OA
ATOM     23  C   UNL     1       4.313  -3.778  -6.097  0.00  0.00    +0.280 C 
ENDBRANCH  20  22
ENDBRANCH   3  20
TORSDOF 4
