REMARK  Name = ZINC03503243
REMARK  8 active torsions:
REMARK  status: ('A' for Active; 'I' for Inactive)
REMARK    1  A    between atoms: C_1  and  S_2
REMARK    2  A    between atoms: S_2  and  C_5
REMARK    3  A    between atoms: C_8  and  C_14
REMARK    4  A    between atoms: C_10  and  N_11
REMARK    5  A    between atoms: C_14  and  O_16
REMARK    6  A    between atoms: O_16  and  C_17
REMARK    7  A    between atoms: C_17  and  C_18
REMARK    8  A    between atoms: C_18  and  C_20
REMARK                            x       y       z     vdW  Elec       q    Type
REMARK                         _______ _______ _______ _____ _____    ______ ____
ROOT
ATOM      1  C   UNL     1       8.482   1.074  -0.141  0.00  0.00    +0.340 C 
ATOM      2  O   UNL     1       8.919   2.191   0.049  0.00  0.00    -0.245 OA
ENDROOT
BRANCH   1   6
ATOM      3  C   UNL     1      11.030  -2.299   0.272  0.00  0.00    +0.118 A 
ATOM      4  C   UNL     1       9.703  -2.477  -0.079  0.00  0.00    +0.030 A 
ATOM      5  C   UNL     1       8.868  -1.386  -0.209  0.00  0.00    +0.017 A 
ATOM      6  C   UNL     1       9.369  -0.100   0.003  0.00  0.00    +0.061 A 
ATOM      7  C   UNL     1      10.708   0.072   0.356  0.00  0.00    +0.049 A 
ATOM      8  C   UNL     1      11.530  -1.028   0.489  0.00  0.00    +0.152 A 
BRANCH   3  10
ATOM      9  C   UNL     1      13.295  -3.536  -0.902  0.00  0.00    +0.200 C 
ATOM     10  S   UNL     1      12.087  -3.699   0.442  0.00  0.00    -0.004 S 
ATOM     11  O   UNL     1      12.725  -3.520   1.698  0.00  0.00    -0.170 OA
ATOM     12  O   UNL     1      11.245  -4.819   0.209  0.00  0.00    -0.170 OA
ENDBRANCH   3  10
BRANCH   8  13
ATOM     13  N   UNL     1      12.951  -0.847   0.863  0.00  0.00    +0.058 N 
ATOM     14  O   UNL     1      13.366   0.258   1.162  0.00  0.00    -0.126 OA
ATOM     15  O   UNL     1      13.704  -1.804   0.874  0.00  0.00    -0.126 OA
ENDBRANCH   8  13
ENDBRANCH   1   6
BRANCH   1  16
ATOM     16  O   UNL     1       7.190   0.904  -0.482  0.00  0.00    -0.453 OA
BRANCH  16  17
ATOM     17  C   UNL     1       6.378   2.102  -0.605  0.00  0.00    +0.311 C 
BRANCH  17  18
ATOM     18  C   UNL     1       4.973   1.718  -0.990  0.00  0.00    +0.200 C 
ATOM     19  O   UNL     1       4.684   0.551  -1.145  0.00  0.00    -0.288 OA
BRANCH  18  20
ATOM     20  C   UNL     1       3.952   2.760  -1.177  0.00  0.00    +0.024 A 
ATOM     21  C   UNL     1       2.646   2.407  -1.534  0.00  0.00    +0.014 A 
ATOM     22  C   UNL     1       1.693   3.387  -1.708  0.00  0.00    +0.042 A 
ATOM     23  C   UNL     1       2.025   4.721  -1.530  0.00  0.00    +0.158 A 
ATOM     24  C   UNL     1       3.319   5.079  -1.175  0.00  0.00    +0.159 A 
ATOM     25  C   UNL     1       4.282   4.107  -0.998  0.00  0.00    +0.052 A 
ATOM     26  F   UNL     1       3.636   6.382  -1.003  0.00  0.00    -0.202 F 
ATOM     27  F   UNL     1       1.087   5.677  -1.708  0.00  0.00    -0.202 F 
ENDBRANCH  18  20
ENDBRANCH  17  18
ENDBRANCH  16  17
ENDBRANCH   1  16
TORSDOF 7
