REMARK  Name = ZINC20109404
REMARK  14 active torsions:
REMARK  status: ('A' for Active; 'I' for Inactive)
REMARK    1  A    between atoms: C_1  and  C_2
REMARK    2  A    between atoms: C_2  and  C_3
REMARK    3  A    between atoms: C_3  and  C_5
REMARK    4  A    between atoms: C_3  and  N_17
REMARK    5  A    between atoms: N_9  and  C_10
REMARK    6  A    between atoms: C_10  and  C_11
REMARK    7  A    between atoms: N_17  and  C_18
REMARK    8  A    between atoms: N_17  and  C_27
REMARK    9  A    between atoms: C_18  and  C_19
REMARK   10  A    between atoms: C_24  and  O_25
REMARK   11  A    between atoms: O_25  and  C_26
REMARK   12  A    between atoms: C_27  and  C_28
REMARK   13  A    between atoms: C_32  and  C_41
REMARK   14  A    between atoms: C_33  and  C_40
REMARK                            x       y       z     vdW  Elec       q    Type
REMARK                         _______ _______ _______ _____ _____    ______ ____
ROOT
ATOM      1  N   UNL     1      -5.348   3.996  -1.450  0.00  0.00    -0.284 NA
ENDROOT
BRANCH   1   2
ATOM      2  C   UNL     1      -6.675   4.620  -1.363  0.00  0.00    +0.127 C 
BRANCH   2   3
ATOM      3  C   UNL     1      -7.175   4.543   0.057  0.00  0.00    +0.168 A 
ATOM      4  N   UNL     1      -6.479   4.770   1.144  0.00  0.00    -0.112 NA
ATOM      5  N   UNL     1      -7.259   4.605   2.156  0.00  0.00    -0.023 NA
ATOM      6  N   UNL     1      -8.432   4.271   1.743  0.00  0.00    -0.044 NA
ATOM      7  N   UNL     1      -8.420   4.222   0.454  0.00  0.00    -0.225 N 
BRANCH   7   8
ATOM      8  C   UNL     1      -9.550   3.881  -0.414  0.00  0.00    +0.179 C 
BRANCH   8   9
ATOM      9  C   UNL     1      -9.567   2.372  -0.661  0.00  0.00    +0.140 C 
ATOM     10  C   UNL     1     -10.684   2.018  -1.666  0.00  0.00    +0.035 C 
ATOM     11  C   UNL     1     -11.246   0.693  -1.082  0.00  0.00    +0.031 C 
ATOM     12  C   UNL     1     -11.079   0.948   0.438  0.00  0.00    +0.160 C 
ATOM     13  O   UNL     1      -9.851   1.683   0.562  0.00  0.00    -0.375 OA
ENDBRANCH   8   9
ENDBRANCH   7   8
ENDBRANCH   2   3
BRANCH   2  15
ATOM     14  C   UNL     1      -6.197   6.161  -3.271  0.00  0.00    +0.006 C 
ATOM     15  C   UNL     1      -6.579   6.085  -1.791  0.00  0.00    +0.023 C 
ENDBRANCH   2  15
ENDBRANCH   1   2
BRANCH   1  16
ATOM     16  C   UNL     1      -5.459   2.539  -1.598  0.00  0.00    +0.124 C 
BRANCH  16  17
ATOM     17  C   UNL     1      -5.873   2.208  -3.008  0.00  0.00    +0.008 A 
ATOM     18  C   UNL     1      -7.156   1.763  -3.265  0.00  0.00    +0.008 A 
ATOM     19  C   UNL     1      -7.537   1.460  -4.559  0.00  0.00    +0.001 A 
ATOM     20  C   UNL     1      -6.636   1.600  -5.599  0.00  0.00    +0.004 A 
ATOM     21  C   UNL     1      -5.352   2.044  -5.347  0.00  0.00    +0.046 A 
ATOM     22  C   UNL     1      -4.969   2.354  -4.050  0.00  0.00    +0.124 A 
BRANCH  22  23
ATOM     23  O   UNL     1      -3.709   2.797  -3.800  0.00  0.00    -0.495 OA
ATOM     24  C   UNL     1      -2.832   2.924  -4.921  0.00  0.00    +0.277 C 
ENDBRANCH  22  23
ENDBRANCH  16  17
ENDBRANCH   1  16
BRANCH   1  25
ATOM     25  C   UNL     1      -4.525   4.346  -0.284  0.00  0.00    +0.126 C 
BRANCH  25  26
ATOM     26  C   UNL     1      -3.067   4.182  -0.630  0.00  0.00    +0.031 A 
ATOM     27  C   UNL     1      -2.349   5.252  -1.052  0.00  0.00    +0.020 A 
ATOM     28  C   UNL     1      -0.935   5.059  -1.380  0.00  0.00    -0.001 A 
ATOM     29  C   UNL     1      -0.143   6.124  -1.821  0.00  0.00    +0.013 A 
ATOM     30  C   UNL     1       1.173   5.911  -2.119  0.00  0.00    -0.047 A 
ATOM     31  C   UNL     1       1.732   4.647  -1.988  0.00  0.00    -0.046 A 
ATOM     32  C   UNL     1       0.970   3.583  -1.556  0.00  0.00    +0.030 A 
ATOM     33  C   UNL     1      -0.374   3.774  -1.252  0.00  0.00    +0.049 A 
ATOM     34  N   UNL     1      -1.158   2.729  -0.812  0.00  0.00    -0.322 N 
ATOM     35  H   UNL     1      -0.723   1.725  -0.701  0.00  0.00    +0.169 HD
ATOM     36  C   UNL     1      -2.455   2.916  -0.513  0.00  0.00    +0.254 A 
ATOM     37  O   UNL     1      -3.119   1.967  -0.132  0.00  0.00    -0.268 OA
ATOM     38  C   UNL     1       3.186   4.436  -2.323  0.00  0.00    +0.044 C 
ATOM     39  C   UNL     1       2.026   7.059  -2.594  0.00  0.00    +0.044 C 
ENDBRANCH  25  26
ENDBRANCH   1  25
TORSDOF 10
