REMARK  Name = ZINC45971787
REMARK  11 active torsions:
REMARK  status: ('A' for Active; 'I' for Inactive)
REMARK    1  A    between atoms: C_1  and  C_2
REMARK    2  A    between atoms: C_2  and  C_3
REMARK    3  A    between atoms: C_3  and  C_4
REMARK    4  A    between atoms: C_4  and  O_5
REMARK    5  A    between atoms: O_5  and  C_6
REMARK    6  A    between atoms: C_9  and  C_12
REMARK    7  A    between atoms: C_18  and  S_24
REMARK    8  A    between atoms: S_24  and  C_25
REMARK    9  A    between atoms: C_25  and  C_26
REMARK   10  A    between atoms: N_28  and  C_29
REMARK   11  A    between atoms: C_32  and  C_35
REMARK                            x       y       z     vdW  Elec       q    Type
REMARK                         _______ _______ _______ _____ _____    ______ ____
ROOT
ATOM      1  C   UNL     1       1.819  -8.043  -3.128  0.00  0.00    +0.094 A 
ATOM      2  C   UNL     1       2.443  -8.692  -4.204  0.00  0.00    +0.061 A 
ATOM      3  C   UNL     1       2.341 -10.047  -3.986  0.00  0.00    +0.112 A 
ATOM      4  C   UNL     1       2.785 -11.229  -4.729  0.00  0.00    +0.187 A 
ATOM      5  N   UNL     1       3.430 -11.420  -5.855  0.00  0.00    -0.126 NA
ATOM      6  N   UNL     1       3.573 -12.682  -6.067  0.00  0.00    -0.122 NA
ATOM      7  C   UNL     1       3.026 -13.371  -5.089  0.00  0.00    +0.196 A 
ATOM      8  N   UNL     1       2.506 -12.475  -4.205  0.00  0.00    -0.274 N 
ATOM      9  C   UNL     1       1.824 -12.582  -3.006  0.00  0.00    +0.115 A 
ATOM     10  C   UNL     1       1.425 -11.508  -2.338  0.00  0.00    +0.131 A 
ATOM     11  N   UNL     1       1.670 -10.226  -2.803  0.00  0.00    -0.234 N 
ATOM     12  N   UNL     1       1.365  -8.958  -2.293  0.00  0.00    -0.166 NA
ENDROOT
BRANCH   1  16
ATOM     13  C   UNL     1       1.468  -3.833  -2.632  0.00  0.00    +0.121 A 
ATOM     14  C   UNL     1       0.942  -4.690  -1.675  0.00  0.00    +0.046 A 
ATOM     15  C   UNL     1       1.054  -6.055  -1.833  0.00  0.00    +0.013 A 
ATOM     16  C   UNL     1       1.696  -6.575  -2.955  0.00  0.00    +0.002 A 
ATOM     17  C   UNL     1       2.223  -5.712  -3.915  0.00  0.00    +0.013 A 
ATOM     18  C   UNL     1       2.103  -4.348  -3.754  0.00  0.00    +0.046 A 
BRANCH  13  19
ATOM     19  O   UNL     1       1.356  -2.488  -2.473  0.00  0.00    -0.492 OA
BRANCH  19  20
ATOM     20  C   UNL     1       0.691  -2.027  -1.296  0.00  0.00    +0.229 C 
BRANCH  20  21
ATOM     21  C   UNL     1       0.662  -0.497  -1.292  0.00  0.00    +0.041 C 
BRANCH  21  23
ATOM     22  C   UNL     1      -0.078   1.526  -0.027  0.00  0.00    +0.004 C 
ATOM     23  C   UNL     1      -0.050  -0.003  -0.031  0.00  0.00    -0.000 C 
ENDBRANCH  21  23
ENDBRANCH  20  21
ENDBRANCH  19  20
ENDBRANCH  13  19
ENDBRANCH   1  16
BRANCH   7  24
ATOM     24  S   UNL     1       2.976 -15.127  -4.949  0.00  0.00    -0.076 S 
BRANCH  24  25
ATOM     25  C   UNL     1       3.836 -15.711  -6.436  0.00  0.00    +0.173 C 
BRANCH  25  26
ATOM     26  C   UNL     1       3.865 -17.218  -6.440  0.00  0.00    +0.227 C 
ATOM     27  O   UNL     1       3.356 -17.837  -5.530  0.00  0.00    -0.275 OA
ATOM     28  N   UNL     1       4.457 -17.877  -7.456  0.00  0.00    -0.285 N 
ATOM     29  H   UNL     1       4.805 -17.385  -8.216  0.00  0.00    +0.155 HD
BRANCH  28  30
ATOM     30  C   UNL     1       4.569 -19.267  -7.414  0.00  0.00    +0.033 A 
ATOM     31  C   UNL     1       3.554 -20.028  -6.842  0.00  0.00    +0.024 A 
ATOM     32  C   UNL     1       3.661 -21.400  -6.798  0.00  0.00    +0.020 A 
ATOM     33  C   UNL     1       4.791 -22.028  -7.330  0.00  0.00    +0.052 A 
ATOM     34  C   UNL     1       5.808 -21.261  -7.904  0.00  0.00    +0.020 A 
ATOM     35  C   UNL     1       5.692 -19.889  -7.949  0.00  0.00    +0.024 A 
BRANCH  33  36
ATOM     36  C   UNL     1       4.906 -23.455  -7.286  0.00  0.00    +0.099 C 
ATOM     37  N   UNL     1       4.998 -24.587  -7.251  0.00  0.00    -0.191 NA
ENDBRANCH  33  36
ENDBRANCH  28  30
ENDBRANCH  25  26
ENDBRANCH  24  25
ENDBRANCH   7  24
TORSDOF 10
