REMARK  Name = ZINC22240324
REMARK  6 active torsions:
REMARK  status: ('A' for Active; 'I' for Inactive)
REMARK    1  A    between atoms: C_1  and  N_2
REMARK    2  A    between atoms: C_3  and  C_28
REMARK    3  A    between atoms: C_6  and  S_7
REMARK    4  A    between atoms: S_7  and  C_8
REMARK    5  A    between atoms: C_8  and  C_9
REMARK    6  A    between atoms: C_22  and  C_24
REMARK                            x       y       z     vdW  Elec       q    Type
REMARK                         _______ _______ _______ _____ _____    ______ ____
ROOT
ATOM      1  C   UNL     1      -6.403   5.466   1.282  0.00  0.00    +0.231 C 
ATOM      2  O   UNL     1      -5.978   6.484   1.785  0.00  0.00    -0.274 OA
ATOM      3  N   UNL     1      -7.732   5.279   1.160  0.00  0.00    -0.257 N 
ATOM      4  C   UNL     1      -8.237   4.106   0.581  0.00  0.00    +0.058 A 
ATOM      5  C   UNL     1      -8.171   2.899   1.257  0.00  0.00    +0.025 A 
ATOM      6  C   UNL     1      -8.696   1.757   0.680  0.00  0.00    +0.002 A 
ATOM      7  C   UNL     1      -9.287   1.817  -0.570  0.00  0.00    +0.002 A 
ATOM      8  C   UNL     1      -9.348   3.016  -1.255  0.00  0.00    +0.025 A 
ATOM      9  C   UNL     1      -8.816   4.162  -0.688  0.00  0.00    +0.055 A 
ATOM     10  N   UNL     1      -8.816   5.375  -1.385  0.00  0.00    -0.284 N 
ATOM     11  C   UNL     1      -9.233   6.511  -0.784  0.00  0.00    +0.219 C 
ATOM     12  O   UNL     1      -9.150   7.569  -1.371  0.00  0.00    -0.275 OA
ATOM     13  C   UNL     1      -9.799   6.472   0.611  0.00  0.00    +0.128 C 
ATOM     14  C   UNL     1      -8.674   6.293   1.636  0.00  0.00    +0.194 C 
ATOM     15  H   UNL     1      -8.476   5.409  -2.430  0.00  0.00    +0.155 HD
ENDROOT
BRANCH  14  16
ATOM     16  C   UNL     1      -9.266   5.848   2.975  0.00  0.00    +0.409 C 
ATOM     17  F   UNL     1      -8.238   5.691   3.910  0.00  0.00    -0.169 F 
ATOM     18  F   UNL     1     -10.167   6.817   3.431  0.00  0.00    -0.169 F 
ATOM     19  F   UNL     1      -9.935   4.631   2.808  0.00  0.00    -0.169 F 
ENDBRANCH  14  16
BRANCH   1  20
ATOM     20  C   UNL     1      -5.445   4.410   0.793  0.00  0.00    +0.173 C 
BRANCH  20  21
ATOM     21  S   UNL     1      -3.744   4.952   1.095  0.00  0.00    -0.077 S 
BRANCH  21  27
ATOM     22  C   UNL     1      -0.497   4.367   0.888  0.00  0.00    +0.153 C 
ATOM     23  N   UNL     1      -1.507   3.421   0.406  0.00  0.00    -0.305 N 
ATOM     24  C   UNL     1      -1.285   2.197  -0.181  0.00  0.00    +0.165 A 
ATOM     25  N   UNL     1      -2.461   1.686  -0.462  0.00  0.00    -0.128 NA
ATOM     26  N   UNL     1      -3.390   2.491  -0.088  0.00  0.00    -0.122 NA
ATOM     27  C   UNL     1      -2.864   3.570   0.447  0.00  0.00    +0.192 A 
BRANCH  24  28
ATOM     28  C   UNL     1       0.029   1.577  -0.451  0.00  0.00    +0.019 A 
ATOM     29  C   UNL     1       1.179   2.367  -0.506  0.00  0.00    +0.013 A 
ATOM     30  C   UNL     1       2.402   1.784  -0.764  0.00  0.00    +0.021 A 
ATOM     31  C   UNL     1       2.491   0.417  -0.968  0.00  0.00    +0.041 A 
ATOM     32  C   UNL     1       1.354  -0.372  -0.915  0.00  0.00    +0.021 A 
ATOM     33  C   UNL     1       0.126   0.200  -0.658  0.00  0.00    +0.013 A 
ATOM     34 CL   UNL     1       4.034  -0.310  -1.291  0.00  0.00    -0.084 Cl
ENDBRANCH  24  28
ENDBRANCH  21  27
ENDBRANCH  20  21
ENDBRANCH   1  20
TORSDOF 5
