REMARK  Name = ZINC09359541
REMARK  4 active torsions:
REMARK  status: ('A' for Active; 'I' for Inactive)
REMARK    1  A    between atoms: C_9  and  C_12
REMARK    2  A    between atoms: N_14  and  N_15
REMARK    3  A    between atoms: C_16  and  C_17
REMARK    4  A    between atoms: C_19  and  O_25
REMARK                            x       y       z     vdW  Elec       q    Type
REMARK                         _______ _______ _______ _____ _____    ______ ____
ROOT
ATOM      1  C   UNL     1      -2.088   7.230  -1.372  0.00  0.00    +0.276 C 
ATOM      2  O   UNL     1      -0.956   7.559  -1.661  0.00  0.00    -0.270 OA
ATOM      3  N   UNL     1      -2.907   8.105  -0.756  0.00  0.00    -0.204 N 
ATOM      4  H   UNL     1      -3.786   7.820  -0.460  0.00  0.00    +0.177 HD
ENDROOT
BRANCH   1  13
ATOM      5  C   UNL     1      -2.489   1.530  -4.137  0.00  0.00    +0.004 A 
ATOM      6  C   UNL     1      -1.188   1.764  -3.731  0.00  0.00    +0.004 A 
ATOM      7  C   UNL     1      -0.863   2.948  -3.096  0.00  0.00    +0.049 A 
ATOM      8  C   UNL     1      -1.840   3.905  -2.866  0.00  0.00    +0.163 A 
ATOM      9  C   UNL     1      -3.148   3.669  -3.273  0.00  0.00    +0.162 A 
ATOM     10  C   UNL     1      -3.467   2.481  -3.914  0.00  0.00    +0.049 A 
ATOM     11  O   UNL     1      -4.123   4.592  -3.052  0.00  0.00    -0.484 OA
ATOM     12  C   UNL     1      -3.692   5.924  -2.753  0.00  0.00    +0.283 C 
ATOM     13  C   UNL     1      -2.577   5.843  -1.702  0.00  0.00    +0.297 C 
ATOM     14  O   UNL     1      -1.503   5.069  -2.247  0.00  0.00    -0.472 OA
ENDBRANCH   1  13
BRANCH   3  15
ATOM     15  N   UNL     1      -2.490   9.425  -0.544  0.00  0.00    -0.188 NA
ATOM     16  C   UNL     1      -3.229  10.236   0.149  0.00  0.00    +0.139 C 
BRANCH  16  17
ATOM     17  C   UNL     1      -4.393   9.719   0.893  0.00  0.00    +0.012 A 
ATOM     18  C   UNL     1      -4.406   8.397   1.342  0.00  0.00    +0.057 A 
ATOM     19  C   UNL     1      -5.500   7.921   2.044  0.00  0.00    +0.131 A 
ATOM     20  C   UNL     1      -6.585   8.753   2.291  0.00  0.00    +0.060 A 
ATOM     21  C   UNL     1      -6.576  10.061   1.842  0.00  0.00    +0.034 A 
ATOM     22  C   UNL     1      -5.489  10.549   1.145  0.00  0.00    +0.028 A 
ATOM     23 BR   UNL     1      -5.482  12.338   0.533  0.00  0.00    -0.050 Br
ATOM     24 BR   UNL     1      -8.079   8.094   3.245  0.00  0.00    -0.046 Br
BRANCH  19  25
ATOM     25  O   UNL     1      -5.514   6.636   2.488  0.00  0.00    -0.506 OA
ATOM     26  H   UNL     1      -5.889   6.006   1.858  0.00  0.00    +0.292 HD
ENDBRANCH  19  25
ENDBRANCH  16  17
ENDBRANCH   3  15
TORSDOF 4
