REMARK  Name = ZINC38548155
REMARK  11 active torsions:
REMARK  status: ('A' for Active; 'I' for Inactive)
REMARK    1  A    between atoms: C_1  and  C_2
REMARK    2  A    between atoms: C_4  and  C_36
REMARK    3  A    between atoms: N_8  and  C_9
REMARK    4  A    between atoms: C_9  and  C_11
REMARK    5  A    between atoms: C_9  and  C_21
REMARK    6  A    between atoms: C_14  and  O_17
REMARK    7  A    between atoms: O_17  and  C_18
REMARK    8  A    between atoms: C_22  and  C_35
REMARK    9  A    between atoms: C_23  and  C_34
REMARK   10  A    between atoms: C_25  and  N_26
REMARK   11  A    between atoms: C_27  and  C_29
REMARK                            x       y       z     vdW  Elec       q    Type
REMARK                         _______ _______ _______ _____ _____    ______ ____
ROOT
ATOM      1  C   UNL     1      -0.091  -1.819   3.583  0.00  0.00    +0.136 C 
ENDROOT
BRANCH   1   9
ATOM      2  C   UNL     1      -2.489  -6.053   4.610  0.00  0.00    +0.066 C 
ATOM      3  C   UNL     1      -1.772  -5.540   3.388  0.00  0.00    +0.044 A 
ATOM      4  C   UNL     1      -1.663  -6.330   2.255  0.00  0.00    +0.046 A 
ATOM      5  C   UNL     1      -0.997  -5.820   1.152  0.00  0.00    +0.044 A 
ATOM      6  N   UNL     1      -0.487  -4.601   1.214  0.00  0.00    -0.220 NA
ATOM      7  C   UNL     1      -0.609  -3.870   2.312  0.00  0.00    +0.216 A 
ATOM      8  N   UNL     1      -1.244  -4.327   3.382  0.00  0.00    -0.220 NA
ATOM      9  N   UNL     1      -0.063  -2.599   2.343  0.00  0.00    -0.303 N 
ATOM     10  C   UNL     1      -0.853  -6.644  -0.102  0.00  0.00    +0.066 C 
ATOM     11  H   UNL     1       0.338  -2.224   1.543  0.00  0.00    +0.150 HD
ENDBRANCH   1   9
BRANCH   1  12
ATOM     12  C   UNL     1      -1.452  -1.195   3.753  0.00  0.00    +0.009 A 
ATOM     13  C   UNL     1      -2.069  -1.179   4.991  0.00  0.00    -0.033 A 
ATOM     14  C   UNL     1      -3.292  -0.610   5.109  0.00  0.00    -0.008 A 
ATOM     15  S   UNL     1      -3.615  -0.068   3.439  0.00  0.00    -0.078 S 
ATOM     16  C   UNL     1      -2.094  -0.631   2.692  0.00  0.00    +0.078 A 
ATOM     17  C   UNL     1      -4.158  -0.470   6.335  0.00  0.00    +0.052 C 
ATOM     18  C   UNL     1      -1.390  -1.787   6.191  0.00  0.00    +0.045 C 
BRANCH  16  19
ATOM     19  N   UNL     1      -1.674  -0.524   1.365  0.00  0.00    -0.273 N 
ATOM     20  C   UNL     1      -2.407   0.181   0.481  0.00  0.00    +0.284 C 
ATOM     21  O   UNL     1      -3.386   0.799   0.857  0.00  0.00    -0.266 OA
ATOM     22  H   UNL     1      -0.854  -0.957   1.079  0.00  0.00    +0.156 HD
BRANCH  20  23
ATOM     23  C   UNL     1      -2.025   0.204  -0.935  0.00  0.00    +0.189 A 
ATOM     24  C   UNL     1      -2.616   0.952  -1.913  0.00  0.00    +0.054 A 
ATOM     25  C   UNL     1      -1.935   0.665  -3.107  0.00  0.00    +0.042 A 
ATOM     26  C   UNL     1      -0.971  -0.234  -2.808  0.00  0.00    +0.196 A 
ATOM     27  O   UNL     1      -1.025  -0.505  -1.498  0.00  0.00    -0.458 OA
ENDBRANCH  20  23
ENDBRANCH  16  19
ENDBRANCH   1  12
BRANCH   1  28
ATOM     28  C   UNL     1       0.954  -0.735   3.518  0.00  0.00    -0.023 A 
ATOM     29  C   UNL     1       1.228  -0.111   2.315  0.00  0.00    +0.009 A 
ATOM     30  C   UNL     1       2.186   0.882   2.253  0.00  0.00    +0.046 A 
ATOM     31  C   UNL     1       2.873   1.254   3.399  0.00  0.00    +0.127 A 
ATOM     32  C   UNL     1       2.596   0.627   4.605  0.00  0.00    +0.046 A 
ATOM     33  C   UNL     1       1.634  -0.363   4.663  0.00  0.00    +0.009 A 
BRANCH  31  34
ATOM     34  O   UNL     1       3.816   2.231   3.340  0.00  0.00    -0.434 OA
BRANCH  34  35
ATOM     35  C   UNL     1       4.484   2.562   4.559  0.00  0.00    +0.541 C 
ATOM     36  F   UNL     1       3.546   3.001   5.501  0.00  0.00    -0.166 F 
ATOM     37  F   UNL     1       5.144   1.431   5.051  0.00  0.00    -0.166 F 
ENDBRANCH  34  35
ENDBRANCH  31  34
ENDBRANCH   1  28
TORSDOF 7
