REMARK  Name = ZINC00636742
REMARK  10 active torsions:
REMARK  status: ('A' for Active; 'I' for Inactive)
REMARK    1  A    between atoms: C_1  and  C_2
REMARK    2  A    between atoms: C_5  and  O_12
REMARK    3  A    between atoms: C_6  and  C_8
REMARK    4  A    between atoms: C_8  and  C_9
REMARK    5  A    between atoms: C_8  and  C_10
REMARK    6  A    between atoms: C_8  and  C_11
REMARK    7  A    between atoms: O_12  and  C_13
REMARK    8  A    between atoms: C_13  and  C_14
REMARK    9  A    between atoms: N_16  and  C_17
REMARK   10  A    between atoms: C_18  and  C_26
REMARK                            x       y       z     vdW  Elec       q    Type
REMARK                         _______ _______ _______ _____ _____    ______ ____
ROOT
ATOM      1  C   UNL     1       0.079  -6.266  -1.108  0.00  0.00    +0.255 C 
ATOM      2  O   UNL     1       0.090  -6.735   0.010  0.00  0.00    -0.272 OA
ATOM      3  N   UNL     1       0.084  -7.081  -2.182  0.00  0.00    -0.277 N 
ATOM      4  H   UNL     1       0.074  -6.705  -3.076  0.00  0.00    +0.155 HD
ENDROOT
BRANCH   3   5
ATOM      5  C   UNL     1       0.102  -8.456  -2.007  0.00  0.00    +0.084 A 
ATOM      6  C   UNL     1       0.116  -9.439  -2.985  0.00  0.00    +0.068 A 
ATOM      7  C   UNL     1       0.134 -10.821  -2.538  0.00  0.00    -0.023 A 
ATOM      8  C   UNL     1       0.136 -10.967  -1.195  0.00  0.00    -0.004 A 
ATOM      9  S   UNL     1       0.121  -9.314  -0.564  0.00  0.00    -0.077 S 
ATOM     10  C   UNL     1       0.151 -12.254  -0.430  0.00  0.00    +0.043 C 
ATOM     11  C   UNL     1      -0.215 -13.392  -1.394  0.00  0.00    +0.005 C 
ATOM     12  C   UNL     1       0.620 -13.249  -2.670  0.00  0.00    +0.005 C 
ATOM     13  C   UNL     1       0.152 -12.027  -3.464  0.00  0.00    +0.037 C 
BRANCH   6  14
ATOM     14  C   UNL     1       0.111  -9.098  -4.411  0.00  0.00    +0.244 C 
ATOM     15  O   UNL     1       1.163  -8.942  -5.003  0.00  0.00    -0.270 OA
ATOM     16  N   UNL     1      -1.058  -8.957  -5.066  0.00  0.00    -0.325 N 
ATOM     17  H   UNL     1      -1.897  -9.081  -4.594  0.00  0.00    +0.145 HD
ATOM     18  H   UNL     1      -1.062  -8.731  -6.009  0.00  0.00    +0.145 HD
ENDBRANCH   6  14
ENDBRANCH   3   5
BRANCH   1  19
ATOM     19  C   UNL     1       0.058  -4.771  -1.298  0.00  0.00    +0.324 C 
BRANCH  19  20
ATOM     20  O   UNL     1       0.057  -4.129  -0.021  0.00  0.00    -0.482 OA
BRANCH  20  25
ATOM     21  C   UNL     1      -0.018   1.503   0.010  0.00  0.00    +0.044 C 
ATOM     22  C   UNL     1       0.002  -0.004   0.002  0.00  0.00    -0.050 A 
ATOM     23  C   UNL     1       0.006  -0.688  -1.200  0.00  0.00    +0.007 A 
ATOM     24  C   UNL     1       0.024  -2.069  -1.210  0.00  0.00    +0.046 A 
ATOM     25  C   UNL     1       0.039  -2.770  -0.013  0.00  0.00    +0.125 A 
ATOM     26  C   UNL     1       0.036  -2.082   1.191  0.00  0.00    -0.000 A 
ATOM     27  C   UNL     1       0.023  -0.701   1.196  0.00  0.00    +0.011 A 
BRANCH  26  28
ATOM     28  C   UNL     1       0.052  -2.841   2.493  0.00  0.00    -0.009 C 
ATOM     29  C   UNL     1       0.045  -1.851   3.660  0.00  0.00    +0.015 C 
ATOM     30  C   UNL     1      -1.185  -3.737   2.577  0.00  0.00    +0.015 C 
ATOM     31  C   UNL     1       1.313  -3.704   2.565  0.00  0.00    +0.015 C 
ENDBRANCH  26  28
ENDBRANCH  20  25
ENDBRANCH  19  20
ENDBRANCH   1  19
TORSDOF 6
