REMARK  Name = ZINC22321278
REMARK  13 active torsions:
REMARK  status: ('A' for Active; 'I' for Inactive)
REMARK    1  A    between atoms: C_1  and  C_2
REMARK    2  A    between atoms: C_5  and  S_8
REMARK    3  A    between atoms: S_8  and  N_11
REMARK    4  A    between atoms: N_11  and  C_12
REMARK    5  A    between atoms: N_11  and  C_31
REMARK    6  A    between atoms: C_12  and  C_13
REMARK    7  A    between atoms: N_15  and  C_16
REMARK    8  A    between atoms: C_16  and  C_17
REMARK    9  A    between atoms: C_17  and  C_19
REMARK   10  A    between atoms: C_17  and  C_20
REMARK   11  A    between atoms: C_20  and  C_21
REMARK   12  A    between atoms: C_35  and  O_37
REMARK   13  A    between atoms: O_37  and  C_38
REMARK                            x       y       z     vdW  Elec       q    Type
REMARK                         _______ _______ _______ _____ _____    ______ ____
ROOT
ATOM      1  N   UNL     1      -2.173   5.305   3.752  0.00  0.00    -0.194 N 
ENDROOT
BRANCH   1   2
ATOM      2  C   UNL     1      -1.521   4.785   2.631  0.00  0.00    +0.055 A 
ATOM      3  C   UNL     1      -0.363   5.391   2.156  0.00  0.00    +0.025 A 
ATOM      4  C   UNL     1       0.281   4.877   1.048  0.00  0.00    +0.005 A 
ATOM      5  C   UNL     1      -0.223   3.761   0.408  0.00  0.00    +0.046 A 
ATOM      6  C   UNL     1      -1.379   3.152   0.877  0.00  0.00    +0.122 A 
ATOM      7  C   UNL     1      -2.032   3.667   1.986  0.00  0.00    +0.070 A 
BRANCH   6   8
ATOM      8  O   UNL     1      -1.874   2.055   0.246  0.00  0.00    -0.495 OA
ATOM      9  C   UNL     1      -1.153   1.582  -0.894  0.00  0.00    +0.277 C 
ENDBRANCH   6   8
ENDBRANCH   1   2
BRANCH   1  10
ATOM     10  S   UNL     1      -2.743   6.859   3.731  0.00  0.00    +0.075 S 
ATOM     11  O   UNL     1      -2.701   7.325   5.073  0.00  0.00    -0.150 OA
ATOM     12  O   UNL     1      -2.068   7.526   2.673  0.00  0.00    -0.150 OA
BRANCH  10  17
ATOM     13  C   UNL     1      -8.566   6.606   2.175  0.00  0.00    +0.044 C 
ATOM     14  C   UNL     1      -7.112   6.669   2.564  0.00  0.00    -0.050 A 
ATOM     15  C   UNL     1      -6.749   6.601   3.896  0.00  0.00    +0.005 A 
ATOM     16  C   UNL     1      -5.415   6.660   4.252  0.00  0.00    +0.029 A 
ATOM     17  C   UNL     1      -4.443   6.785   3.277  0.00  0.00    +0.109 A 
ATOM     18  C   UNL     1      -4.807   6.858   1.945  0.00  0.00    +0.029 A 
ATOM     19  C   UNL     1      -6.141   6.795   1.588  0.00  0.00    +0.005 A 
ENDBRANCH  10  17
ENDBRANCH   1  10
BRANCH   1  20
ATOM     20  C   UNL     1      -2.352   4.474   4.945  0.00  0.00    +0.227 C 
BRANCH  20  21
ATOM     21  C   UNL     1      -1.117   4.556   5.805  0.00  0.00    +0.232 C 
ATOM     22  O   UNL     1      -0.179   5.241   5.455  0.00  0.00    -0.274 OA
ATOM     23  N   UNL     1      -1.055   3.869   6.962  0.00  0.00    -0.314 N 
ATOM     24  H   UNL     1      -1.906   3.248   7.279  0.00  0.00    +0.149 HD
BRANCH  23  25
ATOM     25  C   UNL     1       0.145   3.949   7.798  0.00  0.00    +0.107 C 
BRANCH  25  26
ATOM     26  C   UNL     1      -0.042   3.081   9.044  0.00  0.00    +0.007 C 
ATOM     27  C   UNL     1      -0.151   1.612   8.632  0.00  0.00    +0.009 C 
BRANCH  26  28
ATOM     28  C   UNL     1       1.157   3.262   9.977  0.00  0.00    +0.040 C 
BRANCH  28  29
ATOM     29  C   UNL     1       0.917   2.505  11.257  0.00  0.00    -0.039 A 
ATOM     30  C   UNL     1       0.399   3.143  12.342  0.00  0.00    +0.004 A 
ATOM     31  C   UNL     1       0.163   2.458  13.533  0.00  0.00    +0.001 A 
ATOM     32  C   UNL     1       0.456   1.134  13.649  0.00  0.00    +0.008 A 
ATOM     33  C   UNL     1       0.998   0.443  12.552  0.00  0.00    -0.018 A 
ATOM     34  C   UNL     1       1.232   1.138  11.339  0.00  0.00    -0.015 A 
ATOM     35  C   UNL     1       1.774   0.446  10.243  0.00  0.00    +0.009 A 
ATOM     36  C   UNL     1       2.067  -0.877  10.359  0.00  0.00    +0.001 A 
ATOM     37  C   UNL     1       1.838  -1.561  11.552  0.00  0.00    +0.001 A 
ATOM     38  C   UNL     1       1.314  -0.924  12.635  0.00  0.00    +0.008 A 
ENDBRANCH  28  29
ENDBRANCH  26  28
ENDBRANCH  25  26
ENDBRANCH  23  25
ENDBRANCH  20  21
ENDBRANCH   1  20
TORSDOF 10
