REMARK  Name = ZINC49979918
REMARK  5 active torsions:
REMARK  status: ('A' for Active; 'I' for Inactive)
REMARK    1  A    between atoms: C_1  and  C_2
REMARK    2  A    between atoms: C_6  and  N_8
REMARK    3  A    between atoms: N_8  and  C_9
REMARK    4  A    between atoms: N_8  and  C_10
REMARK    5  A    between atoms: C_15  and  N_16
REMARK                            x       y       z     vdW  Elec       q    Type
REMARK                         _______ _______ _______ _____ _____    ______ ____
ROOT
ATOM      1  C   UNL     1       0.071  -4.191   2.380  0.00  0.00    +0.057 A 
ATOM      2  C   UNL     1       1.282  -4.860   2.375  0.00  0.00    +0.053 A 
ATOM      3  C   UNL     1       1.302  -6.254   2.365  0.00  0.00    +0.080 A 
ATOM      4  C   UNL     1       0.081  -6.968   2.360  0.00  0.00    +0.067 A 
ATOM      5  C   UNL     1      -1.134  -6.283   2.365  0.00  0.00    +0.040 A 
ATOM      6  C   UNL     1      -1.137  -4.902   2.380  0.00  0.00    +0.047 A 
ATOM      7  C   UNL     1       0.141  -8.435   2.349  0.00  0.00    +0.259 A 
ATOM      8  O   UNL     1      -0.873  -9.109   2.344  0.00  0.00    -0.267 OA
ATOM      9  N   UNL     1       1.367  -9.009   2.344  0.00  0.00    -0.313 N 
ATOM     10  H   UNL     1       1.444  -9.976   2.337  0.00  0.00    +0.170 HD
ATOM     11  C   UNL     1       2.490  -8.244   2.349  0.00  0.00    +0.199 A 
ATOM     12  N   UNL     1       2.469  -6.947   2.359  0.00  0.00    -0.237 NA
ENDROOT
BRANCH   6  13
ATOM     13  N   UNL     1      -2.353  -4.209   2.391  0.00  0.00    -0.357 N 
ATOM     14  H   UNL     1      -2.359  -3.239   2.398  0.00  0.00    +0.142 HD
ATOM     15  H   UNL     1      -3.191  -4.698   2.392  0.00  0.00    +0.142 HD
ENDBRANCH   6  13
BRANCH   1  16
ATOM     16  N   UNL     1       0.052  -2.797   2.390  0.00  0.00    -0.302 N 
ATOM     17  C   UNL     1       0.048  -2.074   3.664  0.00  0.00    +0.135 C 
BRANCH  16  23
ATOM     18  C   UNL     1      -0.018   1.503   0.010  0.00  0.00    +0.044 C 
ATOM     19  C   UNL     1       0.002  -0.004   0.002  0.00  0.00    -0.049 A 
ATOM     20  C   UNL     1       0.006  -0.688  -1.200  0.00  0.00    +0.003 A 
ATOM     21  C   UNL     1       0.025  -2.071  -1.212  0.00  0.00    +0.002 A 
ATOM     22  C   UNL     1       0.041  -2.773  -0.023  0.00  0.00    +0.023 A 
ATOM     23  C   UNL     1       0.037  -2.089   1.186  0.00  0.00    +0.034 A 
ATOM     24  C   UNL     1       0.023  -0.700   1.194  0.00  0.00    +0.026 A 
ENDBRANCH  16  23
ENDBRANCH   1  16
TORSDOF 3
