REMARK  Name = ZINC01177244
REMARK  4 active torsions:
REMARK  status: ('A' for Active; 'I' for Inactive)
REMARK    1  A    between atoms: C_4  and  O_7
REMARK    2  A    between atoms: O_7  and  C_8
REMARK    3  A    between atoms: C_13  and  N_14
REMARK    4  A    between atoms: C_15  and  C_17
REMARK                            x       y       z     vdW  Elec       q    Type
REMARK                         _______ _______ _______ _____ _____    ______ ____
ROOT
ATOM      1  N   UNL     1       4.981  -0.165  -0.087  0.00  0.00    -0.278 N 
ATOM      2  C   UNL     1       4.843   1.052   0.475  0.00  0.00    +0.255 C 
ATOM      3  O   UNL     1       5.798   1.590   1.003  0.00  0.00    -0.270 OA
ATOM      4  H   UNL     1       4.203  -0.630  -0.432  0.00  0.00    +0.155 HD
ENDROOT
BRANCH   2   5
ATOM      5  C   UNL     1       3.537   1.731   0.450  0.00  0.00    +0.122 A 
ATOM      6  C   UNL     1       2.441   1.130  -0.146  0.00  0.00    +0.031 A 
ATOM      7  C   UNL     1       1.202   1.819  -0.147  0.00  0.00    +0.019 A 
ATOM      8  C   UNL     1       0.073   1.239  -0.743  0.00  0.00    +0.026 A 
ATOM      9  C   UNL     1      -1.116   1.911  -0.745  0.00  0.00    +0.019 A 
ATOM     10  C   UNL     1      -1.219   3.162  -0.150  0.00  0.00    +0.019 A 
ATOM     11  C   UNL     1      -0.121   3.750   0.441  0.00  0.00    +0.048 A 
ATOM     12  C   UNL     1       1.102   3.088   0.451  0.00  0.00    +0.139 A 
ATOM     13  O   UNL     1       2.175   3.667   1.031  0.00  0.00    -0.422 OA
ATOM     14  C   UNL     1       3.372   3.056   1.058  0.00  0.00    +0.350 A 
ATOM     15  O   UNL     1       4.321   3.603   1.588  0.00  0.00    -0.244 OA
ATOM     16 BR   UNL     1      -2.635   1.129  -1.556  0.00  0.00    -0.050 Br
ENDBRANCH   2   5
BRANCH   1  22
ATOM     17  C   UNL     1       6.365  -2.143  -0.261  0.00  0.00    +0.150 A 
ATOM     18  C   UNL     1       7.621  -2.723  -0.345  0.00  0.00    +0.048 A 
ATOM     19  C   UNL     1       8.752  -1.928  -0.342  0.00  0.00    +0.004 A 
ATOM     20  C   UNL     1       8.635  -0.553  -0.255  0.00  0.00    +0.002 A 
ATOM     21  C   UNL     1       7.386   0.035  -0.177  0.00  0.00    +0.027 A 
ATOM     22  C   UNL     1       6.247  -0.757  -0.173  0.00  0.00    +0.076 A 
BRANCH  17  23
ATOM     23  O   UNL     1       5.252  -2.923  -0.262  0.00  0.00    -0.454 OA
BRANCH  23  27
ATOM     24  C   UNL     1       3.486  -3.768  -3.893  0.00  0.00    +0.000 A 
ATOM     25  C   UNL     1       3.006  -4.358  -2.739  0.00  0.00    +0.004 A 
ATOM     26  C   UNL     1       3.596  -4.077  -1.522  0.00  0.00    +0.046 A 
ATOM     27  C   UNL     1       4.670  -3.201  -1.458  0.00  0.00    +0.129 A 
ATOM     28  C   UNL     1       5.146  -2.606  -2.618  0.00  0.00    +0.046 A 
ATOM     29  C   UNL     1       4.556  -2.895  -3.833  0.00  0.00    +0.004 A 
ENDBRANCH  23  27
ENDBRANCH  17  23
ENDBRANCH   1  22
TORSDOF 4
