REMARK  Name = ZINC36346088
REMARK  13 active torsions:
REMARK  status: ('A' for Active; 'I' for Inactive)
REMARK    1  A    between atoms: C_1  and  C_2
REMARK    2  A    between atoms: C_3  and  C_21
REMARK    3  A    between atoms: C_4  and  O_13
REMARK    4  A    between atoms: N_5  and  C_7
REMARK    5  A    between atoms: O_13  and  C_14
REMARK    6  A    between atoms: C_21  and  N_22
REMARK    7  A    between atoms: N_22  and  C_23
REMARK    8  A    between atoms: N_22  and  C_27
REMARK    9  A    between atoms: C_23  and  C_24
REMARK   10  A    between atoms: C_27  and  C_28
REMARK   11  A    between atoms: C_28  and  C_30
REMARK   12  A    between atoms: C_28  and  O_37
REMARK   13  A    between atoms: C_30  and  C_31
REMARK                            x       y       z     vdW  Elec       q    Type
REMARK                         _______ _______ _______ _____ _____    ______ ____
ROOT
ATOM      1  C   UNL     1       1.181   2.193  -0.465  0.00  0.00    +0.068 C 
ATOM      2  C   UNL     1       1.224   0.712  -0.193  0.00  0.00    +0.065 A 
ATOM      3  C   UNL     1       0.947  -0.297  -1.121  0.00  0.00    +0.021 A 
ATOM      4  C   UNL     1       1.095  -1.494  -0.492  0.00  0.00    +0.225 A 
ATOM      5  N   UNL     1       1.456  -1.238   0.794  0.00  0.00    -0.200 N 
ATOM      6  N   UNL     1       1.533   0.152   0.948  0.00  0.00    -0.168 NA
ENDROOT
BRANCH   5   7
ATOM      7  C   UNL     1       1.709  -2.195   1.786  0.00  0.00    +0.069 A 
ATOM      8  C   UNL     1       0.886  -3.307   1.907  0.00  0.00    +0.028 A 
ATOM      9  C   UNL     1       1.139  -4.248   2.886  0.00  0.00    +0.002 A 
ATOM     10  C   UNL     1       2.210  -4.084   3.745  0.00  0.00    +0.000 A 
ATOM     11  C   UNL     1       3.031  -2.978   3.627  0.00  0.00    +0.002 A 
ATOM     12  C   UNL     1       2.787  -2.036   2.647  0.00  0.00    +0.028 A 
ENDBRANCH   5   7
BRANCH   4  13
ATOM     13  O   UNL     1       0.916  -2.720  -1.047  0.00  0.00    -0.435 OA
BRANCH  13  14
ATOM     14  C   UNL     1      -0.343  -3.232  -1.070  0.00  0.00    +0.165 A 
ATOM     15  C   UNL     1      -1.412  -2.467  -0.630  0.00  0.00    +0.049 A 
ATOM     16  C   UNL     1      -2.691  -2.990  -0.654  0.00  0.00    +0.004 A 
ATOM     17  C   UNL     1      -2.906  -4.275  -1.116  0.00  0.00    +0.003 A 
ATOM     18  C   UNL     1      -1.843  -5.041  -1.556  0.00  0.00    +0.042 A 
ATOM     19  C   UNL     1      -0.561  -4.521  -1.539  0.00  0.00    +0.165 A 
ATOM     20  F   UNL     1       0.477  -5.268  -1.974  0.00  0.00    -0.202 F 
ENDBRANCH  13  14
ENDBRANCH   4  13
BRANCH   3  21
ATOM     21  C   UNL     1       0.554  -0.095  -2.561  0.00  0.00    -0.036 C 
BRANCH  21  22
ATOM     22  N   UNL     1       1.761  -0.057  -3.398  0.00  0.00    +0.384 N 
ATOM     23  H   UNL     1       2.390   0.651  -3.049  0.00  0.00    -0.081 HD
BRANCH  22  24
ATOM     24  C   UNL     1       2.426  -1.366  -3.357  0.00  0.00    -0.075 C 
BRANCH  24  25
ATOM     25  C   UNL     1       3.749  -1.290  -4.121  0.00  0.00    -0.028 C 
ATOM     26  C   UNL     1       3.884  -2.137  -5.388  0.00  0.00    +0.002 C 
ATOM     27  C   UNL     1       4.639  -2.534  -4.118  0.00  0.00    +0.002 C 
ENDBRANCH  24  25
ENDBRANCH  22  24
BRANCH  22  28
ATOM     28  C   UNL     1       1.387   0.260  -4.783  0.00  0.00    -0.046 C 
BRANCH  28  29
ATOM     29  C   UNL     1       0.832   1.684  -4.848  0.00  0.00    +0.102 C 
BRANCH  29  30
ATOM     30  O   UNL     1       1.837   2.607  -4.423  0.00  0.00    -0.393 OA
ATOM     31  H   UNL     1       2.610   2.642  -5.004  0.00  0.00    +0.210 HD
ENDBRANCH  29  30
BRANCH  29  32
ATOM     32  C   UNL     1       0.421   2.006  -6.286  0.00  0.00    +0.064 C 
BRANCH  32  33
ATOM     33  C   UNL     1      -0.238   3.360  -6.330  0.00  0.00    -0.045 A 
ATOM     34  C   UNL     1      -1.604   3.471  -6.153  0.00  0.00    +0.004 A 
ATOM     35  C   UNL     1      -2.208   4.713  -6.193  0.00  0.00    +0.000 A 
ATOM     36  C   UNL     1      -1.446   5.846  -6.408  0.00  0.00    +0.000 A 
ATOM     37  C   UNL     1      -0.079   5.736  -6.584  0.00  0.00    +0.000 A 
ATOM     38  C   UNL     1       0.525   4.493  -6.540  0.00  0.00    +0.004 A 
ENDBRANCH  32  33
ENDBRANCH  29  32
ENDBRANCH  28  29
ENDBRANCH  22  28
ENDBRANCH  21  22
ENDBRANCH   3  21
TORSDOF 12
