REMARK  Name = ZINC02840302
REMARK  9 active torsions:
REMARK  status: ('A' for Active; 'I' for Inactive)
REMARK    1  A    between atoms: C_1  and  C_2
REMARK    2  A    between atoms: C_2  and  O_3
REMARK    3  A    between atoms: O_3  and  C_4
REMARK    4  A    between atoms: C_4  and  C_6
REMARK    5  A    between atoms: C_10  and  N_11
REMARK    6  A    between atoms: C_12  and  C_14
REMARK    7  A    between atoms: C_14  and  N_62
REMARK    8  A    between atoms: C_15  and  N_62
REMARK    9  A    between atoms: C_27  and  N_30
REMARK                            x       y       z     vdW  Elec       q    Type
REMARK                         _______ _______ _______ _____ _____    ______ ____
ROOT
ATOM      1  N   UNL     1      -1.230  -3.842   5.868  0.00  0.00    +0.390 N 
ATOM      2  H   UNL     1      -0.416  -4.444   5.693  0.00  0.00    -0.084 HD
ATOM      3  H   UNL     1      -2.092  -4.379   5.717  0.00  0.00    -0.084 HD
ENDROOT
BRANCH   1   4
ATOM      4  C   UNL     1      -1.190  -3.366   7.264  0.00  0.00    -0.023 C 
ATOM      5  C   UNL     1       0.264  -3.140   7.691  0.00  0.00    -0.009 C 
ATOM      6  C   UNL     1       0.320  -2.899   9.202  0.00  0.00    +0.003 C 
ATOM      7  C   UNL     1      -0.005  -4.206   9.936  0.00  0.00    +0.037 C 
ATOM      8  C   UNL     1      -1.269  -4.784   9.351  0.00  0.00    -0.021 A 
ATOM      9  C   UNL     1      -1.800  -4.414   8.166  0.00  0.00    +0.006 A 
ATOM     10  N   UNL     1      -2.946  -5.126   7.929  0.00  0.00    -0.359 N 
ATOM     11  H   UNL     1      -3.507  -5.035   7.142  0.00  0.00    +0.166 HD
ATOM     12  C   UNL     1      -3.181  -5.983   8.965  0.00  0.00    +0.047 A 
ATOM     13  C   UNL     1      -2.134  -5.804   9.906  0.00  0.00    +0.005 A 
ATOM     14  C   UNL     1      -2.088  -6.545  11.090  0.00  0.00    +0.043 A 
ATOM     15  C   UNL     1      -3.102  -7.450  11.296  0.00  0.00    +0.127 A 
ATOM     16  C   UNL     1      -4.126  -7.628  10.381  0.00  0.00    +0.035 A 
ATOM     17  C   UNL     1      -4.196  -6.908   9.201  0.00  0.00    +0.028 A 
BRANCH  15  18
ATOM     18  N   UNL     1      -3.098  -8.260  12.535  0.00  0.00    +0.056 N 
ATOM     19  O   UNL     1      -2.206  -8.119  13.352  0.00  0.00    -0.126 OA
ATOM     20  O   UNL     1      -3.987  -9.067  12.737  0.00  0.00    -0.126 OA
ENDBRANCH  15  18
ENDBRANCH   1   4
BRANCH   1  21
ATOM     21  C   UNL     1      -1.199  -2.699   4.937  0.00  0.00    +0.016 C 
BRANCH  21  23
ATOM     22  N   UNL     1      -1.221  -2.349   2.488  0.00  0.00    -0.281 N 
ATOM     23  C   UNL     1      -1.240  -3.214   3.521  0.00  0.00    +0.201 C 
ATOM     24  O   UNL     1      -1.289  -4.407   3.312  0.00  0.00    -0.278 OA
ATOM     25  H   UNL     1      -1.182  -1.394   2.656  0.00  0.00    +0.155 HD
BRANCH  22  30
ATOM     26  C   UNL     1      -1.248  -2.096   0.003  0.00  0.00    +0.091 A 
ATOM     27  C   UNL     1      -1.289  -2.843  -1.244  0.00  0.00    -0.021 A 
ATOM     28  C   UNL     1      -1.340  -4.185  -1.108  0.00  0.00    -0.004 A 
ATOM     29  S   UNL     1      -1.334  -4.465   0.640  0.00  0.00    -0.077 S 
ATOM     30  C   UNL     1      -1.259  -2.822   1.186  0.00  0.00    +0.086 A 
ATOM     31  C   UNL     1      -1.391  -5.203  -2.206  0.00  0.00    +0.043 C 
ATOM     32  C   UNL     1      -1.755  -4.485  -3.514  0.00  0.00    +0.005 C 
ATOM     33  C   UNL     1      -0.870  -3.243  -3.657  0.00  0.00    +0.005 C 
ATOM     34  C   UNL     1      -1.277  -2.193  -2.622  0.00  0.00    +0.037 C 
BRANCH  26  35
ATOM     35  C   UNL     1      -1.191  -0.633   0.010  0.00  0.00    +0.342 C 
ATOM     36  O   UNL     1      -2.220   0.016   0.023  0.00  0.00    -0.245 OA
BRANCH  35  37
ATOM     37  O   UNL     1       0.002  -0.004   0.002  0.00  0.00    -0.461 OA
BRANCH  37  39
ATOM     38  C   UNL     1       1.418   1.977  -0.001  0.00  0.00    +0.048 C 
ATOM     39  C   UNL     1      -0.018   1.448   0.010  0.00  0.00    +0.229 C 
ENDBRANCH  37  39
ENDBRANCH  35  37
ENDBRANCH  26  35
ENDBRANCH  22  30
ENDBRANCH  21  23
ENDBRANCH   1  21
TORSDOF 8
