REMARK  Name = ZINC35037977
REMARK  12 active torsions:
REMARK  status: ('A' for Active; 'I' for Inactive)
REMARK    1  A    between atoms: C_1  and  C_2
REMARK    2  A    between atoms: C_2  and  C_3
REMARK    3  A    between atoms: C_3  and  C_5
REMARK    4  A    between atoms: C_3  and  N_23
REMARK    5  A    between atoms: N_15  and  C_16
REMARK    6  A    between atoms: N_23  and  C_24
REMARK    7  A    between atoms: C_24  and  C_25
REMARK    8  A    between atoms: C_25  and  N_26
REMARK    9  A    between atoms: N_26  and  C_27
REMARK   10  A    between atoms: N_26  and  C_28
REMARK   11  A    between atoms: C_29  and  C_31
REMARK   12  A    between atoms: C_31  and  C_32
REMARK                            x       y       z     vdW  Elec       q    Type
REMARK                         _______ _______ _______ _____ _____    ______ ____
ROOT
ATOM      1  C   UNL     1       0.881  -0.767   1.585  0.00  0.00    +0.142 C 
ENDROOT
BRANCH   1   2
ATOM      2  C   UNL     1       0.908  -2.259   1.369  0.00  0.00    +0.138 A 
ATOM      3  N   UNL     1       0.162  -2.759   0.432  0.00  0.00    -0.231 NA
ATOM      4  C   UNL     1       0.135  -4.091   0.179  0.00  0.00    +0.078 A 
ATOM      5  C   UNL     1      -0.667  -4.630  -0.829  0.00  0.00    +0.028 A 
ATOM      6  C   UNL     1      -0.663  -5.988  -1.052  0.00  0.00    +0.002 A 
ATOM      7  C   UNL     1       0.131  -6.832  -0.286  0.00  0.00    +0.001 A 
ATOM      8  C   UNL     1       0.931  -6.325   0.714  0.00  0.00    +0.015 A 
ATOM      9  C   UNL     1       0.942  -4.953   0.956  0.00  0.00    +0.065 A 
ATOM     10  C   UNL     1       1.776  -4.355   2.008  0.00  0.00    +0.266 A 
ATOM     11  O   UNL     1       2.493  -5.041   2.712  0.00  0.00    -0.267 OA
ATOM     12  N   UNL     1       1.719  -3.011   2.160  0.00  0.00    -0.263 N 
BRANCH  12  13
ATOM     13  C   UNL     1       2.498  -2.391   3.146  0.00  0.00    +0.051 A 
ATOM     14  C   UNL     1       2.161  -2.527   4.486  0.00  0.00    +0.028 A 
ATOM     15  C   UNL     1       2.931  -1.914   5.456  0.00  0.00    +0.022 A 
ATOM     16  C   UNL     1       4.036  -1.165   5.093  0.00  0.00    +0.041 A 
ATOM     17  C   UNL     1       4.373  -1.027   3.757  0.00  0.00    +0.022 A 
ATOM     18  C   UNL     1       3.611  -1.643   2.784  0.00  0.00    +0.028 A 
ATOM     19 CL   UNL     1       5.000  -0.395   6.314  0.00  0.00    -0.084 Cl
ENDBRANCH  12  13
ENDBRANCH   1   2
BRANCH   1  20
ATOM     20  N   UNL     1       0.094  -0.463   2.783  0.00  0.00    -0.293 N 
ATOM     21  C   UNL     1       0.629   0.285   3.769  0.00  0.00    +0.221 C 
ATOM     22  O   UNL     1       1.762   0.706   3.664  0.00  0.00    -0.275 OA
BRANCH  20  23
ATOM     23  C   UNL     1      -1.274  -0.971   2.910  0.00  0.00    +0.090 C 
BRANCH  23  24
ATOM     24  C   UNL     1      -1.260  -2.280   3.703  0.00  0.00    -0.060 C 
BRANCH  24  25
ATOM     25  N   UNL     1      -2.613  -2.853   3.726  0.00  0.00    +0.377 N 
ATOM     26  C   UNL     1      -2.577  -4.166   4.383  0.00  0.00    -0.097 C 
ATOM     27  C   UNL     1      -3.511  -1.958   4.468  0.00  0.00    -0.097 C 
ATOM     28  H   UNL     1      -2.950  -2.958   2.780  0.00  0.00    -0.083 HD
ENDBRANCH  24  25
ENDBRANCH  23  24
ENDBRANCH  20  23
BRANCH  21  29
ATOM     29  C   UNL     1      -0.180   0.598   5.001  0.00  0.00    +0.138 C 
BRANCH  29  30
ATOM     30  C   UNL     1       0.642   1.442   5.940  0.00  0.00    -0.001 A 
ATOM     31  C   UNL     1       0.737   2.793   6.013  0.00  0.00    +0.011 A 
ATOM     32  C   UNL     1       1.563   3.356   6.967  0.00  0.00    +0.008 A 
ATOM     33  C   UNL     1       2.255   2.542   7.801  0.00  0.00    +0.045 A 
ATOM     34  S   UNL     1       1.738   0.924   7.251  0.00  0.00    -0.101 S 
ENDBRANCH  29  30
ENDBRANCH  21  29
ENDBRANCH   1  20
BRANCH   1  36
ATOM     35  C   UNL     1       0.341   1.432   0.530  0.00  0.00    +0.006 C 
ATOM     36  C   UNL     1       0.245  -0.087   0.371  0.00  0.00    +0.027 C 
ENDBRANCH   1  36
TORSDOF 9
