REMARK  Name = ZINC63666910
REMARK  7 active torsions:
REMARK  status: ('A' for Active; 'I' for Inactive)
REMARK    1  A    between atoms: C_6  and  C_10
REMARK    2  A    between atoms: C_10  and  C_11
REMARK    3  A    between atoms: C_11  and  C_12
REMARK    4  A    between atoms: C_12  and  N_13
REMARK    5  A    between atoms: C_14  and  C_16
REMARK    6  A    between atoms: N_19  and  C_22
REMARK    7  A    between atoms: C_26  and  N_29
REMARK                            x       y       z     vdW  Elec       q    Type
REMARK                         _______ _______ _______ _____ _____    ______ ____
ROOT
ATOM      1  N   UNL     1       3.120  -6.328  -2.580  0.00  0.00    -0.315 N 
ATOM      2  C   UNL     1       3.396  -7.169  -3.596  0.00  0.00    +0.216 C 
ATOM      3  O   UNL     1       4.080  -6.794  -4.525  0.00  0.00    -0.276 OA
ATOM      4  H   UNL     1       2.573  -6.628  -1.837  0.00  0.00    +0.149 HD
ENDROOT
BRANCH   2   5
ATOM      5  C   UNL     1       2.856  -8.576  -3.578  0.00  0.00    +0.077 C 
ATOM      6  C   UNL     1       3.385  -9.311  -2.344  0.00  0.00    +0.028 C 
ATOM      7  C   UNL     1       2.883 -10.757  -2.363  0.00  0.00    +0.088 C 
ATOM      8  N   UNL     1       3.347 -11.421  -3.587  0.00  0.00    -0.271 NA
ATOM      9  C   UNL     1       2.813 -10.761  -4.785  0.00  0.00    +0.088 C 
ATOM     10  C   UNL     1       3.313  -9.316  -4.838  0.00  0.00    +0.028 C 
BRANCH   8  11
ATOM     11  C   UNL     1       3.001 -12.849  -3.575  0.00  0.00    +0.260 C 
ATOM     12  N   UNL     1       1.543 -13.052  -3.734  0.00  0.00    -0.159 NA
ATOM     13  N   UNL     1       1.113 -13.850  -4.545  0.00  0.00    -0.156 NA
ATOM     14  C   UNL     1       2.035 -14.638  -5.393  0.00  0.00    +0.279 C 
ATOM     15  S   UNL     1       3.604 -13.702  -5.100  0.00  0.00    -0.069 S 
BRANCH  14  16
ATOM     16  N   UNL     1       1.638 -14.590  -6.802  0.00  0.00    -0.270 N 
ATOM     17  C   UNL     1       1.466 -13.281  -7.419  0.00  0.00    +0.111 C 
ATOM     18  C   UNL     1       1.523 -13.396  -8.943  0.00  0.00    +0.019 C 
ATOM     19  C   UNL     1       0.556 -14.500  -9.388  0.00  0.00    +0.011 C 
ATOM     20  C   UNL     1       1.097 -15.844  -8.894  0.00  0.00    +0.096 C 
ATOM     21  C   UNL     1       1.461 -15.747  -7.441  0.00  0.00    +0.218 C 
ATOM     22  O   UNL     1       1.597 -16.776  -6.814  0.00  0.00    -0.276 OA
ENDBRANCH  14  16
ENDBRANCH   8  11
ENDBRANCH   2   5
BRANCH   1  23
ATOM     23  C   UNL     1       3.645  -4.960  -2.598  0.00  0.00    +0.104 C 
BRANCH  23  24
ATOM     24  C   UNL     1       3.188  -4.222  -1.339  0.00  0.00    +0.022 C 
BRANCH  24  25
ATOM     25  C   UNL     1       3.736  -2.794  -1.357  0.00  0.00    +0.048 C 
BRANCH  25  31
ATOM     26  C   UNL     1       0.247   1.400  -0.063  0.00  0.00    +0.002 A 
ATOM     27  C   UNL     1       1.433   2.155  -0.074  0.00  0.00    +0.002 A 
ATOM     28  C   UNL     1       2.656   1.587  -0.087  0.00  0.00    +0.027 A 
ATOM     29  C   UNL     1       2.775   0.122  -0.090  0.00  0.00    +0.060 A 
ATOM     30  N   UNL     1       3.798  -0.682  -0.101  0.00  0.00    -0.363 N 
ATOM     31  C   UNL     1       3.279  -2.056  -0.097  0.00  0.00    +0.174 C 
ATOM     32  N   UNL     1       1.815  -1.944  -0.082  0.00  0.00    -0.363 N 
ATOM     33  C   UNL     1       1.519  -0.677  -0.078  0.00  0.00    +0.060 A 
ATOM     34  C   UNL     1       0.243   0.052  -0.064  0.00  0.00    +0.027 A 
ATOM     35  H   UNL     1       4.733  -0.422  -0.111  0.00  0.00    +0.162 HD
ATOM     36  H   UNL     1       1.183  -2.681  -0.076  0.00  0.00    +0.162 HD
ENDBRANCH  25  31
ENDBRANCH  24  25
ENDBRANCH  23  24
ENDBRANCH   1  23
TORSDOF 7
