REMARK  Name = ZINC39222321
REMARK  11 active torsions:
REMARK  status: ('A' for Active; 'I' for Inactive)
REMARK    1  A    between atoms: C_1  and  C_2
REMARK    2  A    between atoms: C_4  and  C_15
REMARK    3  A    between atoms: C_5  and  C_14
REMARK    4  A    between atoms: N_6  and  C_7
REMARK    5  A    between atoms: C_15  and  C_17
REMARK    6  A    between atoms: C_17  and  O_18
REMARK    7  A    between atoms: O_18  and  C_19
REMARK    8  A    between atoms: C_19  and  C_21
REMARK    9  A    between atoms: C_21  and  C_23
REMARK   10  A    between atoms: C_21  and  N_24
REMARK   11  A    between atoms: C_25  and  C_27
REMARK                            x       y       z     vdW  Elec       q    Type
REMARK                         _______ _______ _______ _____ _____    ______ ____
ROOT
ATOM      1  C   UNL     1       0.043  -3.378  -1.450  0.00  0.00    +0.202 C 
ATOM      2  O   UNL     1       0.060  -4.471  -0.923  0.00  0.00    -0.288 OA
ENDROOT
BRANCH   1   6
ATOM      3  C   UNL     1      -0.018   1.503   0.010  0.00  0.00    +0.064 C 
ATOM      4  C   UNL     1       0.002  -0.004   0.002  0.00  0.00    +0.022 A 
ATOM      5  C   UNL     1       0.008  -0.777  -1.097  0.00  0.00    +0.034 A 
ATOM      6  C   UNL     1       0.030  -2.168  -0.626  0.00  0.00    +0.042 A 
ATOM      7  C   UNL     1       0.035  -2.101   0.755  0.00  0.00    +0.032 A 
ATOM      8  N   UNL     1       0.024  -0.802   1.112  0.00  0.00    -0.317 N 
ATOM      9  C   UNL     1       0.056  -3.277   1.697  0.00  0.00    +0.064 C 
BRANCH   8  10
ATOM     10  C   UNL     1       0.029  -0.335   2.433  0.00  0.00    +0.047 A 
ATOM     11  C   UNL     1       1.132  -0.562   3.246  0.00  0.00    +0.027 A 
ATOM     12  C   UNL     1       1.135  -0.101   4.548  0.00  0.00    +0.017 A 
ATOM     13  C   UNL     1       0.041   0.586   5.043  0.00  0.00    +0.018 A 
ATOM     14  C   UNL     1      -1.059   0.813   4.235  0.00  0.00    +0.017 A 
ATOM     15  C   UNL     1      -1.065   0.359   2.930  0.00  0.00    +0.027 A 
ATOM     16 BR   UNL     1       0.048   1.214   6.826  0.00  0.00    -0.050 Br
ENDBRANCH   8  10
ENDBRANCH   1   6
BRANCH   1  17
ATOM     17  C   UNL     1       0.035  -3.267  -2.953  0.00  0.00    +0.311 C 
BRANCH  17  18
ATOM     18  O   UNL     1       0.050  -4.574  -3.528  0.00  0.00    -0.455 OA
BRANCH  18  19
ATOM     19  C   UNL     1       0.045  -4.651  -4.868  0.00  0.00    +0.328 C 
ATOM     20  O   UNL     1       0.028  -3.641  -5.531  0.00  0.00    -0.249 OA
BRANCH  19  21
ATOM     21  C   UNL     1       0.060  -5.997  -5.546  0.00  0.00    +0.179 C 
ATOM     22  C   UNL     1      -1.176  -6.794  -5.126  0.00  0.00    +0.040 C 
BRANCH  21  23
ATOM     23  N   UNL     1       0.051  -5.812  -7.000  0.00  0.00    -0.296 N 
ATOM     24  C   UNL     1       0.554  -6.769  -7.804  0.00  0.00    +0.280 C 
ATOM     25  O   UNL     1       1.016  -7.787  -7.323  0.00  0.00    -0.267 OA
ATOM     26  H   UNL     1      -0.317  -5.000  -7.383  0.00  0.00    +0.150 HD
BRANCH  24  27
ATOM     27  C   UNL     1       0.545  -6.584  -9.259  0.00  0.00    +0.189 A 
ATOM     28  C   UNL     1       1.015  -7.472 -10.184  0.00  0.00    +0.054 A 
ATOM     29  C   UNL     1       0.807  -6.890 -11.444  0.00  0.00    +0.042 A 
ATOM     30  C   UNL     1       0.226  -5.687 -11.236  0.00  0.00    +0.196 A 
ATOM     31  O   UNL     1       0.066  -5.509  -9.918  0.00  0.00    -0.458 OA
ENDBRANCH  24  27
ENDBRANCH  21  23
ENDBRANCH  19  21
ENDBRANCH  18  19
ENDBRANCH  17  18
ENDBRANCH   1  17
TORSDOF 8
