REMARK  Name = ZINC15675338
REMARK  15 active torsions:
REMARK  status: ('A' for Active; 'I' for Inactive)
REMARK    1  A    between atoms: C_1  and  C_2
REMARK    2  A    between atoms: C_2  and  C_3
REMARK    3  A    between atoms: C_2  and  C_4
REMARK    4  A    between atoms: C_4  and  C_6
REMARK    5  A    between atoms: C_4  and  N_10
REMARK    6  A    between atoms: C_6  and  O_8
REMARK    7  A    between atoms: O_8  and  C_9
REMARK    8  A    between atoms: C_11  and  C_13
REMARK    9  A    between atoms: C_15  and  N_24
REMARK   10  A    between atoms: C_17  and  O_23
REMARK   11  A    between atoms: C_19  and  O_22
REMARK   12  A    between atoms: C_25  and  C_27
REMARK   13  A    between atoms: C_27  and  C_28
REMARK   14  A    between atoms: C_28  and  C_33
REMARK   15  A    between atoms: C_33  and  C_34
REMARK                            x       y       z     vdW  Elec       q    Type
REMARK                         _______ _______ _______ _____ _____    ______ ____
ROOT
ATOM      1  C   UNL     1      -0.390  -0.704  -0.314  0.00  0.00    +0.015 C 
ATOM      2  C   UNL     1       0.692  -1.375   0.018  0.00  0.00    +0.006 C 
ATOM      3  C   UNL     1       1.913  -0.744   0.621  0.00  0.00    +0.127 C 
ATOM      4  C   UNL     1       1.571   0.642   1.173  0.00  0.00    +0.167 C 
ATOM      5  C   UNL     1       0.823   1.427   0.089  0.00  0.00    +0.149 C 
ATOM      6  C   UNL     1      -0.546   0.777  -0.123  0.00  0.00    +0.074 C 
ENDROOT
BRANCH   1   8
ATOM      7  N   UNL     1      -2.640  -0.799  -1.259  0.00  0.00    -0.298 N 
ATOM      8  C   UNL     1      -1.513  -1.448  -0.905  0.00  0.00    +0.241 C 
ATOM      9  O   UNL     1      -1.424  -2.649  -1.075  0.00  0.00    -0.271 OA
ATOM     10  H   UNL     1      -2.711   0.158  -1.123  0.00  0.00    +0.150 HD
BRANCH   7  11
ATOM     11  C   UNL     1      -3.758  -1.541  -1.848  0.00  0.00    +0.185 C 
BRANCH  11  13
ATOM     12  C   UNL     1      -2.234  -2.435  -3.615  0.00  0.00    +0.009 C 
ATOM     13  C   UNL     1      -3.539  -1.680  -3.356  0.00  0.00    +0.014 C 
ATOM     14  C   UNL     1      -4.707  -2.454  -3.971  0.00  0.00    +0.009 C 
ENDBRANCH  11  13
BRANCH  11  15
ATOM     15  C   UNL     1      -5.043  -0.797  -1.593  0.00  0.00    +0.328 C 
ATOM     16  O   UNL     1      -5.028   0.245  -0.982  0.00  0.00    -0.249 OA
BRANCH  15  17
ATOM     17  O   UNL     1      -6.206  -1.293  -2.045  0.00  0.00    -0.467 OA
ATOM     18  C   UNL     1      -7.405  -0.523  -1.763  0.00  0.00    +0.280 C 
ENDBRANCH  15  17
ENDBRANCH  11  15
ENDBRANCH   7  11
ENDBRANCH   1   8
BRANCH   3  19
ATOM     19  N   UNL     1       2.949  -0.612  -0.406  0.00  0.00    -0.306 N 
ATOM     20  C   UNL     1       3.771  -1.647  -0.671  0.00  0.00    +0.214 C 
ATOM     21  O   UNL     1       3.653  -2.687  -0.058  0.00  0.00    -0.276 OA
ATOM     22  H   UNL     1       3.044   0.220  -0.896  0.00  0.00    +0.149 HD
BRANCH  20  23
ATOM     23  C   UNL     1       4.837  -1.512  -1.727  0.00  0.00    +0.103 C 
BRANCH  23  24
ATOM     24  C   UNL     1       5.717  -2.764  -1.728  0.00  0.00    -0.011 C 
ATOM     25  C   UNL     1       6.759  -2.676  -2.861  0.00  0.00    +0.008 C 
ATOM     26  C   UNL     1       6.872  -4.130  -3.385  0.00  0.00    +0.001 C 
ATOM     27  C   UNL     1       5.410  -4.636  -3.309  0.00  0.00    +0.001 C 
ATOM     28  C   UNL     1       4.860  -4.009  -2.012  0.00  0.00    +0.008 C 
BRANCH  24  29
ATOM     29  C   UNL     1       6.421  -2.909  -0.378  0.00  0.00    +0.132 C 
BRANCH  29  30
ATOM     30  C   UNL     1       7.286  -1.700  -0.129  0.00  0.00    +0.357 C 
ATOM     31  O   UNL     1       7.413  -0.861  -0.989  0.00  0.00    -0.246 OA
ATOM     32  O   UNL     1       7.914  -1.555   1.048  0.00  0.00    -0.246 OA
ENDBRANCH  29  30
ENDBRANCH  24  29
ENDBRANCH  23  24
ENDBRANCH  20  23
ENDBRANCH   3  19
BRANCH   5  33
ATOM     33  O   UNL     1       0.650   2.782   0.511  0.00  0.00    -0.389 OA
ATOM     34  H   UNL     1       0.169   3.332  -0.122  0.00  0.00    +0.210 HD
ENDBRANCH   5  33
BRANCH   4  35
ATOM     35  O   UNL     1       2.775   1.328   1.524  0.00  0.00    -0.387 OA
ATOM     36  H   UNL     1       2.631   2.215   1.883  0.00  0.00    +0.210 HD
ENDBRANCH   4  35
TORSDOF 12
