REMARK  Name = ZINC10248605
REMARK  6 active torsions:
REMARK  status: ('A' for Active; 'I' for Inactive)
REMARK    1  A    between atoms: C_1  and  C_2
REMARK    2  A    between atoms: N_13  and  C_14
REMARK    3  A    between atoms: C_14  and  C_15
REMARK    4  A    between atoms: C_15  and  S_16
REMARK    5  A    between atoms: S_16  and  C_17
REMARK    6  A    between atoms: N_30  and  C_31
REMARK                            x       y       z     vdW  Elec       q    Type
REMARK                         _______ _______ _______ _____ _____    ______ ____
ROOT
ATOM      1  C   UNL     1      -5.795   4.497   5.576  0.00  0.00    +0.009 C 
ATOM      2  C   UNL     1      -6.127   3.298   4.685  0.00  0.00    +0.003 C 
ATOM      3  C   UNL     1      -7.305   2.525   5.286  0.00  0.00    +0.006 C 
ATOM      4  C   UNL     1      -7.670   1.363   4.359  0.00  0.00    +0.019 C 
ATOM      5  C   UNL     1      -8.005   1.911   2.969  0.00  0.00    +0.108 C 
ATOM      6  N   UNL     1      -6.846   2.641   2.438  0.00  0.00    -0.301 N 
ATOM      7  C   UNL     1      -6.507   3.790   3.287  0.00  0.00    +0.111 C 
ATOM      8  C   UNL     1      -7.067   3.036   1.138  0.00  0.00    +0.201 A 
ATOM      9  N   UNL     1      -8.005   3.874   0.746  0.00  0.00    -0.196 NA
ATOM     10  C   UNL     1      -7.947   4.036  -0.577  0.00  0.00    +0.170 A 
ATOM     11  C   UNL     1      -6.899   3.252  -1.050  0.00  0.00    +0.153 A 
ATOM     12  N   UNL     1      -6.348   2.626   0.060  0.00  0.00    -0.305 N 
ATOM     13  C   UNL     1      -6.619   3.241  -2.428  0.00  0.00    +0.280 A 
ATOM     14  O   UNL     1      -5.706   2.562  -2.864  0.00  0.00    -0.265 OA
ATOM     15  N   UNL     1      -7.371   3.989  -3.261  0.00  0.00    -0.273 N 
ATOM     16  H   UNL     1      -7.174   3.983  -4.242  0.00  0.00    +0.173 HD
ATOM     17  C   UNL     1      -8.381   4.743  -2.794  0.00  0.00    +0.331 A 
ATOM     18  O   UNL     1      -9.038   5.405  -3.574  0.00  0.00    -0.246 OA
ATOM     19  N   UNL     1      -8.683   4.783  -1.482  0.00  0.00    -0.280 N 
ATOM     20  C   UNL     1      -9.792   5.617  -1.012  0.00  0.00    +0.155 C 
ENDROOT
BRANCH  12  21
ATOM     21  C   UNL     1      -5.215   1.697   0.066  0.00  0.00    +0.136 C 
BRANCH  21  22
ATOM     22  C   UNL     1      -3.910   2.485   0.195  0.00  0.00    +0.096 C 
BRANCH  22  23
ATOM     23  S   UNL     1      -2.508   1.335   0.203  0.00  0.00    -0.123 S 
BRANCH  23  24
ATOM     24  C   UNL     1      -1.099   2.381   0.356  0.00  0.00    +0.008 A 
ATOM     25  C   UNL     1       0.177   1.831   0.395  0.00  0.00    +0.016 A 
ATOM     26  C   UNL     1       1.279   2.655   0.509  0.00  0.00    +0.021 A 
ATOM     27  C   UNL     1       1.115   4.026   0.589  0.00  0.00    +0.041 A 
ATOM     28  C   UNL     1      -0.154   4.577   0.555  0.00  0.00    +0.021 A 
ATOM     29  C   UNL     1      -1.261   3.759   0.441  0.00  0.00    +0.016 A 
ATOM     30 CL   UNL     1       2.503   5.058   0.732  0.00  0.00    -0.084 Cl
ENDBRANCH  23  24
ENDBRANCH  22  23
ENDBRANCH  21  22
ENDBRANCH  12  21
TORSDOF 4
