REMARK  Name = ZINC17142382
REMARK  15 active torsions:
REMARK  status: ('A' for Active; 'I' for Inactive)
REMARK    1  A    between atoms: C_1  and  C_2
REMARK    2  A    between atoms: C_3  and  C_10
REMARK    3  A    between atoms: C_4  and  C_8
REMARK    4  A    between atoms: C_4  and  C_9
REMARK    5  A    between atoms: C_11  and  C_12
REMARK    6  A    between atoms: C_12  and  C_35
REMARK    7  A    between atoms: C_13  and  C_14
REMARK    8  A    between atoms: C_15  and  C_16
REMARK    9  A    between atoms: C_16  and  C_34
REMARK   10  A    between atoms: C_17  and  C_18
REMARK   11  A    between atoms: C_18  and  O_20
REMARK   12  A    between atoms: O_20  and  C_21
REMARK   13  A    between atoms: C_27  and  C_33
REMARK   14  A    between atoms: C_29  and  C_31
REMARK   15  A    between atoms: C_29  and  C_32
REMARK                            x       y       z     vdW  Elec       q    Type
REMARK                         _______ _______ _______ _____ _____    ______ ____
ROOT
ATOM      1  C   UNL     1      -4.721   1.496  -1.580  0.00  0.00    -0.044 C 
ATOM      2  C   UNL     1      -4.251   2.529  -0.825  0.00  0.00    +0.095 C 
ATOM      3  C   UNL     1      -5.380   1.771  -2.907  0.00  0.00    +0.044 C 
ENDROOT
BRANCH   1   5
ATOM      4  C   UNL     1      -5.705  -0.544  -0.791  0.00  0.00    +0.001 C 
ATOM      5  C   UNL     1      -4.592   0.176  -1.121  0.00  0.00    +0.003 C 
BRANCH   4   7
ATOM      6  C   UNL     1      -8.083  -0.664  -0.521  0.00  0.00    -0.050 C 
ATOM      7  C   UNL     1      -6.971   0.056  -0.849  0.00  0.00    +0.003 C 
ATOM      8  C   UNL     1      -7.950  -2.103  -0.096  0.00  0.00    +0.044 C 
BRANCH   6  10
ATOM      9  C   UNL     1     -10.459  -0.779  -0.252  0.00  0.00    +0.004 C 
ATOM     10  C   UNL     1      -9.353  -0.062  -0.579  0.00  0.00    +0.003 C 
BRANCH   9  13
ATOM     11  C   UNL     1     -10.882   1.513   1.119  0.00  0.00    +0.039 C 
ATOM     12  C   UNL     1     -11.989   0.925   0.282  0.00  0.00    -0.069 C 
ATOM     13  C   UNL     1     -11.745  -0.195  -0.378  0.00  0.00    -0.043 C 
ATOM     14  C   UNL     1     -12.751  -0.879  -1.257  0.00  0.00    -0.010 C 
ATOM     15  C   UNL     1     -14.160  -0.371  -0.938  0.00  0.00    +0.011 C 
ATOM     16  C   UNL     1     -14.135   1.162  -0.948  0.00  0.00    +0.005 C 
ATOM     17  C   UNL     1     -13.307   1.643   0.244  0.00  0.00    +0.031 C 
ATOM     18  C   UNL     1     -12.423  -0.590  -2.724  0.00  0.00    +0.016 C 
ATOM     19  C   UNL     1     -12.692  -2.389  -1.016  0.00  0.00    +0.016 C 
ENDBRANCH   9  13
ENDBRANCH   6  10
ENDBRANCH   4   7
ENDBRANCH   1   5
BRANCH   2  20
ATOM     20  C   UNL     1      -3.745   2.285   0.468  0.00  0.00    +0.337 C 
ATOM     21  O   UNL     1      -3.636   1.142   0.873  0.00  0.00    -0.245 OA
BRANCH  20  22
ATOM     22  O   UNL     1      -3.382   3.318   1.257  0.00  0.00    -0.423 OA
BRANCH  22  23
ATOM     23  C   UNL     1      -2.843   3.034   2.473  0.00  0.00    +0.133 A 
ATOM     24  C   UNL     1      -1.554   2.525   2.556  0.00  0.00    +0.048 A 
ATOM     25  C   UNL     1      -0.992   2.239   3.787  0.00  0.00    +0.027 A 
ATOM     26  C   UNL     1      -1.719   2.459   4.941  0.00  0.00    +0.035 A 
ATOM     27  C   UNL     1      -3.024   2.972   4.865  0.00  0.00    +0.002 A 
ATOM     28  C   UNL     1      -3.582   3.260   3.624  0.00  0.00    +0.056 A 
ATOM     29  C   UNL     1      -3.775   3.189   6.117  0.00  0.00    -0.043 C 
ATOM     30  C   UNL     1      -3.130   3.200   7.277  0.00  0.00    +0.002 C 
ATOM     31  C   UNL     1      -1.638   3.009   7.340  0.00  0.00    +0.045 C 
ATOM     32  N   UNL     1      -1.190   2.189   6.207  0.00  0.00    -0.335 N 
ATOM     33  C   UNL     1      -1.271   2.310   8.650  0.00  0.00    +0.036 C 
ATOM     34  C   UNL     1      -0.951   4.375   7.282  0.00  0.00    +0.036 C 
ATOM     35  C   UNL     1      -5.267   3.399   6.079  0.00  0.00    +0.044 C 
ATOM     36  H   UNL     1      -0.542   1.478   6.333  0.00  0.00    +0.147 HD
ENDBRANCH  22  23
ENDBRANCH  20  22
ENDBRANCH   2  20
TORSDOF 7
