REMARK  Name = ZINC31862603
REMARK  3 active torsions:
REMARK  status: ('A' for Active; 'I' for Inactive)
REMARK    1  A    between atoms: C_1  and  C_2
REMARK    2  A    between atoms: C_10  and  C_11
REMARK    3  A    between atoms: N_13  and  N_14
REMARK                            x       y       z     vdW  Elec       q    Type
REMARK                         _______ _______ _______ _____ _____    ______ ____
ROOT
ATOM      1  C   UNL     1       5.355  -0.811   4.632  0.00  0.00    +0.007 C 
ATOM      2  C   UNL     1       4.388  -0.594   3.466  0.00  0.00    -0.012 C 
ATOM      3  C   UNL     1       3.687   0.759   3.622  0.00  0.00    +0.008 C 
ATOM      4  C   UNL     1       2.550   0.876   2.607  0.00  0.00    +0.033 C 
ATOM      5  C   UNL     1       3.096   0.567   1.219  0.00  0.00    -0.042 C 
ATOM      6  C   UNL     1       4.265  -0.089   1.062  0.00  0.00    +0.080 C 
ATOM      7  S   UNL     1       4.484  -0.213  -0.691  0.00  0.00    -0.098 S 
ATOM      8  C   UNL     1       3.040   0.590  -1.211  0.00  0.00    +0.101 C 
ATOM      9  C   UNL     1       2.425   0.941  -0.016  0.00  0.00    +0.069 C 
ATOM     10  N   UNL     1       2.606   0.826  -2.502  0.00  0.00    -0.292 NA
ATOM     11  C   UNL     1       5.168  -0.597   2.143  0.00  0.00    +0.022 C 
ATOM     12  H   UNL     1       1.657   1.355  -2.675  0.00  0.00    +0.187 HD
ENDROOT
BRANCH   9  13
ATOM     13  C   UNL     1       1.149   1.659   0.000  0.00  0.00    +0.260 C 
ATOM     14  O   UNL     1       1.136   2.877   0.005  0.00  0.00    -0.269 OA
ATOM     15  N   UNL     1      -0.011   0.973   0.010  0.00  0.00    -0.249 N 
ATOM     16  H   UNL     1       0.001  -0.127   0.010  0.00  0.00    +0.169 HD
BRANCH  15  17
ATOM     17  N   UNL     1      -1.201   1.644   0.019  0.00  0.00    -0.254 NA
ATOM     18  H   UNL     1      -2.030   0.921   0.026  0.00  0.00    +0.140 HD
ATOM     19  H   UNL     1      -1.259   2.276   0.917  0.00  0.00    +0.140 HD
ENDBRANCH  15  17
ENDBRANCH   9  13
TORSDOF 2
