REMARK  Name = ZINC34798791
REMARK  14 active torsions:
REMARK  status: ('A' for Active; 'I' for Inactive)
REMARK    1  A    between atoms: C_1  and  C_2
REMARK    2  A    between atoms: C_2  and  O_3
REMARK    3  A    between atoms: O_3  and  C_4
REMARK    4  A    between atoms: C_4  and  C_6
REMARK    5  A    between atoms: C_7  and  C_37
REMARK    6  A    between atoms: C_14  and  C_15
REMARK    7  A    between atoms: C_19  and  O_23
REMARK    8  A    between atoms: C_20  and  O_21
REMARK    9  A    between atoms: O_21  and  C_22
REMARK   10  A    between atoms: O_23  and  C_24
REMARK   11  A    between atoms: C_26  and  C_28
REMARK   12  A    between atoms: C_31  and  C_34
REMARK   13  A    between atoms: C_34  and  C_35
REMARK   14  A    between atoms: C_34  and  C_36
REMARK                            x       y       z     vdW  Elec       q    Type
REMARK                         _______ _______ _______ _____ _____    ______ ____
ROOT
ATOM      1  C   UNL     1      -3.114  -2.819   1.702  0.00  0.00    +0.085 C 
ATOM      2  C   UNL     1      -3.283  -4.082   1.209  0.00  0.00    +0.053 C 
ATOM      3  N   UNL     1      -4.439  -4.446   0.667  0.00  0.00    -0.228 NA
ATOM      4  C   UNL     1      -5.488  -3.671   0.554  0.00  0.00    +0.178 A 
ATOM      5  N   UNL     1      -5.531  -2.365   0.986  0.00  0.00    -0.275 N 
ATOM      6  C   UNL     1      -6.662  -1.669   0.816  0.00  0.00    +0.268 A 
ATOM      7  O   UNL     1      -6.747  -0.511   1.181  0.00  0.00    -0.266 OA
ATOM      8  C   UNL     1      -7.798  -2.345   0.174  0.00  0.00    +0.081 A 
ATOM      9  C   UNL     1      -9.038  -1.869  -0.110  0.00  0.00    +0.032 C 
ATOM     10  S   UNL     1      -7.107  -3.963  -0.131  0.00  0.00    -0.046 S 
ATOM     11  C   UNL     1      -4.279  -1.860   1.617  0.00  0.00    +0.162 C 
ATOM     12  C   UNL     1      -2.147  -5.070   1.280  0.00  0.00    +0.066 C 
ENDROOT
BRANCH   9  13
ATOM     13  C   UNL     1      -9.339  -0.445   0.084  0.00  0.00    +0.022 A 
ATOM     14  C   UNL     1      -8.385   0.528  -0.239  0.00  0.00    +0.012 A 
ATOM     15  C   UNL     1      -8.673   1.862  -0.056  0.00  0.00    +0.004 A 
ATOM     16  C   UNL     1      -9.904   2.249   0.449  0.00  0.00    +0.049 A 
ATOM     17  C   UNL     1     -10.859   1.300   0.773  0.00  0.00    +0.162 A 
ATOM     18  C   UNL     1     -10.588  -0.051   0.589  0.00  0.00    +0.169 A 
BRANCH  18  19
ATOM     19  O   UNL     1     -11.524  -0.984   0.902  0.00  0.00    -0.491 OA
ATOM     20  C   UNL     1     -11.511  -1.494   2.236  0.00  0.00    +0.277 C 
ENDBRANCH  18  19
BRANCH  17  21
ATOM     21  O   UNL     1     -12.064   1.690   1.268  0.00  0.00    -0.491 OA
ATOM     22  C   UNL     1     -12.277   3.094   1.426  0.00  0.00    +0.277 C 
ENDBRANCH  17  21
ENDBRANCH   9  13
BRANCH  11  23
ATOM     23  C   UNL     1      -4.610  -1.407   3.016  0.00  0.00    -0.020 A 
ATOM     24  C   UNL     1      -5.354  -2.222   3.848  0.00  0.00    +0.006 A 
ATOM     25  C   UNL     1      -5.658  -1.807   5.131  0.00  0.00    +0.004 A 
ATOM     26  C   UNL     1      -5.217  -0.577   5.582  0.00  0.00    -0.045 A 
ATOM     27  C   UNL     1      -4.472   0.238   4.750  0.00  0.00    +0.004 A 
ATOM     28  C   UNL     1      -4.165  -0.179   3.468  0.00  0.00    +0.006 A 
BRANCH  26  29
ATOM     29  C   UNL     1      -5.549  -0.123   6.980  0.00  0.00    +0.013 C 
ATOM     30  C   UNL     1      -4.255   0.116   7.760  0.00  0.00    +0.012 C 
ATOM     31  C   UNL     1      -6.354   1.177   6.918  0.00  0.00    +0.012 C 
ENDBRANCH  26  29
ENDBRANCH  11  23
BRANCH   1  32
ATOM     32  C   UNL     1      -1.895  -2.425   2.278  0.00  0.00    +0.339 C 
ATOM     33  O   UNL     1      -1.023  -3.251   2.482  0.00  0.00    -0.245 OA
BRANCH  32  34
ATOM     34  O   UNL     1      -1.689  -1.131   2.604  0.00  0.00    -0.462 OA
BRANCH  34  36
ATOM     35  C   UNL     1      -0.378   0.698   3.486  0.00  0.00    +0.048 C 
ATOM     36  C   UNL     1      -0.426  -0.801   3.186  0.00  0.00    +0.229 C 
ENDBRANCH  34  36
ENDBRANCH  32  34
ENDBRANCH   1  32
TORSDOF 8
