REMARK  Name = ZINC36660355
REMARK  11 active torsions:
REMARK  status: ('A' for Active; 'I' for Inactive)
REMARK    1  A    between atoms: C_1  and  C_2
REMARK    2  A    between atoms: C_2  and  C_3
REMARK    3  A    between atoms: N_12  and  C_13
REMARK    4  A    between atoms: C_13  and  C_14
REMARK    5  A    between atoms: C_14  and  C_15
REMARK    6  A    between atoms: C_15  and  N_16
REMARK    7  A    between atoms: N_16  and  C_17
REMARK    8  A    between atoms: N_16  and  C_18
REMARK    9  A    between atoms: C_19  and  C_21
REMARK   10  A    between atoms: N_26  and  S_27
REMARK   11  A    between atoms: S_27  and  C_30
REMARK                            x       y       z     vdW  Elec       q    Type
REMARK                         _______ _______ _______ _____ _____    ______ ____
ROOT
ATOM      1  C   UNL     1       0.890   0.787   1.437  0.00  0.00    -0.021 A 
ATOM      2  C   UNL     1       2.248   0.972   1.405  0.00  0.00    +0.006 A 
ATOM      3  C   UNL     1       2.983   1.144   2.569  0.00  0.00    +0.001 A 
ATOM      4  C   UNL     1       2.333   1.129   3.789  0.00  0.00    +0.017 A 
ATOM      5  C   UNL     1       0.974   0.944   3.831  0.00  0.00    +0.041 A 
ATOM      6  C   UNL     1       0.192   0.771   2.667  0.00  0.00    +0.083 A 
ATOM      7  N   UNL     1      -1.133   0.607   2.872  0.00  0.00    -0.224 NA
ATOM      8  C   UNL     1      -1.668   0.610   4.070  0.00  0.00    +0.168 A 
ATOM      9  S   UNL     1      -0.243   0.855   5.122  0.00  0.00    -0.052 S 
ATOM     10  N   UNL     1      -2.997   0.455   4.430  0.00  0.00    -0.249 N 
ATOM     11  C   UNL     1      -3.949   0.389   3.478  0.00  0.00    +0.240 C 
ATOM     12  O   UNL     1      -5.102   0.178   3.788  0.00  0.00    -0.273 OA
ENDROOT
BRANCH  11  13
ATOM     13  C   UNL     1      -3.580   0.579   2.029  0.00  0.00    +0.166 C 
ATOM     14  C   UNL     1      -3.166  -0.774   1.412  0.00  0.00    +0.031 C 
ATOM     15  C   UNL     1      -4.466  -1.248   0.710  0.00  0.00    +0.019 C 
ATOM     16  C   UNL     1      -5.057   0.093   0.210  0.00  0.00    +0.110 C 
ATOM     17  N   UNL     1      -4.745   1.067   1.277  0.00  0.00    -0.165 NA
BRANCH  17  18
ATOM     18  S   UNL     1      -5.569   2.472   1.577  0.00  0.00    +0.062 S 
ATOM     19  O   UNL     1      -6.876   2.298   1.048  0.00  0.00    -0.153 OA
ATOM     20  O   UNL     1      -5.336   2.795   2.942  0.00  0.00    -0.153 OA
BRANCH  18  21
ATOM     21  C   UNL     1      -4.803   3.739   0.622  0.00  0.00    +0.106 A 
ATOM     22  C   UNL     1      -3.759   4.471   1.156  0.00  0.00    +0.031 A 
ATOM     23  C   UNL     1      -3.157   5.465   0.407  0.00  0.00    +0.040 A 
ATOM     24  C   UNL     1      -3.601   5.728  -0.877  0.00  0.00    +0.124 A 
ATOM     25  C   UNL     1      -4.647   4.994  -1.411  0.00  0.00    +0.040 A 
ATOM     26  C   UNL     1      -5.244   3.997  -0.663  0.00  0.00    +0.031 A 
ATOM     27  F   UNL     1      -3.014   6.699  -1.610  0.00  0.00    -0.205 F 
ENDBRANCH  18  21
ENDBRANCH  17  18
ENDBRANCH  11  13
BRANCH   1  29
ATOM     28  C   UNL     1      -0.541   1.922  -0.240  0.00  0.00    +0.009 C 
ATOM     29  C   UNL     1       0.132   0.604   0.148  0.00  0.00    +0.034 C 
ENDBRANCH   1  29
BRANCH  10  30
ATOM     30  C   UNL     1      -3.367   0.363   5.844  0.00  0.00    +0.114 C 
BRANCH  30  31
ATOM     31  C   UNL     1      -3.729   1.754   6.368  0.00  0.00    +0.001 C 
BRANCH  31  32
ATOM     32  C   UNL     1      -4.001   1.677   7.872  0.00  0.00    -0.078 C 
BRANCH  32  33
ATOM     33  N   UNL     1      -4.349   3.013   8.375  0.00  0.00    +0.376 N 
ATOM     34  C   UNL     1      -4.725   2.920   9.792  0.00  0.00    -0.097 C 
ATOM     35  C   UNL     1      -3.191   3.906   8.234  0.00  0.00    -0.097 C 
ATOM     36  H   UNL     1      -5.124   3.381   7.845  0.00  0.00    -0.083 HD
ENDBRANCH  32  33
ENDBRANCH  31  32
ENDBRANCH  30  31
ENDBRANCH  10  30
TORSDOF 8
