REMARK  Name = ZINC35040614
REMARK  11 active torsions:
REMARK  status: ('A' for Active; 'I' for Inactive)
REMARK    1  A    between atoms: C_1  and  C_2
REMARK    2  A    between atoms: C_2  and  C_3
REMARK    3  A    between atoms: C_3  and  C_5
REMARK    4  A    between atoms: C_3  and  N_22
REMARK    5  A    between atoms: N_15  and  C_16
REMARK    6  A    between atoms: N_22  and  C_23
REMARK    7  A    between atoms: C_23  and  C_24
REMARK    8  A    between atoms: C_24  and  N_25
REMARK    9  A    between atoms: N_25  and  C_26
REMARK   10  A    between atoms: N_25  and  C_27
REMARK   11  A    between atoms: N_30  and  C_31
REMARK                            x       y       z     vdW  Elec       q    Type
REMARK                         _______ _______ _______ _____ _____    ______ ____
ROOT
ATOM      1  C   UNL     1      -1.626  -0.219  -0.421  0.00  0.00    +0.144 C 
ENDROOT
BRANCH   1   2
ATOM      2  C   UNL     1      -1.624  -1.726  -0.427  0.00  0.00    +0.138 A 
ATOM      3  N   UNL     1      -0.534  -2.339  -0.778  0.00  0.00    -0.231 NA
ATOM      4  C   UNL     1      -0.458  -3.693  -0.807  0.00  0.00    +0.078 A 
ATOM      5  C   UNL     1       0.714  -4.353  -1.184  0.00  0.00    +0.028 A 
ATOM      6  C   UNL     1       0.747  -5.729  -1.199  0.00  0.00    +0.002 A 
ATOM      7  C   UNL     1      -0.373  -6.471  -0.846  0.00  0.00    +0.001 A 
ATOM      8  C   UNL     1      -1.540  -5.844  -0.471  0.00  0.00    +0.015 A 
ATOM      9  C   UNL     1      -1.595  -4.451  -0.448  0.00  0.00    +0.065 A 
ATOM     10  C   UNL     1      -2.812  -3.727  -0.056  0.00  0.00    +0.266 A 
ATOM     11  O   UNL     1      -3.825  -4.321   0.264  0.00  0.00    -0.267 OA
ATOM     12  N   UNL     1      -2.762  -2.375  -0.061  0.00  0.00    -0.263 N 
BRANCH  12  13
ATOM     13  C   UNL     1      -3.894  -1.637   0.309  0.00  0.00    +0.051 A 
ATOM     14  C   UNL     1      -5.011  -1.617  -0.515  0.00  0.00    +0.026 A 
ATOM     15  C   UNL     1      -6.125  -0.888  -0.148  0.00  0.00    +0.002 A 
ATOM     16  C   UNL     1      -6.129  -0.180   1.040  0.00  0.00    +0.000 A 
ATOM     17  C   UNL     1      -5.018  -0.198   1.863  0.00  0.00    +0.002 A 
ATOM     18  C   UNL     1      -3.902  -0.928   1.503  0.00  0.00    +0.026 A 
ENDBRANCH  12  13
ENDBRANCH   1   2
BRANCH   1  19
ATOM     19  N   UNL     1      -2.345   0.274  -1.598  0.00  0.00    -0.277 N 
ATOM     20  C   UNL     1      -3.373   1.133  -1.449  0.00  0.00    +0.307 C 
ATOM     21  O   UNL     1      -3.703   1.500  -0.338  0.00  0.00    -0.252 OA
ATOM     22  N   UNL     1      -4.035   1.587  -2.532  0.00  0.00    -0.269 N 
ATOM     23  H   UNL     1      -3.828   1.231  -3.411  0.00  0.00    +0.156 HD
BRANCH  22  24
ATOM     24  C   UNL     1      -5.020   2.570  -2.389  0.00  0.00    +0.035 A 
ATOM     25  C   UNL     1      -4.887   3.553  -1.417  0.00  0.00    +0.025 A 
ATOM     26  C   UNL     1      -5.861   4.522  -1.278  0.00  0.00    +0.022 A 
ATOM     27  C   UNL     1      -6.969   4.515  -2.107  0.00  0.00    +0.041 A 
ATOM     28  C   UNL     1      -7.104   3.537  -3.077  0.00  0.00    +0.022 A 
ATOM     29  C   UNL     1      -6.130   2.569  -3.224  0.00  0.00    +0.025 A 
ATOM     30 CL   UNL     1      -8.191   5.735  -1.930  0.00  0.00    -0.084 Cl
ENDBRANCH  22  24
BRANCH  19  31
ATOM     31  C   UNL     1      -1.948  -0.168  -2.937  0.00  0.00    +0.091 C 
BRANCH  31  32
ATOM     32  C   UNL     1      -2.826  -1.344  -3.368  0.00  0.00    -0.060 C 
BRANCH  32  33
ATOM     33  N   UNL     1      -2.372  -1.843  -4.673  0.00  0.00    +0.377 N 
ATOM     34  C   UNL     1      -1.017  -2.397  -4.541  0.00  0.00    -0.097 C 
ATOM     35  C   UNL     1      -3.286  -2.892  -5.142  0.00  0.00    -0.097 C 
ATOM     36  H   UNL     1      -2.361  -1.084  -5.338  0.00  0.00    -0.083 HD
ENDBRANCH  32  33
ENDBRANCH  31  32
ENDBRANCH  19  31
ENDBRANCH   1  19
BRANCH   1  38
ATOM     37  C   UNL     1      -0.183   1.819  -0.342  0.00  0.00    +0.006 C 
ATOM     38  C   UNL     1      -0.185   0.293  -0.452  0.00  0.00    +0.027 C 
ENDBRANCH   1  38
TORSDOF 8
