REMARK  Name = ZINC09956005
REMARK  11 active torsions:
REMARK  status: ('A' for Active; 'I' for Inactive)
REMARK    1  A    between atoms: C_1  and  C_2
REMARK    2  A    between atoms: C_2  and  O_3
REMARK    3  A    between atoms: O_3  and  C_4
REMARK    4  A    between atoms: C_6  and  C_14
REMARK    5  A    between atoms: C_9  and  O_10
REMARK    6  A    between atoms: O_10  and  C_11
REMARK    7  A    between atoms: N_16  and  C_17
REMARK    8  A    between atoms: C_19  and  S_25
REMARK    9  A    between atoms: C_22  and  O_23
REMARK   10  A    between atoms: O_23  and  C_24
REMARK   11  A    between atoms: S_25  and  N_28
REMARK                            x       y       z     vdW  Elec       q    Type
REMARK                         _______ _______ _______ _____ _____    ______ ____
ROOT
ATOM      1  C   UNL     1       4.374  -2.029   4.988  0.00  0.00    +0.078 A 
ATOM      2  C   UNL     1       5.021  -2.468   3.842  0.00  0.00    +0.055 A 
ATOM      3  C   UNL     1       6.105  -3.320   3.944  0.00  0.00    +0.107 A 
ATOM      4  C   UNL     1       6.547  -3.737   5.186  0.00  0.00    +0.032 A 
ATOM      5  C   UNL     1       5.907  -3.304   6.332  0.00  0.00    +0.049 A 
ATOM      6  C   UNL     1       4.824  -2.445   6.240  0.00  0.00    +0.141 A 
ENDROOT
BRANCH   1   9
ATOM      7  C   UNL     1       2.421  -1.281   3.853  0.00  0.00    +0.248 C 
ATOM      8  O   UNL     1       2.647  -2.079   2.963  0.00  0.00    -0.270 OA
ATOM      9  N   UNL     1       3.276  -1.166   4.888  0.00  0.00    -0.279 N 
ATOM     10  H   UNL     1       3.131  -0.485   5.564  0.00  0.00    +0.155 HD
BRANCH   7  13
ATOM     11  C   UNL     1      -0.808   0.236   2.679  0.00  0.00    +0.163 A 
ATOM     12  C   UNL     1       0.323  -0.556   2.725  0.00  0.00    +0.062 A 
ATOM     13  C   UNL     1       1.211  -0.438   3.798  0.00  0.00    +0.041 A 
ATOM     14  C   UNL     1       0.950   0.480   4.819  0.00  0.00    +0.017 A 
ATOM     15  C   UNL     1      -0.180   1.266   4.766  0.00  0.00    +0.050 A 
ATOM     16  C   UNL     1      -1.059   1.153   3.698  0.00  0.00    +0.168 A 
BRANCH  11  17
ATOM     17  O   UNL     1      -1.674   0.124   1.636  0.00  0.00    -0.489 OA
BRANCH  17  19
ATOM     18  C   UNL     1      -2.432  -0.815  -0.458  0.00  0.00    +0.048 C 
ATOM     19  C   UNL     1      -1.351  -0.832   0.624  0.00  0.00    +0.226 C 
ENDBRANCH  17  19
ENDBRANCH  11  17
BRANCH  16  20
ATOM     20  O   UNL     1      -2.169   1.934   3.648  0.00  0.00    -0.431 OA
BRANCH  20  21
ATOM     21  C   UNL     1      -2.365   2.852   4.725  0.00  0.00    +0.541 C 
ATOM     22  F   UNL     1      -2.456   2.146   5.929  0.00  0.00    -0.166 F 
ATOM     23  F   UNL     1      -1.284   3.739   4.785  0.00  0.00    -0.166 F 
ENDBRANCH  20  21
ENDBRANCH  16  20
ENDBRANCH   7  13
ENDBRANCH   1   9
BRANCH   3  24
ATOM     24  S   UNL     1       6.925  -3.875   2.487  0.00  0.00    +0.061 S 
ATOM     25  O   UNL     1       7.569  -5.097   2.824  0.00  0.00    -0.153 OA
ATOM     26  O   UNL     1       5.983  -3.777   1.428  0.00  0.00    -0.153 OA
BRANCH  24  27
ATOM     27  N   UNL     1       8.126  -2.784   2.155  0.00  0.00    -0.177 NA
ATOM     28  C   UNL     1       7.822  -1.659   1.300  0.00  0.00    +0.109 C 
ATOM     29  C   UNL     1       8.078  -2.035  -0.175  0.00  0.00    +0.017 C 
ATOM     30  C   UNL     1       9.522  -2.151  -0.429  0.00  0.00    +0.001 C 
ATOM     31  C   UNL     1      10.214  -3.252   0.369  0.00  0.00    +0.001 C 
ATOM     32  C   UNL     1      10.591  -2.722   1.730  0.00  0.00    +0.017 C 
ATOM     33  C   UNL     1       9.463  -3.004   2.739  0.00  0.00    +0.109 C 
ENDBRANCH  24  27
ENDBRANCH   3  24
BRANCH   6  34
ATOM     34  O   UNL     1       4.197  -2.014   7.367  0.00  0.00    -0.493 OA
ATOM     35  C   UNL     1       4.713  -2.482   8.615  0.00  0.00    +0.277 C 
ENDBRANCH   6  34
TORSDOF 9
