REMARK  Name = ZINC40084681
REMARK  19 active torsions:
REMARK  status: ('A' for Active; 'I' for Inactive)
REMARK    1  A    between atoms: C_1  and  C_2
REMARK    2  A    between atoms: C_2  and  O_3
REMARK    3  A    between atoms: O_3  and  C_4
REMARK    4  A    between atoms: C_6  and  C_11
REMARK    5  A    between atoms: C_9  and  O_10
REMARK    6  A    between atoms: C_13  and  C_25
REMARK    7  A    between atoms: N_17  and  C_18
REMARK    8  A    between atoms: C_18  and  C_19
REMARK    9  A    between atoms: C_19  and  O_20
REMARK   10  A    between atoms: O_20  and  C_21
REMARK   11  A    between atoms: C_21  and  C_22
REMARK   12  A    between atoms: C_22  and  O_23
REMARK   13  A    between atoms: C_25  and  C_27
REMARK   14  A    between atoms: C_30  and  O_34
REMARK   15  A    between atoms: C_32  and  C_33
REMARK   16  A    between atoms: O_34  and  C_35
REMARK   17  A    between atoms: C_35  and  C_36
REMARK   18  A    between atoms: C_36  and  C_37
REMARK   19  A    between atoms: C_36  and  C_38
REMARK                            x       y       z     vdW  Elec       q    Type
REMARK                         _______ _______ _______ _____ _____    ______ ____
ROOT
ATOM      1  C   UNL     1       0.485  -4.931   0.574  0.00  0.00    +0.145 C 
ATOM      2  C   UNL     1       0.643  -5.700  -0.717  0.00  0.00    +0.076 C 
ATOM      3  C   UNL     1       0.290  -6.979  -0.455  0.00  0.00    +0.249 C 
ATOM      4  C   UNL     1      -0.099  -7.094   0.967  0.00  0.00    +0.288 C 
ATOM      5  O   UNL     1      -0.466  -8.118   1.509  0.00  0.00    -0.266 OA
ATOM      6  N   UNL     1       0.014  -5.897   1.573  0.00  0.00    -0.281 N 
ATOM      7  O   UNL     1       0.292  -7.993  -1.351  0.00  0.00    -0.282 OA
ENDROOT
BRANCH   1  10
ATOM      8  C   UNL     1      -1.057  -1.494   0.283  0.00  0.00    +0.162 A 
ATOM      9  C   UNL     1      -0.126  -2.508   0.443  0.00  0.00    +0.055 A 
ATOM     10  C   UNL     1      -0.529  -3.829   0.400  0.00  0.00    -0.019 A 
ATOM     11  C   UNL     1      -1.860  -4.143   0.198  0.00  0.00    +0.009 A 
ATOM     12  C   UNL     1      -2.794  -3.137   0.038  0.00  0.00    +0.049 A 
ATOM     13  C   UNL     1      -2.398  -1.810   0.086  0.00  0.00    +0.158 A 
BRANCH  13  14
ATOM     14  O   UNL     1      -3.317  -0.819  -0.066  0.00  0.00    -0.503 OA
ATOM     15  H   UNL     1      -3.451  -0.544  -0.983  0.00  0.00    +0.292 HD
ENDBRANCH  13  14
BRANCH   8  16
ATOM     16  O   UNL     1      -0.663  -0.193   0.325  0.00  0.00    -0.489 OA
BRANCH  16  18
ATOM     17  C   UNL     1       0.983   1.560   0.568  0.00  0.00    +0.048 C 
ATOM     18  C   UNL     1       0.741   0.056   0.426  0.00  0.00    +0.226 C 
ENDBRANCH  16  18
ENDBRANCH   8  16
ENDBRANCH   1  10
BRANCH   2  19
ATOM     19  C   UNL     1       1.092  -5.163  -2.005  0.00  0.00    +0.195 C 
ATOM     20  O   UNL     1       1.417  -3.994  -2.098  0.00  0.00    -0.287 OA
BRANCH  19  21
ATOM     21  C   UNL     1       1.151  -6.041  -3.190  0.00  0.00    +0.025 A 
ATOM     22  C   UNL     1       0.172  -5.944  -4.184  0.00  0.00    +0.015 A 
ATOM     23  C   UNL     1       0.231  -6.764  -5.288  0.00  0.00    +0.046 A 
ATOM     24  C   UNL     1       1.262  -7.689  -5.415  0.00  0.00    +0.121 A 
ATOM     25  C   UNL     1       2.236  -7.790  -4.429  0.00  0.00    +0.049 A 
ATOM     26  C   UNL     1       2.189  -6.968  -3.325  0.00  0.00    -0.036 A 
ATOM     27  C   UNL     1       3.250  -7.074  -2.260  0.00  0.00    +0.044 C 
BRANCH  24  28
ATOM     28  O   UNL     1       1.316  -8.496  -6.505  0.00  0.00    -0.492 OA
BRANCH  28  29
ATOM     29  C   UNL     1       0.347  -8.267  -7.530  0.00  0.00    +0.232 C 
BRANCH  29  30
ATOM     30  C   UNL     1       0.496  -9.332  -8.619  0.00  0.00    +0.020 C 
ATOM     31  C   UNL     1      -0.602  -9.146  -9.668  0.00  0.00    +0.010 C 
ATOM     32  C   UNL     1       1.866  -9.194  -9.285  0.00  0.00    +0.010 C 
ENDBRANCH  29  30
ENDBRANCH  28  29
ENDBRANCH  24  28
ENDBRANCH  19  21
ENDBRANCH   2  19
BRANCH   6  33
ATOM     33  C   UNL     1      -0.280  -5.610   2.979  0.00  0.00    +0.137 C 
BRANCH  33  34
ATOM     34  C   UNL     1      -1.748  -5.204   3.120  0.00  0.00    +0.179 C 
BRANCH  34  35
ATOM     35  O   UNL     1      -2.584  -6.312   2.778  0.00  0.00    -0.376 OA
BRANCH  35  36
ATOM     36  C   UNL     1      -3.982  -6.038   2.877  0.00  0.00    +0.187 C 
BRANCH  36  37
ATOM     37  C   UNL     1      -4.776  -7.288   2.490  0.00  0.00    +0.184 C 
BRANCH  37  38
ATOM     38  O   UNL     1      -4.526  -8.325   3.441  0.00  0.00    -0.393 OA
ATOM     39  H   UNL     1      -4.997  -9.149   3.258  0.00  0.00    +0.209 HD
ENDBRANCH  37  38
ENDBRANCH  36  37
ENDBRANCH  35  36
ENDBRANCH  34  35
ENDBRANCH  33  34
ENDBRANCH   6  33
TORSDOF 15
