REMARK  Name = ZINC39674478
REMARK  9 active torsions:
REMARK  status: ('A' for Active; 'I' for Inactive)
REMARK    1  A    between atoms: C_1  and  C_2
REMARK    2  A    between atoms: C_4  and  C_9
REMARK    3  A    between atoms: C_5  and  C_8
REMARK    4  A    between atoms: C_9  and  C_11
REMARK    5  A    between atoms: C_9  and  N_12
REMARK    6  A    between atoms: C_13  and  C_15
REMARK    7  A    between atoms: C_26  and  C_28
REMARK    8  A    between atoms: C_31  and  C_39
REMARK    9  A    between atoms: C_33  and  C_35
REMARK                            x       y       z     vdW  Elec       q    Type
REMARK                         _______ _______ _______ _____ _____    ______ ____
ROOT
ATOM      1  C   UNL     1      -4.019   3.639  -2.615  0.00  0.00    +0.100 C 
ATOM      2  C   UNL     1      -3.624   4.157  -1.213  0.00  0.00    +0.121 C 
ATOM      3  N   UNL     1      -4.745   5.038  -0.810  0.00  0.00    -0.300 N 
ATOM      4  C   UNL     1      -5.958   4.335  -1.291  0.00  0.00    +0.115 C 
ATOM      5  C   UNL     1      -5.552   3.757  -2.661  0.00  0.00    -0.004 C 
ATOM      6  C   UNL     1      -6.182   2.382  -2.861  0.00  0.00    -0.010 C 
ATOM      7  C   UNL     1      -7.702   2.532  -2.962  0.00  0.00    -0.082 C 
ATOM      8  N   UNL     1      -8.035   3.413  -4.088  0.00  0.00    +0.379 N 
ATOM      9  C   UNL     1      -7.505   4.759  -3.844  0.00  0.00    -0.082 C 
ATOM     10  C   UNL     1      -5.976   4.704  -3.780  0.00  0.00    -0.010 C 
ATOM     11  C   UNL     1      -4.677   6.214  -0.154  0.00  0.00    +0.226 C 
ATOM     12  O   UNL     1      -5.693   6.822   0.107  0.00  0.00    -0.275 OA
ATOM     13  H   UNL     1      -7.631   3.042  -4.935  0.00  0.00    -0.086 HD
ATOM     14  H   UNL     1      -9.038   3.461  -4.191  0.00  0.00    -0.086 HD
ENDROOT
BRANCH  11  15
ATOM     15  C   UNL     1      -3.338   6.772   0.255  0.00  0.00    +0.150 C 
ATOM     16  C   UNL     1      -3.411   7.407   1.633  0.00  0.00    +0.030 C 
ATOM     17  C   UNL     1      -3.449   8.711   1.464  0.00  0.00    +0.092 C 
ATOM     18  O   UNL     1      -3.424   9.089   0.165  0.00  0.00    -0.484 OA
ATOM     19  C   UNL     1      -2.948   7.983  -0.628  0.00  0.00    +0.292 C 
ATOM     20  C   UNL     1      -3.515   9.690   2.607  0.00  0.00    +0.085 C 
BRANCH  19  21
ATOM     21  C   UNL     1      -3.666   7.928  -1.979  0.00  0.00    +0.427 C 
ATOM     22  F   UNL     1      -5.046   8.040  -1.778  0.00  0.00    -0.167 F 
ATOM     23  F   UNL     1      -3.224   8.984  -2.784  0.00  0.00    -0.167 F 
ATOM     24  F   UNL     1      -3.383   6.712  -2.608  0.00  0.00    -0.167 F 
ENDBRANCH  19  21
ENDBRANCH  11  15
BRANCH   1  26
ATOM     25  N   UNL     1      -3.358   1.709  -4.012  0.00  0.00    -0.309 N 
ATOM     26  C   UNL     1      -3.598   2.202  -2.781  0.00  0.00    +0.219 C 
ATOM     27  O   UNL     1      -3.475   1.490  -1.807  0.00  0.00    -0.275 OA
ATOM     28  H   UNL     1      -3.457   2.279  -4.791  0.00  0.00    +0.149 HD
BRANCH  25  29
ATOM     29  C   UNL     1      -2.949   0.311  -4.174  0.00  0.00    +0.100 C 
ATOM     30  C   UNL     1      -4.190  -0.583  -4.207  0.00  0.00    +0.033 C 
BRANCH  29  33
ATOM     31  C   UNL     1      -2.945   1.998  -6.989  0.00  0.00    +0.039 C 
ATOM     32  C   UNL     1      -2.643   0.503  -6.870  0.00  0.00    +0.154 C 
ATOM     33  C   UNL     1      -2.185   0.158  -5.464  0.00  0.00    -0.001 C 
ATOM     34  C   UNL     1      -0.947  -0.312  -5.636  0.00  0.00    +0.063 C 
ATOM     35  N   UNL     1      -0.605  -0.296  -6.943  0.00  0.00    -0.159 NA
ATOM     36  N   UNL     1      -1.483   0.137  -7.700  0.00  0.00    -0.180 NA
ATOM     37  C   UNL     1      -0.053  -0.795  -4.523  0.00  0.00    +0.067 C 
ENDBRANCH  29  33
ENDBRANCH  25  29
ENDBRANCH   1  26
TORSDOF 5
