REMARK  Name = ZINC16999572
REMARK  11 active torsions:
REMARK  status: ('A' for Active; 'I' for Inactive)
REMARK    1  A    between atoms: C_1  and  N_2
REMARK    2  A    between atoms: C_3  and  C_25
REMARK    3  A    between atoms: C_8  and  C_10
REMARK    4  A    between atoms: C_10  and  C_11
REMARK    5  A    between atoms: C_11  and  C_12
REMARK    6  A    between atoms: C_11  and  C_18
REMARK    7  A    between atoms: C_11  and  O_24
REMARK    8  A    between atoms: C_25  and  C_26
REMARK    9  A    between atoms: C_26  and  C_27
REMARK   10  A    between atoms: C_26  and  C_33
REMARK   11  A    between atoms: C_26  and  O_39
REMARK                            x       y       z     vdW  Elec       q    Type
REMARK                         _______ _______ _______ _____ _____    ______ ____
ROOT
ATOM      1  C   UNL     1      -0.371   1.067   1.172  0.00  0.00    -0.095 C 
ATOM      2  N   UNL     1      -1.314  -0.042   1.370  0.00  0.00    +0.382 N 
ATOM      3  C   UNL     1      -2.400   0.393   2.256  0.00  0.00    -0.065 C 
ATOM      4  C   UNL     1      -3.427  -0.732   2.401  0.00  0.00    -0.015 C 
ATOM      5  C   UNL     1      -2.743  -1.966   2.996  0.00  0.00    -0.003 C 
ATOM      6  C   UNL     1      -1.566  -2.367   2.102  0.00  0.00    -0.015 C 
ATOM      7  C   UNL     1      -0.608  -1.181   1.968  0.00  0.00    -0.065 C 
ATOM      8  H   UNL     1      -1.700  -0.317   0.479  0.00  0.00    -0.081 HD
ENDROOT
BRANCH   7   9
ATOM      9  C   UNL     1       0.570  -1.576   1.075  0.00  0.00    +0.029 C 
BRANCH   9  10
ATOM     10  C   UNL     1       1.435  -2.610   1.800  0.00  0.00    +0.114 C 
BRANCH  10  11
ATOM     11  C   UNL     1       0.655  -3.889   1.966  0.00  0.00    -0.012 A 
ATOM     12  C   UNL     1      -0.054  -4.409   0.900  0.00  0.00    +0.007 A 
ATOM     13  C   UNL     1      -0.769  -5.583   1.052  0.00  0.00    +0.000 A 
ATOM     14  C   UNL     1      -0.774  -6.236   2.271  0.00  0.00    +0.000 A 
ATOM     15  C   UNL     1      -0.064  -5.716   3.337  0.00  0.00    +0.000 A 
ATOM     16  C   UNL     1       0.654  -4.545   3.183  0.00  0.00    +0.007 A 
ENDBRANCH  10  11
BRANCH  10  17
ATOM     17  C   UNL     1       2.677  -2.880   0.992  0.00  0.00    -0.012 A 
ATOM     18  C   UNL     1       2.584  -3.088  -0.371  0.00  0.00    +0.007 A 
ATOM     19  C   UNL     1       3.724  -3.336  -1.113  0.00  0.00    +0.000 A 
ATOM     20  C   UNL     1       4.958  -3.376  -0.491  0.00  0.00    +0.000 A 
ATOM     21  C   UNL     1       5.051  -3.167   0.873  0.00  0.00    +0.000 A 
ATOM     22  C   UNL     1       3.912  -2.915   1.613  0.00  0.00    +0.007 A 
ENDBRANCH  10  17
BRANCH  10  23
ATOM     23  O   UNL     1       1.802  -2.106   3.086  0.00  0.00    -0.379 OA
ATOM     24  H   UNL     1       2.243  -1.245   3.059  0.00  0.00    +0.211 HD
ENDBRANCH  10  23
ENDBRANCH   9  10
ENDBRANCH   7   9
BRANCH   3  25
ATOM     25  C   UNL     1      -3.079   1.629   1.662  0.00  0.00    +0.029 C 
BRANCH  25  26
ATOM     26  C   UNL     1      -4.102   2.177   2.659  0.00  0.00    +0.114 C 
BRANCH  26  27
ATOM     27  C   UNL     1      -3.431   2.419   3.986  0.00  0.00    -0.012 A 
ATOM     28  C   UNL     1      -2.358   3.287   4.070  0.00  0.00    +0.007 A 
ATOM     29  C   UNL     1      -1.742   3.509   5.288  0.00  0.00    +0.000 A 
ATOM     30  C   UNL     1      -2.199   2.863   6.421  0.00  0.00    +0.000 A 
ATOM     31  C   UNL     1      -3.272   1.996   6.337  0.00  0.00    +0.000 A 
ATOM     32  C   UNL     1      -3.891   1.777   5.121  0.00  0.00    +0.007 A 
ENDBRANCH  26  27
BRANCH  26  33
ATOM     33  C   UNL     1      -4.666   3.474   2.138  0.00  0.00    -0.012 A 
ATOM     34  C   UNL     1      -3.894   4.289   1.331  0.00  0.00    +0.007 A 
ATOM     35  C   UNL     1      -4.411   5.478   0.853  0.00  0.00    +0.000 A 
ATOM     36  C   UNL     1      -5.700   5.853   1.181  0.00  0.00    +0.000 A 
ATOM     37  C   UNL     1      -6.473   5.037   1.987  0.00  0.00    +0.000 A 
ATOM     38  C   UNL     1      -5.957   3.846   2.462  0.00  0.00    +0.007 A 
ENDBRANCH  26  33
BRANCH  26  39
ATOM     39  O   UNL     1      -5.160   1.231   2.825  0.00  0.00    -0.379 OA
ATOM     40  H   UNL     1      -5.637   1.027   2.010  0.00  0.00    +0.211 HD
ENDBRANCH  26  39
ENDBRANCH  25  26
ENDBRANCH   3  25
TORSDOF 10
