REMARK  Name = ZINC19781851
REMARK  9 active torsions:
REMARK  status: ('A' for Active; 'I' for Inactive)
REMARK    1  A    between atoms: C_1  and  C_2
REMARK    2  A    between atoms: C_3  and  C_27
REMARK    3  A    between atoms: C_4  and  C_16
REMARK    4  A    between atoms: C_10  and  C_14
REMARK    5  A    between atoms: C_10  and  C_15
REMARK    6  A    between atoms: C_27  and  O_29
REMARK    7  A    between atoms: O_29  and  C_30
REMARK    8  A    between atoms: C_30  and  C_31
REMARK    9  A    between atoms: C_31  and  C_32
REMARK                            x       y       z     vdW  Elec       q    Type
REMARK                         _______ _______ _______ _____ _____    ______ ____
ROOT
ATOM      1  C   UNL     1      -0.018   1.503   0.010  0.00  0.00    +0.061 C 
ATOM      2  C   UNL     1       0.002  -0.004   0.002  0.00  0.00    +0.016 C 
ATOM      3  C   UNL     1      -1.155  -0.687   0.004  0.00  0.00    +0.065 C 
ATOM      4  C   UNL     1      -1.174  -2.188  -0.012  0.00  0.00    +0.099 C 
ATOM      5  C   UNL     1       0.164  -2.749   0.399  0.00  0.00    +0.024 C 
ATOM      6  C   UNL     1       1.272  -1.979   0.376  0.00  0.00    +0.016 C 
ATOM      7  N   UNL     1       1.198  -0.667  -0.013  0.00  0.00    -0.321 N 
ATOM      8  C   UNL     1       2.616  -2.539   0.768  0.00  0.00    +0.058 C 
ATOM      9  C   UNL     1       2.429  -3.633   1.822  0.00  0.00    -0.023 C 
ATOM     10  C   UNL     1       1.521  -4.720   1.240  0.00  0.00    +0.086 C 
ATOM     11  C   UNL     1       0.224  -4.094   0.806  0.00  0.00    +0.162 C 
ATOM     12  O   UNL     1      -0.791  -4.762   0.808  0.00  0.00    -0.292 OA
ATOM     13  C   UNL     1       3.788  -4.237   2.183  0.00  0.00    +0.011 C 
ATOM     14  C   UNL     1       1.780  -3.036   3.073  0.00  0.00    +0.011 C 
ATOM     15  H   UNL     1       2.000  -0.203  -0.298  0.00  0.00    +0.152 HD
ENDROOT
BRANCH   4  16
ATOM     16  C   UNL     1      -1.503  -2.664  -1.404  0.00  0.00    +0.047 A 
ATOM     17  C   UNL     1      -2.598  -3.415  -1.621  0.00  0.00    +0.204 A 
ATOM     18  O   UNL     1      -2.939  -3.866  -2.832  0.00  0.00    -0.462 OA
ATOM     19  C   UNL     1      -2.209  -3.600  -3.935  0.00  0.00    +0.138 A 
ATOM     20  C   UNL     1      -2.592  -4.084  -5.180  0.00  0.00    +0.047 A 
ATOM     21  C   UNL     1      -1.829  -3.798  -6.292  0.00  0.00    +0.004 A 
ATOM     22  C   UNL     1      -0.678  -3.031  -6.184  0.00  0.00    +0.001 A 
ATOM     23  C   UNL     1      -0.281  -2.542  -4.959  0.00  0.00    +0.015 A 
ATOM     24  C   UNL     1      -1.044  -2.824  -3.827  0.00  0.00    +0.064 A 
ATOM     25  C   UNL     1      -0.662  -2.317  -2.495  0.00  0.00    +0.197 A 
ATOM     26  O   UNL     1       0.335  -1.634  -2.336  0.00  0.00    -0.287 OA
ENDBRANCH   4  16
BRANCH   3  27
ATOM     27  C   UNL     1      -2.380   0.021   0.021  0.00  0.00    +0.338 C 
ATOM     28  O   UNL     1      -2.378   1.238   0.035  0.00  0.00    -0.245 OA
BRANCH  27  29
ATOM     29  O   UNL     1      -3.549  -0.652   0.024  0.00  0.00    -0.461 OA
BRANCH  29  30
ATOM     30  C   UNL     1      -4.746   0.128   0.042  0.00  0.00    +0.237 C 
BRANCH  30  31
ATOM     31  C   UNL     1      -5.961  -0.803   0.041  0.00  0.00    +0.076 C 
BRANCH  31  32
ATOM     32  C   UNL     1      -7.224   0.020   0.061  0.00  0.00    -0.044 A 
ATOM     33  C   UNL     1      -7.790   0.388   1.266  0.00  0.00    +0.004 A 
ATOM     34  C   UNL     1      -8.948   1.143   1.284  0.00  0.00    +0.000 A 
ATOM     35  C   UNL     1      -9.540   1.529   0.096  0.00  0.00    +0.000 A 
ATOM     36  C   UNL     1      -8.973   1.161  -1.110  0.00  0.00    +0.000 A 
ATOM     37  C   UNL     1      -7.812   0.410  -1.128  0.00  0.00    +0.004 A 
ENDBRANCH  31  32
ENDBRANCH  30  31
ENDBRANCH  29  30
ENDBRANCH  27  29
ENDBRANCH   3  27
TORSDOF 6
