REMARK  Name = ZINC39358865
REMARK  2 active torsions:
REMARK  status: ('A' for Active; 'I' for Inactive)
REMARK    1  A    between atoms: C_3  and  C_8
REMARK    2  A    between atoms: C_11  and  O_24
REMARK                            x       y       z     vdW  Elec       q    Type
REMARK                         _______ _______ _______ _____ _____    ______ ____
ROOT
ATOM      1  C   UNL     1       3.672   2.183  -0.022  0.00  0.00    +0.089 C 
ATOM      2  C   UNL     1       4.497   1.812   1.173  0.00  0.00    +0.048 C 
ATOM      3  C   UNL     1       4.238   1.260   2.338  0.00  0.00    +0.235 C 
ATOM      4  N   UNL     1       5.395   1.026   3.015  0.00  0.00    -0.114 NA
ATOM      5  N   UNL     1       6.416   1.411   2.432  0.00  0.00    -0.157 NA
ATOM      6  C   UNL     1       6.009   2.058   1.183  0.00  0.00    +0.245 C 
ATOM      7  N   UNL     1       6.490   1.352  -0.006  0.00  0.00    -0.321 N 
ATOM      8  C   UNL     1       5.780   1.442  -1.178  0.00  0.00    +0.013 C 
ATOM      9  C   UNL     1       4.485   1.820  -1.256  0.00  0.00    +0.023 C 
ATOM     10  C   UNL     1       3.816   1.898  -2.489  0.00  0.00    +0.162 C 
ATOM     11  O   UNL     1       2.648   2.231  -2.511  0.00  0.00    -0.292 OA
ATOM     12  C   UNL     1       4.514   1.580  -3.783  0.00  0.00    +0.080 C 
ATOM     13  C   UNL     1       6.007   1.887  -3.622  0.00  0.00    +0.014 C 
ATOM     14  C   UNL     1       6.541   1.073  -2.436  0.00  0.00    +0.051 C 
ATOM     15  H   UNL     1       7.303   0.825   0.033  0.00  0.00    +0.148 HD
ENDROOT
BRANCH   1  18
ATOM     16  C   UNL     1      -0.017   1.378   0.010  0.00  0.00    +0.001 A 
ATOM     17  C   UNL     1       1.171   2.086   0.002  0.00  0.00    +0.004 A 
ATOM     18  C   UNL     1       2.378   1.411  -0.013  0.00  0.00    -0.034 A 
ATOM     19  C   UNL     1       2.397   0.029  -0.022  0.00  0.00    +0.019 A 
ATOM     20  C   UNL     1       1.210  -0.679  -0.014  0.00  0.00    +0.018 A 
ATOM     21  C   UNL     1       0.002  -0.004   0.002  0.00  0.00    +0.015 A 
ATOM     22 BR   UNL     1       1.236  -2.570  -0.025  0.00  0.00    -0.050 Br
ENDBRANCH   1  18
BRANCH   3  23
ATOM     23  O   UNL     1       2.993   0.967   2.799  0.00  0.00    -0.491 OA
ATOM     24  H   UNL     1       2.985   0.563   3.678  0.00  0.00    +0.294 HD
ENDBRANCH   3  23
TORSDOF 2
