REMARK  Name = ZINC12327842
REMARK  11 active torsions:
REMARK  status: ('A' for Active; 'I' for Inactive)
REMARK    1  A    between atoms: C_1  and  C_2
REMARK    2  A    between atoms: C_3  and  C_7
REMARK    3  A    between atoms: C_7  and  N_56
REMARK    4  A    between atoms: C_8  and  N_56
REMARK    5  A    between atoms: C_9  and  C_10
REMARK    6  A    between atoms: C_9  and  N_56
REMARK    7  A    between atoms: C_12  and  C_28
REMARK    8  A    between atoms: C_15  and  O_16
REMARK    9  A    between atoms: O_16  and  C_17
REMARK   10  A    between atoms: C_17  and  C_18
REMARK   11  A    between atoms: N_20  and  C_21
REMARK                            x       y       z     vdW  Elec       q    Type
REMARK                         _______ _______ _______ _____ _____    ______ ____
ROOT
ATOM      1  C   UNL     1      -1.009   3.471  -0.949  0.00  0.00    -0.022 A 
ATOM      2  C   UNL     1      -2.209   3.947  -0.463  0.00  0.00    +0.014 A 
ATOM      3  C   UNL     1      -2.400   5.321  -0.307  0.00  0.00    -0.011 A 
ATOM      4  C   UNL     1      -1.378   6.208  -0.654  0.00  0.00    +0.012 A 
ATOM      5  C   UNL     1      -0.184   5.723  -1.143  0.00  0.00    +0.046 A 
ATOM      6  C   UNL     1       0.004   4.356  -1.292  0.00  0.00    +0.123 A 
ENDROOT
BRANCH   3   7
ATOM      7  C   UNL     1      -3.682   5.836   0.218  0.00  0.00    +0.019 A 
ATOM      8  C   UNL     1      -4.066   7.132   0.438  0.00  0.00    +0.016 A 
ATOM      9  C   UNL     1      -5.327   7.373   0.939  0.00  0.00    +0.008 A 
ATOM     10  C   UNL     1      -6.147   6.323   1.199  0.00  0.00    +0.046 A 
ATOM     11  S   UNL     1      -5.136   4.931   0.722  0.00  0.00    -0.097 S 
ENDBRANCH   3   7
BRANCH   1  12
ATOM     12  C   UNL     1      -0.800   1.987  -1.113  0.00  0.00    -0.039 C 
BRANCH  12  14
ATOM     13  C   UNL     1       1.344   2.022   0.010  0.00  0.00    -0.095 C 
ATOM     14  N   UNL     1      -0.031   1.483   0.044  0.00  0.00    +0.384 N 
ATOM     15  H   UNL     1      -0.489   1.792   0.909  0.00  0.00    -0.081 HD
BRANCH  14  16
ATOM     16  C   UNL     1       0.005   0.005   0.021  0.00  0.00    -0.017 C 
BRANCH  16  19
ATOM     17  C   UNL     1      -1.621  -0.624   2.646  0.00  0.00    +0.071 C 
ATOM     18  C   UNL     1      -0.129  -0.768   2.490  0.00  0.00    +0.103 A 
ATOM     19  C   UNL     1       0.598  -0.486   1.317  0.00  0.00    +0.091 A 
ATOM     20  N   UNL     1       1.859  -0.722   1.523  0.00  0.00    -0.056 NA
ATOM     21  O   UNL     1       1.995  -1.163   2.865  0.00  0.00    -0.242 OA
ATOM     22  N   UNL     1       0.688  -1.171   3.417  0.00  0.00    -0.054 NA
ENDBRANCH  16  19
ENDBRANCH  14  16
ENDBRANCH  12  14
ENDBRANCH   1  12
BRANCH   6  23
ATOM     23  O   UNL     1       1.183   3.882  -1.775  0.00  0.00    -0.483 OA
BRANCH  23  24
ATOM     24  C   UNL     1       2.182   4.847  -2.108  0.00  0.00    +0.324 C 
BRANCH  24  25
ATOM     25  C   UNL     1       3.410   4.142  -2.623  0.00  0.00    +0.255 C 
ATOM     26  O   UNL     1       3.428   2.932  -2.697  0.00  0.00    -0.272 OA
ATOM     27  N   UNL     1       4.489   4.856  -3.001  0.00  0.00    -0.283 N 
ATOM     28  H   UNL     1       4.452   5.825  -3.005  0.00  0.00    +0.155 HD
BRANCH  27  29
ATOM     29  C   UNL     1       5.662   4.199  -3.387  0.00  0.00    +0.035 A 
ATOM     30  C   UNL     1       6.900   4.755  -3.091  0.00  0.00    +0.023 A 
ATOM     31  C   UNL     1       8.057   4.103  -3.469  0.00  0.00    +0.003 A 
ATOM     32  C   UNL     1       7.985   2.902  -4.151  0.00  0.00    +0.020 A 
ATOM     33  C   UNL     1       6.753   2.347  -4.452  0.00  0.00    +0.043 A 
ATOM     34  C   UNL     1       5.591   2.994  -4.072  0.00  0.00    +0.043 A 
ATOM     35 CL   UNL     1       6.666   0.840  -5.308  0.00  0.00    -0.083 Cl
ENDBRANCH  27  29
ENDBRANCH  24  25
ENDBRANCH  23  24
ENDBRANCH   6  23
TORSDOF 9
