REMARK  Name = ZINC39988970
REMARK  6 active torsions:
REMARK  status: ('A' for Active; 'I' for Inactive)
REMARK    1  A    between atoms: C_1  and  N_2
REMARK    2  A    between atoms: N_2  and  C_3
REMARK    3  A    between atoms: C_3  and  N_5
REMARK    4  A    between atoms: C_6  and  C_30
REMARK    5  A    between atoms: C_9  and  C_11
REMARK    6  A    between atoms: C_13  and  C_24
REMARK                            x       y       z     vdW  Elec       q    Type
REMARK                         _______ _______ _______ _____ _____    ______ ____
ROOT
ATOM      1  C   UNL     1      -0.338  -5.218  -0.689  0.00  0.00    +0.152 C 
ATOM      2  C   UNL     1      -1.189  -4.531  -1.739  0.00  0.00    -0.014 C 
ATOM      3  C   UNL     1      -0.799  -4.686  -3.072  0.00  0.00    +0.002 A 
ATOM      4  C   UNL     1      -1.534  -4.080  -4.113  0.00  0.00    +0.030 A 
ATOM      5  C   UNL     1      -1.133  -4.247  -5.403  0.00  0.00    +0.042 A 
ATOM      6  C   UNL     1      -0.008  -5.008  -5.719  0.00  0.00    +0.022 A 
ATOM      7  C   UNL     1       0.741  -5.616  -4.758  0.00  0.00    +0.025 A 
ATOM      8  C   UNL     1       0.385  -5.486  -3.403  0.00  0.00    +0.041 A 
ATOM      9  N   UNL     1       1.122  -6.084  -2.461  0.00  0.00    -0.284 N 
ATOM     10  C   UNL     1       0.856  -6.010  -1.173  0.00  0.00    +0.230 C 
ATOM     11  O   UNL     1       1.572  -6.580  -0.371  0.00  0.00    -0.274 OA
ATOM     12 CL   UNL     1      -2.041  -3.500  -6.680  0.00  0.00    -0.084 Cl
ATOM     13  H   UNL     1       1.895  -6.600  -2.741  0.00  0.00    +0.155 HD
ENDROOT
BRANCH   2  14
ATOM     14  C   UNL     1      -2.328  -3.765  -1.385  0.00  0.00    -0.020 A 
ATOM     15  C   UNL     1      -2.375  -2.392  -1.675  0.00  0.00    +0.008 A 
ATOM     16  C   UNL     1      -3.486  -1.657  -1.326  0.00  0.00    +0.001 A 
ATOM     17  C   UNL     1      -4.556  -2.268  -0.691  0.00  0.00    +0.000 A 
ATOM     18  C   UNL     1      -4.519  -3.622  -0.400  0.00  0.00    +0.001 A 
ATOM     19  C   UNL     1      -3.420  -4.376  -0.746  0.00  0.00    +0.008 A 
ENDBRANCH   2  14
BRANCH   1  23
ATOM     20  N   UNL     1       0.585  -2.135   1.119  0.00  0.00    -0.197 N 
ATOM     21  C   UNL     1       1.168  -3.031   2.131  0.00  0.00    +0.136 C 
ATOM     22  C   UNL     1       0.888  -4.437   1.562  0.00  0.00    +0.083 C 
ATOM     23  C   UNL     1       0.163  -4.163   0.264  0.00  0.00    +0.055 C 
ATOM     24  N   UNL     1       0.035  -2.911   0.100  0.00  0.00    -0.185 NA
BRANCH  21  25
ATOM     25  C   UNL     1       0.484  -2.846   3.461  0.00  0.00    -0.025 A 
ATOM     26  C   UNL     1      -0.882  -2.642   3.513  0.00  0.00    +0.007 A 
ATOM     27  C   UNL     1      -1.510  -2.472   4.733  0.00  0.00    +0.020 A 
ATOM     28  C   UNL     1      -0.771  -2.507   5.902  0.00  0.00    +0.041 A 
ATOM     29  C   UNL     1       0.597  -2.711   5.849  0.00  0.00    +0.020 A 
ATOM     30  C   UNL     1       1.222  -2.886   4.630  0.00  0.00    +0.007 A 
ATOM     31 CL   UNL     1      -1.558  -2.293   7.434  0.00  0.00    -0.084 Cl
ENDBRANCH  21  25
BRANCH  20  32
ATOM     32  C   UNL     1       0.580  -0.788   1.171  0.00  0.00    +0.153 C 
ATOM     33  S   UNL     1       1.302   0.019   2.497  0.00  0.00    -0.017 S 
BRANCH  32  35
ATOM     34  C   UNL     1       0.002   1.386   0.236  0.00  0.00    +0.127 C 
ATOM     35  N   UNL     1       0.008  -0.078   0.179  0.00  0.00    -0.328 N 
ATOM     36  H   UNL     1      -0.401  -0.535  -0.572  0.00  0.00    +0.147 HD
ENDBRANCH  32  35
ENDBRANCH  20  32
ENDBRANCH   1  23
TORSDOF 5
