REMARK  Name = ZINC03010547
REMARK  14 active torsions:
REMARK  status: ('A' for Active; 'I' for Inactive)
REMARK    1  A    between atoms: C_1  and  C_2
REMARK    2  A    between atoms: C_2  and  C_3
REMARK    3  A    between atoms: C_3  and  C_4
REMARK    4  A    between atoms: C_4  and  N_5
REMARK    5  A    between atoms: C_6  and  C_8
REMARK    6  A    between atoms: C_8  and  S_9
REMARK    7  A    between atoms: S_9  and  C_10
REMARK    8  A    between atoms: C_14  and  C_22
REMARK    9  A    between atoms: C_15  and  C_17
REMARK   10  A    between atoms: C_17  and  O_19
REMARK   11  A    between atoms: O_19  and  C_20
REMARK   12  A    between atoms: C_20  and  C_21
REMARK   13  A    between atoms: N_25  and  C_26
REMARK   14  A    between atoms: C_26  and  C_27
REMARK                            x       y       z     vdW  Elec       q    Type
REMARK                         _______ _______ _______ _____ _____    ______ ____
ROOT
ATOM      1  C   UNL     1       2.404  -2.872  -2.049  0.00  0.00    +0.173 A 
ATOM      2  N   UNL     1       2.449  -3.304  -3.293  0.00  0.00    -0.216 NA
ATOM      3  C   UNL     1       1.346  -3.558  -3.978  0.00  0.00    +0.117 A 
ATOM      4  C   UNL     1       0.058  -3.383  -3.416  0.00  0.00    +0.076 A 
ATOM      5  C   UNL     1      -1.016  -3.690  -4.254  0.00  0.00    -0.015 A 
ATOM      6  C   UNL     1      -0.782  -4.128  -5.526  0.00  0.00    +0.102 A 
ATOM      7  S   UNL     1       1.000  -4.134  -5.621  0.00  0.00    -0.062 S 
ATOM      8  C   UNL     1      -2.430  -3.539  -3.755  0.00  0.00    +0.046 C 
ATOM      9  C   UNL     1       0.042  -2.903  -2.017  0.00  0.00    +0.264 A 
ATOM     10  O   UNL     1      -1.012  -2.721  -1.433  0.00  0.00    -0.267 OA
ATOM     11  N   UNL     1       1.219  -2.667  -1.406  0.00  0.00    -0.283 N 
ENDROOT
BRANCH   6  12
ATOM     12  C   UNL     1      -1.752  -4.500  -6.555  0.00  0.00    +0.346 C 
ATOM     13  O   UNL     1      -2.944  -4.436  -6.319  0.00  0.00    -0.244 OA
BRANCH  12  14
ATOM     14  O   UNL     1      -1.325  -4.913  -7.767  0.00  0.00    -0.461 OA
BRANCH  14  15
ATOM     15  C   UNL     1      -2.328  -5.261  -8.724  0.00  0.00    +0.229 C 
ATOM     16  C   UNL     1      -1.657  -5.702 -10.027  0.00  0.00    +0.048 C 
ENDBRANCH  14  15
ENDBRANCH  12  14
ENDBRANCH   6  12
BRANCH   1  17
ATOM     17  S   UNL     1       3.911  -2.553  -1.194  0.00  0.00    -0.078 S 
BRANCH  17  18
ATOM     18  C   UNL     1       5.102  -2.983  -2.487  0.00  0.00    +0.173 C 
BRANCH  18  20
ATOM     19  N   UNL     1       7.560  -3.042  -2.762  0.00  0.00    -0.315 N 
ATOM     20  C   UNL     1       6.502  -2.782  -1.968  0.00  0.00    +0.223 C 
ATOM     21  O   UNL     1       6.678  -2.386  -0.835  0.00  0.00    -0.275 OA
ATOM     22  H   UNL     1       7.420  -3.358  -3.668  0.00  0.00    +0.149 HD
BRANCH  19  23
ATOM     23  C   UNL     1       8.921  -2.846  -2.256  0.00  0.00    +0.104 C 
BRANCH  23  24
ATOM     24  C   UNL     1       9.928  -3.210  -3.349  0.00  0.00    +0.018 C 
BRANCH  24  26
ATOM     25  C   UNL     1      12.357  -3.369  -3.915  0.00  0.00    +0.004 C 
ATOM     26  C   UNL     1      11.350  -3.005  -2.822  0.00  0.00    -0.002 C 
ENDBRANCH  24  26
ENDBRANCH  23  24
ENDBRANCH  19  23
ENDBRANCH  18  20
ENDBRANCH  17  18
ENDBRANCH   1  17
BRANCH  11  27
ATOM     27  C   UNL     1       1.226  -2.186  -0.022  0.00  0.00    +0.162 C 
BRANCH  27  28
ATOM     28  C   UNL     1       1.208  -0.679  -0.013  0.00  0.00    -0.024 A 
ATOM     29  C   UNL     1       2.398   0.024  -0.021  0.00  0.00    +0.009 A 
ATOM     30  C   UNL     1       2.387   1.407  -0.013  0.00  0.00    +0.050 A 
ATOM     31  C   UNL     1       1.182   2.090   0.002  0.00  0.00    +0.166 A 
ATOM     32  C   UNL     1      -0.017   1.381   0.010  0.00  0.00    +0.167 A 
ATOM     33  C   UNL     1       0.002  -0.004   0.002  0.00  0.00    +0.055 A 
ATOM     34  O   UNL     1      -1.051   2.272   0.019  0.00  0.00    -0.453 OA
ATOM     35  C   UNL     1      -0.473   3.525   0.438  0.00  0.00    +0.466 C 
ATOM     36  O   UNL     1       0.899   3.426   0.012  0.00  0.00    -0.453 OA
ENDBRANCH  27  28
ENDBRANCH  11  27
TORSDOF 11
