REMARK  Name = ZINC39675275
REMARK  9 active torsions:
REMARK  status: ('A' for Active; 'I' for Inactive)
REMARK    1  A    between atoms: C_1  and  C_2
REMARK    2  A    between atoms: C_2  and  C_4
REMARK    3  A    between atoms: C_2  and  N_14
REMARK    4  A    between atoms: C_4  and  C_5
REMARK    5  A    between atoms: C_5  and  C_6
REMARK    6  A    between atoms: C_9  and  O_12
REMARK    7  A    between atoms: O_12  and  C_13
REMARK    8  A    between atoms: C_15  and  C_17
REMARK    9  A    between atoms: C_28  and  C_30
REMARK                            x       y       z     vdW  Elec       q    Type
REMARK                         _______ _______ _______ _____ _____    ______ ____
ROOT
ATOM      1  C   UNL     1       2.799  -0.466   2.244  0.00  0.00    +0.100 C 
ATOM      2  C   UNL     1       2.652   0.277   3.591  0.00  0.00    +0.121 C 
ATOM      3  N   UNL     1       3.983   0.158   4.231  0.00  0.00    -0.296 N 
ATOM      4  C   UNL     1       4.945   0.327   3.116  0.00  0.00    +0.115 C 
ATOM      5  C   UNL     1       4.305  -0.430   1.935  0.00  0.00    -0.004 C 
ATOM      6  C   UNL     1       4.559   0.318   0.630  0.00  0.00    -0.010 C 
ATOM      7  C   UNL     1       6.057   0.290   0.314  0.00  0.00    -0.082 C 
ATOM      8  N   UNL     1       6.509  -1.102   0.200  0.00  0.00    +0.379 N 
ATOM      9  C   UNL     1       6.347  -1.788   1.488  0.00  0.00    -0.082 C 
ATOM     10  C   UNL     1       4.862  -1.848   1.853  0.00  0.00    -0.010 C 
ATOM     11  C   UNL     1       4.258  -0.057   5.533  0.00  0.00    +0.247 C 
ATOM     12  O   UNL     1       3.355  -0.286   6.315  0.00  0.00    -0.270 OA
ATOM     13  H   UNL     1       5.962  -1.575  -0.503  0.00  0.00    -0.086 HD
ATOM     14  H   UNL     1       7.482  -1.117  -0.068  0.00  0.00    -0.086 HD
ENDROOT
BRANCH  11  15
ATOM     15  C   UNL     1       5.656  -0.012   6.011  0.00  0.00    +0.037 A 
ATOM     16  C   UNL     1       6.627   0.668   5.274  0.00  0.00    +0.014 A 
ATOM     17  C   UNL     1       7.930   0.706   5.725  0.00  0.00    +0.016 A 
ATOM     18  C   UNL     1       8.275   0.070   6.906  0.00  0.00    +0.018 A 
ATOM     19  C   UNL     1       7.317  -0.606   7.641  0.00  0.00    +0.016 A 
ATOM     20  C   UNL     1       6.009  -0.646   7.203  0.00  0.00    +0.014 A 
ATOM     21 BR   UNL     1      10.064   0.127   7.516  0.00  0.00    -0.050 Br
ENDBRANCH  11  15
BRANCH   1  23
ATOM     22  N   UNL     1       1.519  -0.449   0.127  0.00  0.00    -0.312 N 
ATOM     23  C   UNL     1       2.025   0.247   1.165  0.00  0.00    +0.218 C 
ATOM     24  O   UNL     1       1.857   1.446   1.231  0.00  0.00    -0.275 OA
ATOM     25  H   UNL     1       1.653  -1.408   0.075  0.00  0.00    +0.149 HD
BRANCH  22  27
ATOM     26  C   UNL     1      -0.696   0.383  -0.493  0.00  0.00    +0.028 C 
ATOM     27  C   UNL     1       0.766   0.244  -0.921  0.00  0.00    +0.070 C 
BRANCH  27  28
ATOM     28  C   UNL     1       0.842  -0.562  -2.220  0.00  0.00    +0.026 C 
BRANCH  28  29
ATOM     29  C   UNL     1       2.289  -0.596  -2.715  0.00  0.00    +0.037 C 
BRANCH  29  30
ATOM     30  C   UNL     1       2.364  -1.389  -3.994  0.00  0.00    -0.047 A 
ATOM     31  C   UNL     1       2.585  -2.753  -3.949  0.00  0.00    +0.007 A 
ATOM     32  C   UNL     1       2.655  -3.483  -5.120  0.00  0.00    +0.046 A 
ATOM     33  C   UNL     1       2.502  -2.846  -6.342  0.00  0.00    +0.120 A 
ATOM     34  C   UNL     1       2.279  -1.477  -6.386  0.00  0.00    +0.046 A 
ATOM     35  C   UNL     1       2.206  -0.753  -5.212  0.00  0.00    +0.007 A 
BRANCH  33  36
ATOM     36  O   UNL     1       2.570  -3.561  -7.496  0.00  0.00    -0.495 OA
ATOM     37  C   UNL     1       2.403  -2.839  -8.718  0.00  0.00    +0.277 C 
ENDBRANCH  33  36
ENDBRANCH  29  30
ENDBRANCH  28  29
ENDBRANCH  27  28
ENDBRANCH  22  27
ENDBRANCH   1  23
TORSDOF 7
