REMARK  Name = ZINC06197924
REMARK  14 active torsions:
REMARK  status: ('A' for Active; 'I' for Inactive)
REMARK    1  A    between atoms: C_1  and  C_2
REMARK    2  A    between atoms: C_2  and  C_3
REMARK    3  A    between atoms: C_10  and  C_15
REMARK    4  A    between atoms: C_15  and  C_17
REMARK    5  A    between atoms: C_15  and  N_73
REMARK    6  A    between atoms: N_21  and  C_22
REMARK    7  A    between atoms: C_22  and  C_23
REMARK    8  A    between atoms: C_22  and  C_24
REMARK    9  A    between atoms: C_22  and  C_25
REMARK   10  A    between atoms: C_25  and  C_26
REMARK   11  A    between atoms: C_27  and  C_28
REMARK   12  A    between atoms: C_27  and  N_73
REMARK   13  A    between atoms: C_33  and  C_34
REMARK   14  A    between atoms: C_33  and  N_73
REMARK                            x       y       z     vdW  Elec       q    Type
REMARK                         _______ _______ _______ _____ _____    ______ ____
ROOT
ATOM      1  C   UNL     1      -2.065   4.349   1.790  0.00  0.00    +0.039 C 
ENDROOT
BRANCH   1   9
ATOM      2  C   UNL     1      -2.776  10.495   1.748  0.00  0.00    -0.047 A 
ATOM      3  C   UNL     1      -3.463  10.564   0.543  0.00  0.00    +0.005 A 
ATOM      4  C   UNL     1      -3.741   9.421  -0.174  0.00  0.00    +0.026 A 
ATOM      5  C   UNL     1      -3.329   8.184   0.311  0.00  0.00    +0.049 A 
ATOM      6  C   UNL     1      -2.632   8.118   1.532  0.00  0.00    -0.001 A 
ATOM      7  C   UNL     1      -2.362   9.292   2.244  0.00  0.00    +0.013 A 
ATOM      8  C   UNL     1      -2.207   6.811   2.037  0.00  0.00    +0.017 A 
ATOM      9  C   UNL     1      -2.493   5.709   1.301  0.00  0.00    +0.011 A 
ATOM     10  C   UNL     1      -3.194   5.830   0.082  0.00  0.00    +0.251 A 
ATOM     11  O   UNL     1      -3.445   4.825  -0.561  0.00  0.00    -0.268 OA
ATOM     12  N   UNL     1      -3.593   7.025  -0.387  0.00  0.00    -0.322 N 
ATOM     13  H   UNL     1      -4.087   7.074  -1.254  0.00  0.00    +0.169 HD
BRANCH   2  15
ATOM     14  C   UNL     1      -1.135  12.327   2.069  0.00  0.00    +0.009 C 
ATOM     15  C   UNL     1      -2.484  11.759   2.515  0.00  0.00    +0.032 C 
ENDBRANCH   2  15
ENDBRANCH   1   9
BRANCH   1  16
ATOM     16  C   UNL     1      -3.285   3.519   2.096  0.00  0.00    +0.143 A 
ATOM     17  N   UNL     1      -4.136   3.029   1.228  0.00  0.00    -0.115 NA
ATOM     18  N   UNL     1      -5.038   2.379   1.879  0.00  0.00    -0.023 NA
ATOM     19  N   UNL     1      -4.784   2.441   3.140  0.00  0.00    -0.043 NA
ATOM     20  N   UNL     1      -3.708   3.131   3.314  0.00  0.00    -0.225 N 
BRANCH  20  21
ATOM     21  C   UNL     1      -3.068   3.438   4.596  0.00  0.00    +0.061 C 
ATOM     22  C   UNL     1      -1.669   2.820   4.628  0.00  0.00    +0.036 C 
ATOM     23  C   UNL     1      -2.960   4.955   4.762  0.00  0.00    +0.036 C 
BRANCH  21  24
ATOM     24  C   UNL     1      -3.908   2.858   5.736  0.00  0.00    +0.026 C 
ATOM     25  C   UNL     1      -3.239   3.178   7.074  0.00  0.00    +0.006 C 
ENDBRANCH  21  24
ENDBRANCH  20  21
ENDBRANCH   1  16
BRANCH   1  26
ATOM     26  N   UNL     1      -1.286   3.675   0.730  0.00  0.00    +0.396 N 
ATOM     27  H   UNL     1      -1.929   3.357  -0.006  0.00  0.00    -0.080 HD
BRANCH  26  28
ATOM     28  C   UNL     1      -0.312   4.617   0.141  0.00  0.00    -0.002 C 
BRANCH  28  29
ATOM     29  C   UNL     1       0.306   3.981  -1.077  0.00  0.00    +0.089 A 
ATOM     30  C   UNL     1      -0.122   4.127  -2.344  0.00  0.00    +0.042 A 
ATOM     31  C   UNL     1       0.742   3.361  -3.159  0.00  0.00    +0.041 A 
ATOM     32  C   UNL     1       1.647   2.792  -2.342  0.00  0.00    +0.195 A 
ATOM     33  O   UNL     1       1.381   3.176  -1.083  0.00  0.00    -0.470 OA
ENDBRANCH  28  29
ENDBRANCH  26  28
BRANCH  26  34
ATOM     34  C   UNL     1      -0.581   2.502   1.289  0.00  0.00    -0.045 C 
BRANCH  34  35
ATOM     35  C   UNL     1      -1.578   1.350   1.426  0.00  0.00    +0.102 C 
ATOM     36  C   UNL     1      -0.863   0.078   1.933  0.00  0.00    +0.032 C 
ATOM     37  C   UNL     1      -1.556  -1.072   1.169  0.00  0.00    +0.030 C 
ATOM     38  C   UNL     1      -2.608  -0.359   0.291  0.00  0.00    +0.160 C 
ATOM     39  O   UNL     1      -2.105   0.985   0.132  0.00  0.00    -0.378 OA
ENDBRANCH  34  35
ENDBRANCH  26  34
ENDBRANCH   1  26
TORSDOF 10
