REMARK  Name = ZINC01436420
REMARK  10 active torsions:
REMARK  status: ('A' for Active; 'I' for Inactive)
REMARK    1  A    between atoms: C_1  and  C_2
REMARK    2  A    between atoms: C_6  and  C_40
REMARK    3  A    between atoms: C_7  and  N_8
REMARK    4  A    between atoms: C_9  and  C_11
REMARK    5  A    between atoms: C_11  and  O_12
REMARK    6  A    between atoms: O_12  and  C_13
REMARK    7  A    between atoms: C_21  and  C_23
REMARK    8  A    between atoms: C_23  and  C_25
REMARK    9  A    between atoms: C_23  and  N_34
REMARK   10  A    between atoms: C_28  and  N_31
REMARK                            x       y       z     vdW  Elec       q    Type
REMARK                         _______ _______ _______ _____ _____    ______ ____
ROOT
ATOM      1  N   UNL     1       0.186  -0.655   1.905  0.00  0.00    -0.206 N 
ATOM      2  C   UNL     1      -1.058  -0.887   2.369  0.00  0.00    +0.264 C 
ATOM      3  O   UNL     1      -1.344  -0.592   3.509  0.00  0.00    -0.271 OA
ATOM      4  C   UNL     1       1.111  -0.094   2.709  0.00  0.00    +0.248 C 
ATOM      5  O   UNL     1       0.853   0.118   3.874  0.00  0.00    -0.273 OA
ENDROOT
BRANCH   1  12
ATOM      6  C   UNL     1       0.021   1.368  -0.091  0.00  0.00    +0.046 C 
ATOM      7  C   UNL     1       0.450  -0.040  -0.418  0.00  0.00    -0.028 A 
ATOM      8  C   UNL     1       0.783  -0.377  -1.715  0.00  0.00    +0.005 A 
ATOM      9  C   UNL     1       1.177  -1.668  -2.015  0.00  0.00    +0.001 A 
ATOM     10  C   UNL     1       1.239  -2.625  -1.019  0.00  0.00    +0.005 A 
ATOM     11  C   UNL     1       0.908  -2.293   0.281  0.00  0.00    -0.028 A 
ATOM     12  C   UNL     1       0.517  -0.996   0.586  0.00  0.00    +0.050 A 
ATOM     13  C   UNL     1       0.977  -3.336   1.366  0.00  0.00    +0.046 C 
ENDBRANCH   1  12
BRANCH   2  14
ATOM     14  C   UNL     1      -2.092  -1.514   1.470  0.00  0.00    +0.325 C 
BRANCH  14  15
ATOM     15  O   UNL     1      -3.321  -1.657   2.186  0.00  0.00    -0.481 OA
BRANCH  15  16
ATOM     16  C   UNL     1      -4.366  -2.210   1.514  0.00  0.00    +0.140 A 
ATOM     17  C   UNL     1      -4.209  -2.612   0.196  0.00  0.00    +0.048 A 
ATOM     18  C   UNL     1      -5.271  -3.175  -0.485  0.00  0.00    +0.023 A 
ATOM     19  C   UNL     1      -6.492  -3.337   0.146  0.00  0.00    +0.043 A 
ATOM     20  C   UNL     1      -6.651  -2.937   1.461  0.00  0.00    +0.043 A 
ATOM     21  C   UNL     1      -5.589  -2.379   2.148  0.00  0.00    +0.084 A 
ATOM     22 CL   UNL     1      -5.787  -1.883   3.800  0.00  0.00    -0.080 Cl
ATOM     23 CL   UNL     1      -7.825  -4.043  -0.712  0.00  0.00    -0.083 Cl
ENDBRANCH  15  16
ENDBRANCH  14  15
ENDBRANCH   2  14
BRANCH   4  24
ATOM     24  C   UNL     1       2.466   0.269   2.159  0.00  0.00    +0.175 C 
BRANCH  24  25
ATOM     25  C   UNL     1       3.406  -0.896   2.329  0.00  0.00    -0.021 A 
ATOM     26  C   UNL     1       3.803  -1.631   1.226  0.00  0.00    +0.008 A 
ATOM     27  C   UNL     1       4.665  -2.700   1.382  0.00  0.00    +0.033 A 
ATOM     28  C   UNL     1       5.131  -3.034   2.640  0.00  0.00    +0.126 A 
ATOM     29  C   UNL     1       4.736  -2.300   3.742  0.00  0.00    +0.033 A 
ATOM     30  C   UNL     1       3.877  -1.228   3.586  0.00  0.00    +0.008 A 
BRANCH  28  31
ATOM     31  N   UNL     1       6.054  -4.180   2.807  0.00  0.00    +0.056 N 
ATOM     32  O   UNL     1       6.399  -4.823   1.843  0.00  0.00    -0.126 OA
ATOM     33  O   UNL     1       6.462  -4.473   3.907  0.00  0.00    -0.126 OA
ENDBRANCH  28  31
ENDBRANCH  24  25
BRANCH  24  34
ATOM     34  N   UNL     1       2.993   1.433   2.884  0.00  0.00    -0.284 NA
ATOM     35  C   UNL     1       2.126   2.605   2.700  0.00  0.00    +0.113 C 
ATOM     36  C   UNL     1       2.678   3.775   3.519  0.00  0.00    +0.175 C 
ATOM     37  O   UNL     1       4.027   4.033   3.123  0.00  0.00    -0.377 OA
ATOM     38  C   UNL     1       4.900   2.913   3.289  0.00  0.00    +0.175 C 
ATOM     39  C   UNL     1       4.371   1.734   2.468  0.00  0.00    +0.113 C 
ENDBRANCH  24  34
ENDBRANCH   4  24
TORSDOF 8
