REMARK  Name = ZINC35747380
REMARK  12 active torsions:
REMARK  status: ('A' for Active; 'I' for Inactive)
REMARK    1  A    between atoms: C_5  and  C_7
REMARK    2  A    between atoms: C_16  and  C_18
REMARK    3  A    between atoms: C_18  and  N_19
REMARK    4  A    between atoms: N_19  and  C_20
REMARK    5  A    between atoms: N_19  and  C_26
REMARK    6  A    between atoms: C_20  and  C_21
REMARK    7  A    between atoms: C_26  and  C_27
REMARK    8  A    between atoms: C_27  and  C_29
REMARK    9  A    between atoms: C_27  and  O_37
REMARK   10  A    between atoms: C_29  and  O_30
REMARK   11  A    between atoms: O_30  and  C_31
REMARK   12  A    between atoms: C_31  and  C_32
REMARK                            x       y       z     vdW  Elec       q    Type
REMARK                         _______ _______ _______ _____ _____    ______ ____
ROOT
ATOM      1  N   UNL     1       2.925  -7.396   3.504  0.00  0.00    +0.391 N 
ATOM      2  H   UNL     1       2.002  -7.682   3.216  0.00  0.00    -0.080 HD
ENDROOT
BRANCH   1   3
ATOM      3  C   UNL     1       2.898  -5.982   3.902  0.00  0.00    -0.003 C 
BRANCH   3  13
ATOM      4  C   UNL     1       0.561  -3.059  -0.398  0.00  0.00    +0.006 A 
ATOM      5  C   UNL     1       0.219  -3.854  -1.440  0.00  0.00    +0.056 A 
ATOM      6  S   UNL     1       0.696  -5.481  -0.892  0.00  0.00    -0.076 S 
ATOM      7  C   UNL     1       1.338  -5.061   0.708  0.00  0.00    +0.116 A 
ATOM      8  C   UNL     1       1.173  -3.667   0.777  0.00  0.00    +0.080 A 
ATOM      9  C   UNL     1       1.622  -3.049   1.988  0.00  0.00    +0.260 A 
ATOM     10  O   UNL     1       1.516  -1.845   2.144  0.00  0.00    -0.267 OA
ATOM     11  N   UNL     1       2.162  -3.818   2.951  0.00  0.00    -0.312 N 
ATOM     12  H   UNL     1       2.468  -3.405   3.774  0.00  0.00    +0.170 HD
ATOM     13  C   UNL     1       2.287  -5.161   2.795  0.00  0.00    +0.094 A 
ATOM     14  N   UNL     1       1.877  -5.755   1.706  0.00  0.00    -0.229 NA
BRANCH   4  19
ATOM     15  C   UNL     1      -1.192   0.262  -0.559  0.00  0.00    +0.001 A 
ATOM     16  C   UNL     1      -0.119   1.136  -0.560  0.00  0.00    +0.003 A 
ATOM     17  C   UNL     1       1.175   0.651  -0.508  0.00  0.00    +0.039 A 
ATOM     18  C   UNL     1       1.404  -0.711  -0.455  0.00  0.00    +0.131 A 
ATOM     19  C   UNL     1       0.324  -1.596  -0.454  0.00  0.00    +0.019 A 
ATOM     20  C   UNL     1      -0.977  -1.100  -0.506  0.00  0.00    +0.011 A 
ATOM     21  F   UNL     1       2.668  -1.184  -0.405  0.00  0.00    -0.205 F 
ENDBRANCH   4  19
ENDBRANCH   3  13
ENDBRANCH   1   3
BRANCH   1  22
ATOM     22  C   UNL     1       3.863  -7.572   2.388  0.00  0.00    -0.002 C 
BRANCH  22  23
ATOM     23  C   UNL     1       3.823  -9.004   1.920  0.00  0.00    +0.089 A 
ATOM     24  C   UNL     1       2.945  -9.521   1.042  0.00  0.00    +0.042 A 
ATOM     25  C   UNL     1       3.270 -10.889   0.893  0.00  0.00    +0.041 A 
ATOM     26  C   UNL     1       4.328 -11.126   1.689  0.00  0.00    +0.195 A 
ATOM     27  O   UNL     1       4.663  -9.980   2.304  0.00  0.00    -0.470 OA
ENDBRANCH  22  23
ENDBRANCH   1  22
BRANCH   1  28
ATOM     28  C   UNL     1       3.360  -8.216   4.643  0.00  0.00    -0.044 C 
BRANCH  28  29
ATOM     29  C   UNL     1       2.281  -8.194   5.728  0.00  0.00    +0.124 C 
BRANCH  29  30
ATOM     30  O   UNL     1       2.240  -6.899   6.332  0.00  0.00    -0.391 OA
ATOM     31  H   UNL     1       3.071  -6.633   6.750  0.00  0.00    +0.210 HD
ENDBRANCH  29  30
BRANCH  29  32
ATOM     32  C   UNL     1       2.607  -9.243   6.793  0.00  0.00    +0.189 C 
BRANCH  32  33
ATOM     33  O   UNL     1       1.542  -9.303   7.744  0.00  0.00    -0.370 OA
BRANCH  33  34
ATOM     34  C   UNL     1       1.748 -10.258   8.787  0.00  0.00    +0.234 C 
BRANCH  34  35
ATOM     35  C   UNL     1       0.571 -10.237   9.727  0.00  0.00    +0.130 A 
ATOM     36  C   UNL     1      -0.536 -10.994   9.619  0.00  0.00    +0.047 A 
ATOM     37  C   UNL     1      -1.374 -10.652  10.705  0.00  0.00    +0.041 A 
ATOM     38  C   UNL     1      -0.729  -9.707  11.412  0.00  0.00    +0.195 A 
ATOM     39  O   UNL     1       0.451  -9.463  10.818  0.00  0.00    -0.465 OA
ENDBRANCH  34  35
ENDBRANCH  33  34
ENDBRANCH  32  33
ENDBRANCH  29  32
ENDBRANCH  28  29
ENDBRANCH   1  28
TORSDOF 12
