REMARK  Name = ZINC64870937
REMARK  9 active torsions:
REMARK  status: ('A' for Active; 'I' for Inactive)
REMARK    1  A    between atoms: C_1  and  C_2
REMARK    2  A    between atoms: C_5  and  C_8
REMARK    3  A    between atoms: C_8  and  N_9
REMARK    4  A    between atoms: C_15  and  C_22
REMARK    5  A    between atoms: C_25  and  C_29
REMARK    6  A    between atoms: C_32  and  O_35
REMARK    7  A    between atoms: O_35  and  C_36
REMARK    8  A    between atoms: C_36  and  C_37
REMARK    9  A    between atoms: C_36  and  C_38
REMARK                            x       y       z     vdW  Elec       q    Type
REMARK                         _______ _______ _______ _____ _____    ______ ____
ROOT
ATOM      1  N   UNL     1       1.427  -4.410  -2.378  0.00  0.00    -0.256 N 
ATOM      2  C   UNL     1       2.224  -4.714  -3.425  0.00  0.00    +0.265 A 
ATOM      3  O   UNL     1       1.829  -4.584  -4.568  0.00  0.00    -0.267 OA
ATOM      4  C   UNL     1       3.585  -5.206  -3.147  0.00  0.00    +0.063 A 
ATOM      5  C   UNL     1       4.467  -5.540  -4.173  0.00  0.00    +0.016 A 
ATOM      6  C   UNL     1       5.731  -5.996  -3.860  0.00  0.00    +0.008 A 
ATOM      7  C   UNL     1       6.124  -6.123  -2.537  0.00  0.00    -0.000 A 
ATOM      8  C   UNL     1       5.259  -5.795  -1.511  0.00  0.00    +0.034 A 
ATOM      9  C   UNL     1       3.985  -5.335  -1.806  0.00  0.00    +0.056 A 
ATOM     10  N   UNL     1       3.086  -4.994  -0.806  0.00  0.00    -0.307 N 
ATOM     11  H   UNL     1       3.348  -5.077   0.124  0.00  0.00    +0.170 HD
ATOM     12  C   UNL     1       1.857  -4.544  -1.113  0.00  0.00    +0.330 A 
ATOM     13  O   UNL     1       1.101  -4.252  -0.208  0.00  0.00    -0.246 OA
ENDROOT
BRANCH   7  14
ATOM     14  C   UNL     1       7.508  -6.624  -2.214  0.00  0.00    +0.242 C 
ATOM     15  N   UNL     1       7.996  -7.519  -3.288  0.00  0.00    -0.265 NA
ATOM     16  C   UNL     1       9.441  -7.240  -3.434  0.00  0.00    +0.180 C 
ATOM     17  N   UNL     1       9.751  -6.185  -2.441  0.00  0.00    -0.177 NA
ATOM     18  O   UNL     1       8.448  -5.526  -2.191  0.00  0.00    -0.274 OA
ATOM     19  H   UNL     1       7.836  -8.487  -3.053  0.00  0.00    +0.127 HD
ATOM     20  H   UNL     1      10.424  -5.529  -2.808  0.00  0.00    +0.156 HD
BRANCH  16  21
ATOM     21  C   UNL     1      10.242  -8.483  -3.143  0.00  0.00    -0.014 A 
ATOM     22  C   UNL     1       9.705  -9.728  -3.409  0.00  0.00    +0.010 A 
ATOM     23  C   UNL     1      10.437 -10.869  -3.142  0.00  0.00    +0.046 A 
ATOM     24  C   UNL     1      11.712 -10.764  -2.607  0.00  0.00    +0.121 A 
ATOM     25  C   UNL     1      12.249  -9.512  -2.340  0.00  0.00    +0.046 A 
ATOM     26  C   UNL     1      11.515  -8.375  -2.614  0.00  0.00    +0.010 A 
BRANCH  24  27
ATOM     27  O   UNL     1      12.435 -11.884  -2.343  0.00  0.00    -0.489 OA
BRANCH  27  28
ATOM     28  C   UNL     1      11.777 -13.139  -2.530  0.00  0.00    +0.167 C 
ATOM     29  C   UNL     1      11.883 -13.557  -3.998  0.00  0.00    +0.051 C 
ATOM     30  C   UNL     1      12.440 -14.199  -1.649  0.00  0.00    +0.051 C 
ENDBRANCH  27  28
ENDBRANCH  24  27
ENDBRANCH  16  21
ENDBRANCH   7  14
BRANCH   1  31
ATOM     31  C   UNL     1       0.070  -3.918  -2.627  0.00  0.00    +0.165 C 
BRANCH  31  36
ATOM     32  C   UNL     1       0.153   1.845  -3.045  0.00  0.00    +0.044 C 
ATOM     33  C   UNL     1       0.132   0.342  -2.936  0.00  0.00    -0.050 A 
ATOM     34  C   UNL     1       0.307  -0.435  -4.066  0.00  0.00    +0.004 A 
ATOM     35  C   UNL     1       0.287  -1.814  -3.965  0.00  0.00    +0.005 A 
ATOM     36  C   UNL     1       0.092  -2.415  -2.736  0.00  0.00    -0.027 A 
ATOM     37  C   UNL     1      -0.082  -1.637  -1.606  0.00  0.00    +0.005 A 
ATOM     38  C   UNL     1      -0.058  -0.259  -1.706  0.00  0.00    +0.004 A 
ENDBRANCH  31  36
ENDBRANCH   1  31
TORSDOF 6
