REMARK  Name = ZINC38681395
REMARK  5 active torsions:
REMARK  status: ('A' for Active; 'I' for Inactive)
REMARK    1  A    between atoms: C_1  and  C_2
REMARK    2  A    between atoms: C_2  and  C_3
REMARK    3  A    between atoms: C_6  and  S_9
REMARK    4  A    between atoms: S_9  and  N_12
REMARK    5  A    between atoms: N_12  and  C_13
REMARK                            x       y       z     vdW  Elec       q    Type
REMARK                         _______ _______ _______ _____ _____    ______ ____
ROOT
ATOM      1  N   UNL     1      -6.666  -0.779   0.055  0.00  0.00    -0.216 N 
ATOM      2  H   UNL     1      -7.237  -0.612   0.822  0.00  0.00    +0.174 HD
ENDROOT
BRANCH   1   3
ATOM      3  C   UNL     1      -6.694   0.089  -1.041  0.00  0.00    +0.049 A 
ATOM      4  C   UNL     1      -6.675   1.463  -0.811  0.00  0.00    +0.030 A 
ATOM      5  C   UNL     1      -6.703   2.349  -1.861  0.00  0.00    -0.024 A 
ATOM      6  C   UNL     1      -6.751   1.805  -3.144  0.00  0.00    +0.043 A 
ATOM      7  C   UNL     1      -6.769   0.438  -3.381  0.00  0.00    -0.015 A 
ATOM      8  C   UNL     1      -6.735  -0.452  -2.331  0.00  0.00    +0.030 A 
ATOM      9  C   UNL     1      -6.818   0.294  -4.871  0.00  0.00    +0.133 C 
ATOM     10  C   UNL     1      -6.826   1.726  -5.389  0.00  0.00    +0.224 C 
ATOM     11  O   UNL     1      -6.859   2.066  -6.553  0.00  0.00    -0.275 OA
ATOM     12  N   UNL     1      -6.788   2.544  -4.327  0.00  0.00    -0.271 N 
ATOM     13  C   UNL     1      -6.785   4.017  -4.282  0.00  0.00    +0.114 C 
ATOM     14  C   UNL     1      -7.408   4.461  -2.953  0.00  0.00    +0.024 C 
ATOM     15  C   UNL     1      -6.684   3.846  -1.751  0.00  0.00    +0.038 C 
ENDBRANCH   1   3
BRANCH   1  16
ATOM     16  S   UNL     1      -5.658  -2.093   0.045  0.00  0.00    +0.072 S 
ATOM     17  O   UNL     1      -5.858  -2.749  -1.200  0.00  0.00    -0.150 OA
ATOM     18  O   UNL     1      -5.838  -2.753   1.291  0.00  0.00    -0.150 OA
BRANCH  16  22
ATOM     19  C   UNL     1      -1.412  -0.526   0.013  0.00  0.00    -0.048 A 
ATOM     20  C   UNL     1      -2.051  -0.766   1.215  0.00  0.00    +0.005 A 
ATOM     21  C   UNL     1      -3.348  -1.244   1.225  0.00  0.00    +0.029 A 
ATOM     22  C   UNL     1      -4.006  -1.482   0.032  0.00  0.00    +0.109 A 
ATOM     23  C   UNL     1      -3.367  -1.241  -1.170  0.00  0.00    +0.029 A 
ATOM     24  C   UNL     1      -2.072  -0.758  -1.179  0.00  0.00    +0.005 A 
BRANCH  19  26
ATOM     25  C   UNL     1      -0.019   1.526   0.010  0.00  0.00    +0.009 C 
ATOM     26  C   UNL     1       0.002  -0.004   0.002  0.00  0.00    +0.032 C 
ENDBRANCH  19  26
ENDBRANCH  16  22
ENDBRANCH   1  16
TORSDOF 4
