REMARK  Name = ZINC05615920
REMARK  9 active torsions:
REMARK  status: ('A' for Active; 'I' for Inactive)
REMARK    1  A    between atoms: C_1  and  N_2
REMARK    2  A    between atoms: N_2  and  C_3
REMARK    3  A    between atoms: N_2  and  C_4
REMARK    4  A    between atoms: C_7  and  C_12
REMARK    5  A    between atoms: C_8  and  O_10
REMARK    6  A    between atoms: O_10  and  C_11
REMARK    7  A    between atoms: C_12  and  C_32
REMARK    8  A    between atoms: C_32  and  O_34
REMARK    9  A    between atoms: O_34  and  C_35
REMARK                            x       y       z     vdW  Elec       q    Type
REMARK                         _______ _______ _______ _____ _____    ______ ____
ROOT
ATOM      1  C   UNL     1       5.984   0.585  -0.214  0.00  0.00    +0.136 C 
ATOM      2  C   UNL     1       6.431   0.827   1.268  0.00  0.00    +0.031 C 
ATOM      3  C   UNL     1       5.178   1.252   2.001  0.00  0.00    -0.026 C 
ATOM      4  C   UNL     1       5.092   1.201   3.516  0.00  0.00    -0.000 C 
ATOM      5  C   UNL     1       3.690   1.696   3.921  0.00  0.00    -0.018 C 
ATOM      6  C   UNL     1       3.185   2.905   3.119  0.00  0.00    -0.079 C 
ATOM      7  C   UNL     1       5.059   2.789   1.721  0.00  0.00    -0.075 C 
ATOM      8  C   UNL     1       3.172   3.743   0.687  0.00  0.00    -0.074 C 
ATOM      9  C   UNL     1       3.765   3.079  -0.611  0.00  0.00    +0.019 C 
ATOM     10  C   UNL     1       3.581   1.577  -0.495  0.00  0.00    -0.019 A 
ATOM     11  C   UNL     1       4.472   0.579  -0.311  0.00  0.00    +0.042 A 
ATOM     12  N   UNL     1       3.777  -0.620  -0.228  0.00  0.00    -0.357 N 
ATOM     13  H   UNL     1       4.163  -1.483  -0.013  0.00  0.00    +0.166 HD
ATOM     14  C   UNL     1       2.452  -0.430  -0.455  0.00  0.00    +0.047 A 
ATOM     15  C   UNL     1       2.260   0.960  -0.605  0.00  0.00    +0.003 A 
ATOM     16  C   UNL     1       0.991   1.505  -0.824  0.00  0.00    +0.010 A 
ATOM     17  C   UNL     1      -0.054   0.618  -0.906  0.00  0.00    +0.001 A 
ATOM     18  C   UNL     1       0.129  -0.749  -0.777  0.00  0.00    +0.002 A 
ATOM     19  C   UNL     1       1.373  -1.310  -0.543  0.00  0.00    +0.026 A 
ATOM     20  N   UNL     1       3.641   2.719   1.710  0.00  0.00    +0.380 N 
ATOM     21  H   UNL     1       3.333   1.791   1.397  0.00  0.00    -0.082 HD
ENDROOT
BRANCH   1  25
ATOM     22  C   UNL     1       7.714   3.504  -2.819  0.00  0.00    +0.033 A 
ATOM     23  C   UNL     1       8.039   3.493  -1.468  0.00  0.00    +0.023 A 
ATOM     24  C   UNL     1       7.475   2.552  -0.629  0.00  0.00    +0.010 A 
ATOM     25  C   UNL     1       6.594   1.613  -1.132  0.00  0.00    +0.017 A 
ATOM     26  C   UNL     1       6.266   1.620  -2.481  0.00  0.00    +0.126 A 
ATOM     27  C   UNL     1       6.826   2.565  -3.325  0.00  0.00    +0.069 A 
BRANCH  22  29
ATOM     28  C   UNL     1       7.848   4.547  -5.064  0.00  0.00    +0.129 C 
ATOM     29  N   UNL     1       8.281   4.458  -3.667  0.00  0.00    -0.336 N 
ATOM     30  C   UNL     1       9.309   5.370  -3.160  0.00  0.00    +0.129 C 
ENDBRANCH  22  29
BRANCH  26  31
ATOM     31  O   UNL     1       5.396   0.699  -2.973  0.00  0.00    -0.495 OA
ATOM     32  C   UNL     1       5.104   0.764  -4.370  0.00  0.00    +0.277 C 
ENDBRANCH  26  31
ENDBRANCH   1  25
BRANCH   1  33
ATOM     33  C   UNL     1       6.516  -0.772  -0.654  0.00  0.00    +0.323 C 
ATOM     34  O   UNL     1       7.162  -1.446   0.114  0.00  0.00    -0.249 OA
BRANCH  33  35
ATOM     35  O   UNL     1       6.266  -1.222  -1.894  0.00  0.00    -0.467 OA
ATOM     36  C   UNL     1       6.803  -2.524  -2.244  0.00  0.00    +0.280 C 
ENDBRANCH  33  35
ENDBRANCH   1  33
TORSDOF 5
