REMARK  Name = ZINC01883538
REMARK  9 active torsions:
REMARK  status: ('A' for Active; 'I' for Inactive)
REMARK    1  A    between atoms: C_1  and  C_2
REMARK    2  A    between atoms: C_5  and  C_8
REMARK    3  A    between atoms: C_17  and  C_20
REMARK    4  A    between atoms: N_22  and  N_23
REMARK    5  A    between atoms: C_24  and  C_25
REMARK    6  A    between atoms: C_28  and  C_31
REMARK    7  A    between atoms: C_34  and  O_37
REMARK    8  A    between atoms: O_37  and  C_38
REMARK    9  A    between atoms: C_38  and  C_40
REMARK                            x       y       z     vdW  Elec       q    Type
REMARK                         _______ _______ _______ _____ _____    ______ ____
ROOT
ATOM      1  C   UNL     1       0.351  -6.721   2.893  0.00  0.00    +0.238 C 
ATOM      2  O   UNL     1       0.427  -5.950   3.826  0.00  0.00    -0.273 OA
ATOM      3  N   UNL     1       0.273  -8.047   3.119  0.00  0.00    -0.207 N 
ATOM      4  H   UNL     1       0.212  -8.664   2.373  0.00  0.00    +0.177 HD
ENDROOT
BRANCH   1  12
ATOM      5  C   UNL     1       0.435  -4.136   0.069  0.00  0.00    -0.003 C 
ATOM      6  C   UNL     1      -0.864  -4.553  -0.623  0.00  0.00    +0.015 C 
ATOM      7  C   UNL     1      -0.962  -6.080  -0.646  0.00  0.00    -0.009 C 
ATOM      8  C   UNL     1       0.231  -6.656  -1.411  0.00  0.00    +0.007 C 
ATOM      9  C   UNL     1       1.530  -6.239  -0.718  0.00  0.00    -0.009 C 
ATOM     10  C   UNL     1       1.628  -4.712  -0.695  0.00  0.00    +0.015 C 
ATOM     11  C   UNL     1       1.537  -6.772   0.716  0.00  0.00    +0.019 C 
ATOM     12  C   UNL     1       0.344  -6.196   1.480  0.00  0.00    +0.050 C 
ATOM     13  C   UNL     1      -0.955  -6.613   0.788  0.00  0.00    +0.019 C 
ATOM     14  C   UNL     1       0.442  -4.669   1.503  0.00  0.00    +0.027 C 
BRANCH   5  19
ATOM     15  C   UNL     1       0.802   1.630   0.156  0.00  0.00    +0.044 C 
ATOM     16  C   UNL     1       0.707   0.127   0.133  0.00  0.00    -0.050 A 
ATOM     17  C   UNL     1       0.630  -0.543  -1.074  0.00  0.00    +0.003 A 
ATOM     18  C   UNL     1       0.542  -1.923  -1.095  0.00  0.00    +0.004 A 
ATOM     19  C   UNL     1       0.531  -2.632   0.092  0.00  0.00    -0.041 A 
ATOM     20  C   UNL     1       0.609  -1.963   1.299  0.00  0.00    +0.004 A 
ATOM     21  C   UNL     1       0.701  -0.584   1.319  0.00  0.00    +0.003 A 
ENDBRANCH   5  19
ENDBRANCH   1  12
BRANCH   3  22
ATOM     22  N   UNL     1       0.280  -8.535   4.433  0.00  0.00    -0.188 NA
ATOM     23  C   UNL     1       0.204  -9.813   4.651  0.00  0.00    +0.138 C 
BRANCH  23  24
ATOM     24  C   UNL     1       0.211 -10.326   6.032  0.00  0.00    -0.005 A 
ATOM     25  C   UNL     1       0.293  -9.438   7.108  0.00  0.00    +0.010 A 
ATOM     26  C   UNL     1       0.299  -9.918   8.398  0.00  0.00    +0.009 A 
ATOM     27  C   UNL     1       0.224 -11.292   8.631  0.00  0.00    -0.018 A 
ATOM     28  C   UNL     1       0.143 -12.180   7.558  0.00  0.00    +0.009 A 
ATOM     29  C   UNL     1       0.130 -11.702   6.268  0.00  0.00    +0.010 A 
BRANCH  27  30
ATOM     30  C   UNL     1       0.231 -11.809  10.021  0.00  0.00    -0.018 A 
ATOM     31  C   UNL     1       0.307 -10.923  11.095  0.00  0.00    +0.012 A 
ATOM     32  C   UNL     1       0.313 -11.406  12.386  0.00  0.00    +0.047 A 
ATOM     33  C   UNL     1       0.244 -12.774  12.617  0.00  0.00    +0.132 A 
ATOM     34  C   UNL     1       0.168 -13.658  11.550  0.00  0.00    +0.047 A 
ATOM     35  C   UNL     1       0.156 -13.181  10.257  0.00  0.00    +0.012 A 
BRANCH  33  36
ATOM     36  O   UNL     1       0.250 -13.247  13.891  0.00  0.00    -0.426 OA
BRANCH  36  37
ATOM     37  C   UNL     1      -0.828 -13.012  14.656  0.00  0.00    +0.309 C 
ATOM     38  O   UNL     1      -1.806 -12.489  14.178  0.00  0.00    -0.251 OA
ATOM     39  C   UNL     1      -0.818 -13.402  16.112  0.00  0.00    +0.136 C 
ENDBRANCH  36  37
ENDBRANCH  33  36
ENDBRANCH  27  30
ENDBRANCH  23  24
ENDBRANCH   3  22
TORSDOF 7
