REMARK  Name = ZINC08915357
REMARK  7 active torsions:
REMARK  status: ('A' for Active; 'I' for Inactive)
REMARK    1  A    between atoms: C_4  and  C_7
REMARK    2  A    between atoms: C_7  and  C_9
REMARK    3  A    between atoms: C_11  and  C_23
REMARK    4  A    between atoms: C_17  and  C_18
REMARK    5  A    between atoms: C_17  and  O_22
REMARK    6  A    between atoms: C_26  and  C_28
REMARK    7  A    between atoms: C_32  and  N_34
REMARK                            x       y       z     vdW  Elec       q    Type
REMARK                         _______ _______ _______ _____ _____    ______ ____
ROOT
ATOM      1  C   UNL     1      -4.537   7.476  -1.341  0.00  0.00    +0.147 C 
ATOM      2  C   UNL     1      -4.565   6.899   0.078  0.00  0.00    +0.156 C 
ATOM      3  N   UNL     1      -3.771   7.755   0.961  0.00  0.00    -0.289 N 
ATOM      4  C   UNL     1      -2.732   8.464   0.495  0.00  0.00    +0.302 C 
ATOM      5  O   UNL     1      -2.099   9.152   1.273  0.00  0.00    -0.253 OA
ATOM      6  N   UNL     1      -2.363   8.445  -0.794  0.00  0.00    -0.264 N 
ATOM      7  C   UNL     1      -3.076   7.628  -1.778  0.00  0.00    +0.243 C 
ATOM      8  H   UNL     1      -4.000   7.811   1.902  0.00  0.00    +0.151 HD
ATOM      9  H   UNL     1      -1.609   8.983  -1.081  0.00  0.00    +0.153 HD
ENDROOT
BRANCH   2  10
ATOM     10  C   UNL     1      -3.982   5.509   0.067  0.00  0.00    +0.127 A 
ATOM     11  C   UNL     1      -4.688   4.361   0.069  0.00  0.00    +0.047 A 
ATOM     12  C   UNL     1      -3.757   3.304   0.050  0.00  0.00    +0.050 A 
ATOM     13  C   UNL     1      -2.521   3.870   0.046  0.00  0.00    +0.135 A 
ATOM     14  O   UNL     1      -2.673   5.208   0.053  0.00  0.00    -0.458 OA
BRANCH  13  15
ATOM     15  C   UNL     1      -1.234   3.144   0.030  0.00  0.00    +0.019 A 
ATOM     16  C   UNL     1      -1.217   1.748   0.017  0.00  0.00    +0.012 A 
ATOM     17  C   UNL     1      -0.013   1.076   0.008  0.00  0.00    +0.003 A 
ATOM     18  C   UNL     1       1.177   1.782   0.000  0.00  0.00    +0.033 A 
ATOM     19  C   UNL     1       1.167   3.166   0.007  0.00  0.00    +0.127 A 
ATOM     20  C   UNL     1      -0.031   3.850   0.022  0.00  0.00    +0.044 A 
BRANCH  19  21
ATOM     21  N   UNL     1       2.445   3.913  -0.001  0.00  0.00    +0.056 N 
ATOM     22  O   UNL     1       3.503   3.311  -0.015  0.00  0.00    -0.126 OA
ATOM     23  O   UNL     1       2.438   5.131   0.005  0.00  0.00    -0.126 OA
ENDBRANCH  19  21
ENDBRANCH  13  15
ENDBRANCH   2  10
BRANCH   7  24
ATOM     24  C   UNL     1      -3.018   8.309  -3.146  0.00  0.00    +0.436 C 
ATOM     25  F   UNL     1      -1.683   8.452  -3.540  0.00  0.00    -0.166 F 
ATOM     26  F   UNL     1      -3.700   7.527  -4.085  0.00  0.00    -0.166 F 
ATOM     27  F   UNL     1      -3.619   9.570  -3.066  0.00  0.00    -0.166 F 
ENDBRANCH   7  24
BRANCH   1  28
ATOM     28  C   UNL     1      -5.253   6.542  -2.282  0.00  0.00    +0.173 C 
ATOM     29  O   UNL     1      -4.638   5.663  -2.847  0.00  0.00    -0.292 OA
BRANCH  28  33
ATOM     30  C   UNL     1      -9.418   6.984  -2.950  0.00  0.00    +0.000 A 
ATOM     31  C   UNL     1      -8.720   5.980  -3.599  0.00  0.00    +0.001 A 
ATOM     32  C   UNL     1      -7.365   5.830  -3.386  0.00  0.00    +0.011 A 
ATOM     33  C   UNL     1      -6.698   6.695  -2.514  0.00  0.00    +0.018 A 
ATOM     34  C   UNL     1      -7.412   7.704  -1.859  0.00  0.00    +0.011 A 
ATOM     35  C   UNL     1      -8.765   7.844  -2.085  0.00  0.00    +0.001 A 
ENDBRANCH  28  33
ENDBRANCH   1  28
BRANCH   7  36
ATOM     36  O   UNL     1      -2.466   6.338  -1.859  0.00  0.00    -0.364 OA
ATOM     37  H   UNL     1      -1.537   6.359  -2.127  0.00  0.00    +0.212 HD
ENDBRANCH   7  36
TORSDOF 7
