REMARK  Name = ZINC05610025
REMARK  4 active torsions:
REMARK  status: ('A' for Active; 'I' for Inactive)
REMARK    1  A    between atoms: C_1  and  C_2
REMARK    2  A    between atoms: C_2  and  C_3
REMARK    3  A    between atoms: C_10  and  N_24
REMARK    4  A    between atoms: C_11  and  C_22
REMARK                            x       y       z     vdW  Elec       q    Type
REMARK                         _______ _______ _______ _____ _____    ______ ____
ROOT
ATOM      1  C   UNL     1       0.731  -0.503   1.223  0.00  0.00    +0.071 A 
ATOM      2  C   UNL     1       2.094  -0.752   1.313  0.00  0.00    +0.061 A 
ATOM      3  C   UNL     1       2.361  -1.190   2.583  0.00  0.00    +0.223 A 
ATOM      4  N   UNL     1       1.200  -1.213   3.256  0.00  0.00    -0.246 N 
ATOM      5  H   UNL     1       1.081  -1.482   4.180  0.00  0.00    +0.192 HD
ATOM      6  N   UNL     1       0.189  -0.773   2.387  0.00  0.00    -0.176 NA
ATOM      7  O   UNL     1       3.610  -1.518   2.993  0.00  0.00    -0.423 OA
ATOM      8  C   UNL     1       4.648  -1.157   2.212  0.00  0.00    +0.201 C 
ATOM      9  C   UNL     1       4.512  -0.721   0.938  0.00  0.00    +0.110 C 
ATOM     10  C   UNL     1       3.168  -0.602   0.274  0.00  0.00    +0.144 C 
ATOM     11  C   UNL     1       3.010  -1.609  -0.820  0.00  0.00    -0.002 A 
ATOM     12  C   UNL     1       3.032  -2.988  -0.805  0.00  0.00    +0.007 A 
ATOM     13  C   UNL     1       2.848  -3.635  -2.022  0.00  0.00    +0.000 A 
ATOM     14  C   UNL     1       2.652  -2.927  -3.190  0.00  0.00    +0.002 A 
ATOM     15  C   UNL     1       2.630  -1.541  -3.213  0.00  0.00    +0.023 A 
ATOM     16  C   UNL     1       2.813  -0.879  -1.998  0.00  0.00    +0.038 A 
ATOM     17  N   UNL     1       2.839   0.479  -1.733  0.00  0.00    -0.284 N 
ATOM     18  C   UNL     1       3.043   0.735  -0.423  0.00  0.00    +0.238 C 
ATOM     19  O   UNL     1       3.114   1.828   0.096  0.00  0.00    -0.274 OA
ATOM     20  H   UNL     1       2.723   1.166  -2.408  0.00  0.00    +0.155 HD
ENDROOT
BRANCH   8  21
ATOM     21  N   UNL     1       5.913  -1.236   2.738  0.00  0.00    -0.328 N 
ATOM     22  H   UNL     1       6.042  -1.545   3.648  0.00  0.00    +0.145 HD
ATOM     23  H   UNL     1       6.679  -0.983   2.199  0.00  0.00    +0.145 HD
ENDBRANCH   8  21
BRANCH   1  25
ATOM     24  C   UNL     1      -0.019   1.526   0.010  0.00  0.00    +0.010 C 
ATOM     25  C   UNL     1       0.002  -0.004   0.002  0.00  0.00    +0.054 C 
ENDBRANCH   1  25
BRANCH   9  26
ATOM     26  C   UNL     1       5.685  -0.361   0.199  0.00  0.00    +0.102 C 
ATOM     27  N   UNL     1       6.615  -0.075  -0.387  0.00  0.00    -0.191 NA
ENDBRANCH   9  26
TORSDOF 3
