REMARK  Name = ZINC00863414
REMARK  12 active torsions:
REMARK  status: ('A' for Active; 'I' for Inactive)
REMARK    1  A    between atoms: C_1  and  C_2
REMARK    2  A    between atoms: C_3  and  C_32
REMARK    3  A    between atoms: C_4  and  C_25
REMARK    4  A    between atoms: C_10  and  C_15
REMARK    5  A    between atoms: C_18  and  O_23
REMARK    6  A    between atoms: C_19  and  O_21
REMARK    7  A    between atoms: O_21  and  C_22
REMARK    8  A    between atoms: O_23  and  C_24
REMARK    9  A    between atoms: C_32  and  O_34
REMARK   10  A    between atoms: O_34  and  C_35
REMARK   11  A    between atoms: C_35  and  C_36
REMARK   12  A    between atoms: C_35  and  C_37
REMARK                            x       y       z     vdW  Elec       q    Type
REMARK                         _______ _______ _______ _____ _____    ______ ____
ROOT
ATOM      1  C   UNL     1       3.154   4.644   2.027  0.00  0.00    +0.061 C 
ATOM      2  C   UNL     1       2.928   3.579   0.985  0.00  0.00    +0.016 C 
ATOM      3  C   UNL     1       3.982   2.965   0.419  0.00  0.00    +0.065 C 
ATOM      4  C   UNL     1       3.796   1.905  -0.627  0.00  0.00    +0.092 C 
ATOM      5  C   UNL     1       2.388   1.365  -0.605  0.00  0.00    +0.024 C 
ATOM      6  C   UNL     1       1.395   2.052  -0.000  0.00  0.00    +0.016 C 
ATOM      7  N   UNL     1       1.654   3.244   0.621  0.00  0.00    -0.321 N 
ATOM      8  C   UNL     1      -0.019   1.526   0.010  0.00  0.00    +0.059 C 
ATOM      9  C   UNL     1       0.002  -0.004   0.002  0.00  0.00    +0.032 C 
ATOM     10  C   UNL     1       0.762  -0.473  -1.243  0.00  0.00    +0.088 C 
ATOM     11  C   UNL     1       2.139   0.132  -1.234  0.00  0.00    +0.162 C 
ATOM     12  O   UNL     1       3.053  -0.455  -1.778  0.00  0.00    -0.292 OA
ATOM     13  H   UNL     1       0.824   3.936   0.827  0.00  0.00    +0.152 HD
ENDROOT
BRANCH   4  14
ATOM     14  C   UNL     1       4.079   2.495  -1.984  0.00  0.00    -0.034 A 
ATOM     15  C   UNL     1       5.109   1.991  -2.756  0.00  0.00    +0.004 A 
ATOM     16  C   UNL     1       5.369   2.531  -4.001  0.00  0.00    +0.002 A 
ATOM     17  C   UNL     1       4.599   3.576  -4.476  0.00  0.00    +0.020 A 
ATOM     18  C   UNL     1       3.567   4.081  -3.705  0.00  0.00    +0.041 A 
ATOM     19  C   UNL     1       3.304   3.536  -2.460  0.00  0.00    +0.024 A 
ATOM     20 CL   UNL     1       2.599   5.393  -4.301  0.00  0.00    -0.084 Cl
ENDBRANCH   4  14
BRANCH   9  21
ATOM     21  C   UNL     1      -1.410  -0.529  -0.034  0.00  0.00    -0.040 A 
ATOM     22  C   UNL     1      -2.241  -0.202  -1.089  0.00  0.00    +0.008 A 
ATOM     23  C   UNL     1      -3.537  -0.682  -1.126  0.00  0.00    +0.049 A 
ATOM     24  C   UNL     1      -4.006  -1.492  -0.105  0.00  0.00    +0.161 A 
ATOM     25  C   UNL     1      -3.169  -1.822   0.957  0.00  0.00    +0.162 A 
ATOM     26  C   UNL     1      -1.869  -1.342   0.986  0.00  0.00    +0.053 A 
BRANCH  25  27
ATOM     27  O   UNL     1      -3.624  -2.617   1.962  0.00  0.00    -0.491 OA
ATOM     28  C   UNL     1      -2.710  -2.914   3.019  0.00  0.00    +0.277 C 
ENDBRANCH  25  27
BRANCH  24  29
ATOM     29  O   UNL     1      -5.281  -1.964  -0.140  0.00  0.00    -0.491 OA
ATOM     30  C   UNL     1      -6.082  -1.585  -1.260  0.00  0.00    +0.277 C 
ENDBRANCH  24  29
ENDBRANCH   9  21
BRANCH   3  31
ATOM     31  C   UNL     1       5.290   3.325   0.817  0.00  0.00    +0.338 C 
ATOM     32  O   UNL     1       5.455   4.183   1.665  0.00  0.00    -0.245 OA
BRANCH  31  33
ATOM     33  O   UNL     1       6.357   2.717   0.257  0.00  0.00    -0.459 OA
BRANCH  33  34
ATOM     34  C   UNL     1       7.649   3.130   0.707  0.00  0.00    +0.171 C 
ATOM     35  C   UNL     1       8.075   2.267   1.897  0.00  0.00    +0.052 C 
ATOM     36  C   UNL     1       8.661   2.966  -0.429  0.00  0.00    +0.052 C 
ENDBRANCH  33  34
ENDBRANCH  31  33
ENDBRANCH   3  31
TORSDOF 7
