REMARK  Name = ZINC22803953
REMARK  8 active torsions:
REMARK  status: ('A' for Active; 'I' for Inactive)
REMARK    1  A    between atoms: C_1  and  C_2
REMARK    2  A    between atoms: C_6  and  C_8
REMARK    3  A    between atoms: C_8  and  C_10
REMARK    4  A    between atoms: C_8  and  N_20
REMARK    5  A    between atoms: C_16  and  C_18
REMARK    6  A    between atoms: N_23  and  C_26
REMARK    7  A    between atoms: C_26  and  C_27
REMARK    8  A    between atoms: C_26  and  C_33
REMARK                            x       y       z     vdW  Elec       q    Type
REMARK                         _______ _______ _______ _____ _____    ______ ____
ROOT
ATOM      1  N   UNL     1      -1.639   5.712  -0.625  0.00  0.00    +0.389 N 
ATOM      2  C   UNL     1      -1.502   5.076  -1.943  0.00  0.00    -0.062 C 
ATOM      3  C   UNL     1      -2.547   5.657  -2.898  0.00  0.00    +0.067 C 
ATOM      4  N   UNL     1      -2.363   7.111  -2.997  0.00  0.00    -0.295 NA
ATOM      5  C   UNL     1      -2.501   7.747  -1.679  0.00  0.00    +0.067 C 
ATOM      6  C   UNL     1      -1.455   7.167  -0.724  0.00  0.00    -0.062 C 
ATOM      7  H   UNL     1      -2.660   5.523  -0.261  0.00  0.00    -0.080 HD
ENDROOT
BRANCH   1   8
ATOM      8  C   UNL     1      -0.701   5.127   0.342  0.00  0.00    +0.006 C 
BRANCH   8   9
ATOM      9  C   UNL     1      -0.934   5.737   1.700  0.00  0.00    +0.050 A 
ATOM     10  C   UNL     1      -0.041   6.186   2.590  0.00  0.00    +0.282 A 
ATOM     11  N   UNL     1      -0.453   6.718   3.788  0.00  0.00    -0.170 N 
ATOM     12  C   UNL     1      -1.793   6.755   4.026  0.00  0.00    +0.199 A 
ATOM     13  S   UNL     1      -2.476   6.043   2.549  0.00  0.00    -0.050 S 
ATOM     14  N   UNL     1      -2.014   7.281   5.200  0.00  0.00    -0.205 NA
ATOM     15  C   UNL     1      -0.852   7.602   5.765  0.00  0.00    +0.150 A 
ATOM     16  N   UNL     1       0.122   7.284   4.956  0.00  0.00    -0.147 NA
ATOM     17  C   UNL     1      -0.687   8.232   7.124  0.00  0.00    +0.090 C 
ATOM     18  O   UNL     1       1.287   6.120   2.303  0.00  0.00    -0.265 OA
ENDBRANCH   8   9
BRANCH   8  24
ATOM     19  C   UNL     1       1.145   0.488   0.684  0.00  0.00    +0.044 C 
ATOM     20  C   UNL     1      -0.036   1.419   0.580  0.00  0.00    -0.050 A 
ATOM     21  C   UNL     1      -1.319   0.906   0.551  0.00  0.00    +0.003 A 
ATOM     22  C   UNL     1      -2.402   1.758   0.449  0.00  0.00    +0.000 A 
ATOM     23  C   UNL     1      -2.202   3.125   0.387  0.00  0.00    +0.002 A 
ATOM     24  C   UNL     1      -0.919   3.638   0.416  0.00  0.00    -0.056 A 
ATOM     25  C   UNL     1       0.164   2.784   0.512  0.00  0.00    +0.005 A 
ENDBRANCH   8  24
ENDBRANCH   1   8
BRANCH   4  26
ATOM     26  C   UNL     1      -3.301   7.696  -3.964  0.00  0.00    +0.117 C 
BRANCH  26  27
ATOM     27  C   UNL     1      -3.065   9.182  -4.057  0.00  0.00    -0.026 A 
ATOM     28  C   UNL     1      -1.775   9.674  -4.124  0.00  0.00    +0.005 A 
ATOM     29  C   UNL     1      -1.559  11.036  -4.215  0.00  0.00    +0.000 A 
ATOM     30  C   UNL     1      -2.632  11.907  -4.228  0.00  0.00    +0.000 A 
ATOM     31  C   UNL     1      -3.922  11.415  -4.156  0.00  0.00    +0.000 A 
ATOM     32  C   UNL     1      -4.139  10.053  -4.071  0.00  0.00    +0.005 A 
ENDBRANCH  26  27
BRANCH  26  33
ATOM     33  C   UNL     1      -3.086   7.067  -5.316  0.00  0.00    -0.026 A 
ATOM     34  C   UNL     1      -1.802   6.885  -5.797  0.00  0.00    +0.005 A 
ATOM     35  C   UNL     1      -1.604   6.304  -7.035  0.00  0.00    +0.000 A 
ATOM     36  C   UNL     1      -2.690   5.914  -7.798  0.00  0.00    +0.000 A 
ATOM     37  C   UNL     1      -3.973   6.101  -7.319  0.00  0.00    +0.000 A 
ATOM     38  C   UNL     1      -4.171   6.678  -6.078  0.00  0.00    +0.005 A 
ENDBRANCH  26  33
ENDBRANCH   4  26
TORSDOF 6
