REMARK  Name = ZINC63844128
REMARK  11 active torsions:
REMARK  status: ('A' for Active; 'I' for Inactive)
REMARK    1  A    between atoms: C_1  and  C_2
REMARK    2  A    between atoms: C_2  and  C_4
REMARK    3  A    between atoms: C_2  and  N_16
REMARK    4  A    between atoms: N_6  and  C_7
REMARK    5  A    between atoms: N_16  and  C_17
REMARK    6  A    between atoms: C_17  and  C_18
REMARK    7  A    between atoms: C_18  and  C_20
REMARK    8  A    between atoms: C_18  and  C_29
REMARK    9  A    between atoms: C_23  and  N_26
REMARK   10  A    between atoms: N_26  and  C_27
REMARK   11  A    between atoms: N_26  and  C_28
REMARK                            x       y       z     vdW  Elec       q    Type
REMARK                         _______ _______ _______ _____ _____    ______ ____
ROOT
ATOM      1  C   UNL     1      -3.483  -0.661  -1.227  0.00  0.00    +0.030 C 
ENDROOT
BRANCH   1   2
ATOM      2  C   UNL     1      -3.466  -2.168  -1.224  0.00  0.00    -0.036 C 
ATOM      3  C   UNL     1      -3.995  -2.986  -0.285  0.00  0.00    -0.001 A 
ATOM      4  C   UNL     1      -4.714  -2.727   0.967  0.00  0.00    +0.010 A 
ATOM      5  C   UNL     1      -5.129  -3.776   1.714  0.00  0.00    +0.001 A 
ATOM      6  C   UNL     1      -4.889  -5.100   1.323  0.00  0.00    +0.002 A 
ATOM      7  C   UNL     1      -4.235  -5.417   0.186  0.00  0.00    +0.026 A 
ATOM      8  C   UNL     1      -3.754  -4.393  -0.677  0.00  0.00    +0.043 A 
ATOM      9  N   UNL     1      -3.103  -4.444  -1.813  0.00  0.00    -0.380 N 
ATOM     10  C   UNL     1      -2.861  -3.072  -2.275  0.00  0.00    +0.145 C 
ATOM     11  H   UNL     1      -2.829  -5.253  -2.274  0.00  0.00    +0.160 HD
ENDBRANCH   1   2
BRANCH   1  12
ATOM     12  C   UNL     1      -4.210  -0.169  -2.452  0.00  0.00    -0.042 A 
ATOM     13  C   UNL     1      -3.746  -0.505  -3.711  0.00  0.00    +0.006 A 
ATOM     14  C   UNL     1      -4.409  -0.056  -4.835  0.00  0.00    +0.023 A 
ATOM     15  C   UNL     1      -5.543   0.735  -4.702  0.00  0.00    +0.029 A 
ATOM     16  C   UNL     1      -6.006   1.071  -3.436  0.00  0.00    +0.023 A 
ATOM     17  C   UNL     1      -5.341   0.614  -2.315  0.00  0.00    +0.006 A 
BRANCH  15  18
ATOM     18  N   UNL     1      -6.216   1.192  -5.837  0.00  0.00    -0.336 N 
ATOM     19  C   UNL     1      -5.726   0.837  -7.171  0.00  0.00    +0.129 C 
ATOM     20  C   UNL     1      -7.412   2.026  -5.694  0.00  0.00    +0.129 C 
ENDBRANCH  15  18
ENDBRANCH   1  12
BRANCH   1  21
ATOM     21  C   UNL     1      -2.047  -0.135  -1.240  0.00  0.00    -0.069 C 
BRANCH  21  22
ATOM     22  N   UNL     1      -1.375  -0.514   0.011  0.00  0.00    +0.387 N 
ATOM     23  H   UNL     1      -1.364  -1.520   0.095  0.00  0.00    -0.085 HD
ATOM     24  H   UNL     1      -1.872  -0.117   0.794  0.00  0.00    -0.085 HD
BRANCH  22  26
ATOM     25  C   UNL     1      -0.013   1.521  -0.004  0.00  0.00    -0.004 C 
ATOM     26  C   UNL     1       0.004  -0.009  -0.002  0.00  0.00    +0.013 C 
BRANCH  26  27
ATOM     27  C   UNL     1       0.730  -0.502   1.224  0.00  0.00    +0.203 C 
ATOM     28  O   UNL     1       0.155  -1.204   2.028  0.00  0.00    -0.277 OA
ATOM     29  N   UNL     1       2.019  -0.161   1.426  0.00  0.00    -0.287 N 
ATOM     30  H   UNL     1       2.498   0.344   0.751  0.00  0.00    +0.155 HD
BRANCH  29  31
ATOM     31  C   UNL     1       2.665  -0.537   2.611  0.00  0.00    +0.037 A 
ATOM     32  C   UNL     1       3.603   0.308   3.188  0.00  0.00    +0.027 A 
ATOM     33  C   UNL     1       4.240  -0.061   4.357  0.00  0.00    +0.051 A 
ATOM     34  C   UNL     1       3.947  -1.276   4.955  0.00  0.00    +0.166 A 
ATOM     35  C   UNL     1       3.007  -2.126   4.378  0.00  0.00    +0.168 A 
ATOM     36  C   UNL     1       2.364  -1.753   3.210  0.00  0.00    +0.072 A 
ATOM     37  O   UNL     1       2.900  -3.247   5.150  0.00  0.00    -0.453 OA
ATOM     38  C   UNL     1       4.077  -3.256   5.980  0.00  0.00    +0.466 C 
ATOM     39  O   UNL     1       4.429  -1.865   6.090  0.00  0.00    -0.453 OA
ENDBRANCH  29  31
ENDBRANCH  26  27
ENDBRANCH  22  26
ENDBRANCH  21  22
ENDBRANCH   1  21
TORSDOF 8
