REMARK  Name = ZINC32932804
REMARK  9 active torsions:
REMARK  status: ('A' for Active; 'I' for Inactive)
REMARK    1  A    between atoms: C_1  and  C_2
REMARK    2  A    between atoms: C_7  and  N_8
REMARK    3  A    between atoms: C_9  and  C_11
REMARK    4  A    between atoms: C_11  and  N_12
REMARK    5  A    between atoms: N_12  and  C_13
REMARK    6  A    between atoms: N_12  and  C_14
REMARK    7  A    between atoms: C_14  and  C_15
REMARK    8  A    between atoms: C_18  and  S_20
REMARK    9  A    between atoms: S_20  and  N_23
REMARK                            x       y       z     vdW  Elec       q    Type
REMARK                         _______ _______ _______ _____ _____    ______ ____
ROOT
ATOM      1  N   UNL     1      -0.922   4.077   5.215  0.00  0.00    +0.388 N 
ATOM      2  C   UNL     1       0.467   4.220   4.757  0.00  0.00    -0.095 C 
ATOM      3  H   UNL     1      -1.040   3.062   5.624  0.00  0.00    -0.081 HD
ENDROOT
BRANCH   1   4
ATOM      4  C   UNL     1      -1.223   5.033   6.289  0.00  0.00    +0.019 C 
BRANCH   4   6
ATOM      5  N   UNL     1      -0.519   5.441   8.624  0.00  0.00    -0.287 N 
ATOM      6  C   UNL     1      -0.406   4.694   7.509  0.00  0.00    +0.201 C 
ATOM      7  O   UNL     1       0.352   3.748   7.486  0.00  0.00    -0.278 OA
ATOM      8  H   UNL     1      -1.137   6.351   8.617  0.00  0.00    +0.155 HD
BRANCH   5  15
ATOM      9  C   UNL     1       0.124   7.459  10.525  0.00  0.00    +0.046 C 
ATOM     10  C   UNL     1       0.483   6.012  10.747  0.00  0.00    -0.028 A 
ATOM     11  C   UNL     1       1.139   5.632  11.901  0.00  0.00    +0.020 A 
ATOM     12  C   UNL     1       1.474   4.305  12.103  0.00  0.00    +0.018 A 
ATOM     13  C   UNL     1       1.148   3.354  11.152  0.00  0.00    +0.017 A 
ATOM     14  C   UNL     1       0.488   3.728   9.998  0.00  0.00    +0.024 A 
ATOM     15  C   UNL     1       0.150   5.059   9.793  0.00  0.00    +0.036 A 
ATOM     16 BR   UNL     1       2.379   3.789  13.681  0.00  0.00    -0.050 Br
ENDBRANCH   5  15
ENDBRANCH   4   6
ENDBRANCH   1   4
BRANCH   1  17
ATOM     17  C   UNL     1      -1.863   4.226   4.097  0.00  0.00    -0.003 C 
BRANCH  17  18
ATOM     18  C   UNL     1      -1.683   3.081   3.134  0.00  0.00    +0.091 A 
ATOM     19  C   UNL     1      -2.333   1.904   3.180  0.00  0.00    +0.045 A 
ATOM     20  C   UNL     1      -1.865   1.134   2.091  0.00  0.00    +0.071 A 
ATOM     21  C   UNL     1      -0.950   1.883   1.449  0.00  0.00    +0.258 A 
ATOM     22  O   UNL     1      -0.846   3.062   2.083  0.00  0.00    -0.444 OA
BRANCH  21  23
ATOM     23  S   UNL     1      -0.046   1.401   0.015  0.00  0.00    +0.094 S 
ATOM     24  O   UNL     1      -0.019  -0.019   0.011  0.00  0.00    -0.150 OA
ATOM     25  O   UNL     1       1.139   2.186  -0.000  0.00  0.00    -0.150 OA
BRANCH  23  26
ATOM     26  N   UNL     1      -0.936   1.863  -1.302  0.00  0.00    -0.174 NA
ATOM     27  C   UNL     1      -1.948   1.041  -1.983  0.00  0.00    +0.109 C 
ATOM     28  C   UNL     1      -2.494   1.871  -3.164  0.00  0.00    +0.018 C 
ATOM     29  C   UNL     1      -1.352   2.888  -3.428  0.00  0.00    +0.018 C 
ATOM     30  C   UNL     1      -0.841   3.162  -1.991  0.00  0.00    +0.109 C 
ENDBRANCH  23  26
ENDBRANCH  21  23
ENDBRANCH  17  18
ENDBRANCH   1  17
TORSDOF 7
