REMARK  Name = ZINC04992316
REMARK  9 active torsions:
REMARK  status: ('A' for Active; 'I' for Inactive)
REMARK    1  A    between atoms: C_1  and  C_2
REMARK    2  A    between atoms: C_7  and  N_8
REMARK    3  A    between atoms: C_9  and  C_23
REMARK    4  A    between atoms: C_11  and  O_15
REMARK    5  A    between atoms: O_15  and  C_16
REMARK    6  A    between atoms: C_23  and  N_58
REMARK    7  A    between atoms: C_24  and  C_25
REMARK    8  A    between atoms: C_24  and  N_58
REMARK    9  A    between atoms: C_25  and  C_26
REMARK                            x       y       z     vdW  Elec       q    Type
REMARK                         _______ _______ _______ _____ _____    ______ ____
ROOT
ATOM      1  N   UNL     1      -1.693   8.459   0.454  0.00  0.00    -0.263 N 
ATOM      2  C   UNL     1      -1.329   7.824  -0.826  0.00  0.00    +0.114 C 
ATOM      3  C   UNL     1      -1.355   6.489  -0.062  0.00  0.00    +0.278 C 
ATOM      4  C   UNL     1      -1.728   7.298   1.163  0.00  0.00    +0.263 C 
ATOM      5  O   UNL     1      -1.964   7.019   2.320  0.00  0.00    -0.271 OA
ENDROOT
BRANCH   1  12
ATOM      6  C   UNL     1       0.515  10.009   1.356  0.00  0.00    +0.045 C 
ATOM      7  C   UNL     1      -0.875  10.584   1.259  0.00  0.00    -0.029 A 
ATOM      8  C   UNL     1      -1.106  11.899   1.613  0.00  0.00    +0.005 A 
ATOM      9  C   UNL     1      -2.381  12.426   1.523  0.00  0.00    +0.000 A 
ATOM     10  C   UNL     1      -3.428  11.640   1.079  0.00  0.00    +0.002 A 
ATOM     11  C   UNL     1      -3.203  10.326   0.719  0.00  0.00    +0.024 A 
ATOM     12  C   UNL     1      -1.924   9.791   0.813  0.00  0.00    +0.040 A 
ENDBRANCH   1  12
BRANCH   3  13
ATOM     13  O   UNL     1      -0.077   5.857   0.033  0.00  0.00    -0.478 OA
BRANCH  13  14
ATOM     14  C   UNL     1      -0.067   4.513   0.234  0.00  0.00    +0.122 A 
ATOM     15  C   UNL     1      -1.257   3.835   0.455  0.00  0.00    +0.047 A 
ATOM     16  C   UNL     1      -1.245   2.469   0.659  0.00  0.00    +0.023 A 
ATOM     17  C   UNL     1      -0.047   1.777   0.642  0.00  0.00    +0.041 A 
ATOM     18  C   UNL     1       1.142   2.452   0.428  0.00  0.00    +0.023 A 
ATOM     19  C   UNL     1       1.133   3.818   0.218  0.00  0.00    +0.047 A 
ATOM     20 CL   UNL     1      -0.034   0.060   0.899  0.00  0.00    -0.084 Cl
ENDBRANCH  13  14
ENDBRANCH   3  13
BRANCH   2  21
ATOM     21  C   UNL     1       0.060   8.215  -1.333  0.00  0.00    -0.055 C 
BRANCH  21  22
ATOM     22  N   UNL     1      -0.007   9.558  -1.940  0.00  0.00    +0.381 N 
ATOM     23  H   UNL     1      -0.323  10.233  -1.234  0.00  0.00    -0.086 HD
ATOM     24  H   UNL     1      -0.672   9.543  -2.722  0.00  0.00    -0.086 HD
BRANCH  22  25
ATOM     25  C   UNL     1       1.321   9.961  -2.438  0.00  0.00    -0.078 C 
BRANCH  25  26
ATOM     26  C   UNL     1       1.221  11.355  -3.061  0.00  0.00    +0.011 C 
BRANCH  26  27
ATOM     27  C   UNL     1       2.574  11.776  -3.573  0.00  0.00    -0.075 C 
ATOM     28  C   UNL     1       2.845  11.558  -4.820  0.00  0.00    -0.028 C 
ATOM     29  C   UNL     1       4.149  11.915  -5.472  0.00  0.00    +0.027 C 
ATOM     30  C   UNL     1       4.918  12.913  -4.603  0.00  0.00    +0.004 C 
ATOM     31  C   UNL     1       4.949  12.381  -3.165  0.00  0.00    +0.005 C 
ATOM     32  C   UNL     1       3.526  12.415  -2.605  0.00  0.00    +0.030 C 
ENDBRANCH  26  27
ENDBRANCH  25  26
ENDBRANCH  22  25
ENDBRANCH  21  22
ENDBRANCH   2  21
TORSDOF 8
