REMARK  Name = ZINC09210012
REMARK  3 active torsions:
REMARK  status: ('A' for Active; 'I' for Inactive)
REMARK    1  A    between atoms: C_3  and  O_26
REMARK    2  A    between atoms: C_6  and  C_7
REMARK    3  A    between atoms: O_26  and  C_27
REMARK                            x       y       z     vdW  Elec       q    Type
REMARK                         _______ _______ _______ _____ _____    ______ ____
ROOT
ATOM      1  C   UNL     1      -2.808  -2.503  -0.936  0.00  0.00    +0.068 C 
ATOM      2  N   UNL     1      -2.712  -1.322  -0.419  0.00  0.00    -0.185 NA
ATOM      3  N   UNL     1      -2.215  -0.374  -1.295  0.00  0.00    -0.207 N 
ATOM      4  C   UNL     1      -1.711  -1.062  -2.506  0.00  0.00    +0.136 C 
ATOM      5  C   UNL     1      -2.294  -2.474  -2.361  0.00  0.00    +0.086 C 
ATOM      6  C   UNL     1      -2.295  -0.329  -3.685  0.00  0.00    +0.018 A 
ATOM      7  C   UNL     1      -2.273  -0.929  -4.931  0.00  0.00    +0.024 A 
ATOM      8  C   UNL     1      -2.762  -0.259  -6.037  0.00  0.00    +0.018 A 
ATOM      9  C   UNL     1      -3.275   1.018  -5.894  0.00  0.00    +0.019 A 
ATOM     10  C   UNL     1      -3.308   1.614  -4.652  0.00  0.00    +0.047 A 
ATOM     11  C   UNL     1      -2.826   0.943  -3.529  0.00  0.00    +0.129 A 
ATOM     12  O   UNL     1      -2.911   1.583  -2.334  0.00  0.00    -0.467 OA
ATOM     13  C   UNL     1      -2.195   1.088  -1.202  0.00  0.00    +0.189 C 
ATOM     14  C   UNL     1      -0.753   1.593  -1.232  0.00  0.00    +0.051 C 
ATOM     15  C   UNL     1      -0.013   1.086   0.008  0.00  0.00    -0.077 C 
ATOM     16  C   UNL     1      -2.070   1.035   1.289  0.00  0.00    -0.077 C 
ATOM     17  C   UNL     1      -2.874   1.540   0.089  0.00  0.00    +0.051 C 
ATOM     18 BR   UNL     1      -2.728  -1.084  -7.738  0.00  0.00    -0.050 Br
ATOM     19  N   UNL     1      -0.695   1.567   1.225  0.00  0.00    +0.379 N 
ATOM     20  H   UNL     1      -0.730   2.593   1.210  0.00  0.00    -0.086 HD
ATOM     21  H   UNL     1      -0.172   1.254   2.051  0.00  0.00    -0.086 HD
ENDROOT
BRANCH   1  27
ATOM     22  C   UNL     1      -3.398  -4.921  -0.912  0.00  0.00    +0.013 A 
ATOM     23  C   UNL     1      -3.889  -6.033  -0.261  0.00  0.00    +0.046 A 
ATOM     24  C   UNL     1      -4.332  -5.932   1.051  0.00  0.00    +0.127 A 
ATOM     25  C   UNL     1      -4.279  -4.714   1.715  0.00  0.00    +0.046 A 
ATOM     26  C   UNL     1      -3.785  -3.598   1.074  0.00  0.00    +0.013 A 
ATOM     27  C   UNL     1      -3.337  -3.694  -0.245  0.00  0.00    -0.002 A 
BRANCH  24  28
ATOM     28  O   UNL     1      -4.821  -7.029   1.687  0.00  0.00    -0.434 OA
BRANCH  28  29
ATOM     29  C   UNL     1      -4.847  -8.251   0.945  0.00  0.00    +0.541 C 
ATOM     30  F   UNL     1      -5.646  -8.089  -0.192  0.00  0.00    -0.166 F 
ATOM     31  F   UNL     1      -3.546  -8.589   0.557  0.00  0.00    -0.166 F 
ENDBRANCH  28  29
ENDBRANCH  24  28
ENDBRANCH   1  27
TORSDOF 3
