REMARK  Name = ZINC64601604
REMARK  4 active torsions:
REMARK  status: ('A' for Active; 'I' for Inactive)
REMARK    1  A    between atoms: C_1  and  N_2
REMARK    2  A    between atoms: N_2  and  C_3
REMARK    3  A    between atoms: C_7  and  C_9
REMARK    4  A    between atoms: C_11  and  C_13
REMARK                            x       y       z     vdW  Elec       q    Type
REMARK                         _______ _______ _______ _____ _____    ______ ____
ROOT
ATOM      1  C   UNL     1       0.323   0.292  -2.349  0.00  0.00    +0.302 C 
ATOM      2  O   UNL     1       0.376   1.503  -2.307  0.00  0.00    -0.265 OA
ATOM      3  N   UNL     1       0.275  -0.340  -3.538  0.00  0.00    -0.289 N 
ATOM      4  C   UNL     1       0.093  -1.797  -3.614  0.00  0.00    +0.114 C 
ATOM      5  C   UNL     1      -1.244  -2.100  -4.299  0.00  0.00    +0.072 C 
ATOM      6  C   UNL     1      -1.375  -1.232  -5.528  0.00  0.00    +0.023 A 
ATOM      7  C   UNL     1      -0.648  -0.116  -5.748  0.00  0.00    -0.002 A 
ATOM      8  C   UNL     1      -1.070   0.427  -7.022  0.00  0.00    +0.005 A 
ATOM      9  C   UNL     1      -0.677   1.553  -7.751  0.00  0.00    +0.010 A 
ATOM     10  C   UNL     1      -1.307   1.766  -8.952  0.00  0.00    +0.001 A 
ATOM     11  C   UNL     1      -2.288   0.912  -9.431  0.00  0.00    +0.002 A 
ATOM     12  C   UNL     1      -2.695  -0.210  -8.730  0.00  0.00    +0.026 A 
ATOM     13  C   UNL     1      -2.073  -0.451  -7.507  0.00  0.00    +0.047 A 
ATOM     14  N   UNL     1      -2.230  -1.440  -6.580  0.00  0.00    -0.358 N 
ATOM     15  H   UNL     1      -2.853  -2.180  -6.654  0.00  0.00    +0.166 HD
ATOM     16  C   UNL     1       0.396   0.412  -4.800  0.00  0.00    +0.145 C 
ENDROOT
BRANCH   1  19
ATOM     17  C   UNL     1       2.744  -0.361  -1.035  0.00  0.00    +0.139 C 
ATOM     18  N   UNL     1       1.474  -0.859  -0.501  0.00  0.00    -0.267 N 
ATOM     19  C   UNL     1       0.312  -0.500  -1.082  0.00  0.00    +0.306 C 
ATOM     20  O   UNL     1      -0.744  -0.820  -0.576  0.00  0.00    -0.265 OA
BRANCH  18  21
ATOM     21  C   UNL     1       1.467  -1.706   0.610  0.00  0.00    +0.038 A 
ATOM     22  C   UNL     1       0.285  -2.321   1.008  0.00  0.00    +0.023 A 
ATOM     23  C   UNL     1       0.273  -3.159   2.107  0.00  0.00    +0.003 A 
ATOM     24  C   UNL     1       1.434  -3.393   2.816  0.00  0.00    +0.019 A 
ATOM     25  C   UNL     1       2.626  -2.781   2.424  0.00  0.00    +0.054 A 
ATOM     26  C   UNL     1       2.640  -1.938   1.312  0.00  0.00    +0.042 A 
BRANCH  25  27
ATOM     27  C   UNL     1       3.832  -3.021   3.158  0.00  0.00    +0.099 C 
ATOM     28  N   UNL     1       4.789  -3.212   3.740  0.00  0.00    -0.191 NA
ENDBRANCH  25  27
ENDBRANCH  18  21
ENDBRANCH   1  19
TORSDOF 3
