REMARK  Name = ZINC36029899
REMARK  8 active torsions:
REMARK  status: ('A' for Active; 'I' for Inactive)
REMARK    1  A    between atoms: C_1  and  C_2
REMARK    2  A    between atoms: C_2  and  C_3
REMARK    3  A    between atoms: C_3  and  C_5
REMARK    4  A    between atoms: C_3  and  C_6
REMARK    5  A    between atoms: N_10  and  C_29
REMARK    6  A    between atoms: N_15  and  S_18
REMARK    7  A    between atoms: S_18  and  C_21
REMARK    8  A    between atoms: C_29  and  C_30
REMARK                            x       y       z     vdW  Elec       q    Type
REMARK                         _______ _______ _______ _____ _____    ______ ____
ROOT
ATOM      1  C   UNL     1       0.861  -2.053  -1.168  0.00  0.00    +0.022 C 
ATOM      2  C   UNL     1      -0.491  -2.724  -1.266  0.00  0.00    +0.201 C 
ATOM      3  O   UNL     1      -1.476  -2.433  -0.621  0.00  0.00    -0.277 OA
ATOM      4  N   UNL     1      -0.417  -3.702  -2.193  0.00  0.00    -0.313 N 
ATOM      5  C   UNL     1       0.939  -3.749  -2.747  0.00  0.00    +0.006 C 
ATOM      6  N   UNL     1       1.580  -2.462  -2.399  0.00  0.00    +0.401 N 
ATOM      7  C   UNL     1       1.725  -4.900  -2.123  0.00  0.00    +0.023 C 
ATOM      8  C   UNL     1       1.033  -6.226  -2.454  0.00  0.00    +0.109 C 
ATOM      9  N   UNL     1       0.864  -6.319  -3.911  0.00  0.00    -0.177 NA
ATOM     10  C   UNL     1       0.185  -5.223  -4.616  0.00  0.00    +0.109 C 
ATOM     11  C   UNL     1       0.885  -3.905  -4.266  0.00  0.00    +0.023 C 
ATOM     12  H   UNL     1       1.442  -1.784  -3.134  0.00  0.00    -0.082 HD
ATOM     13  H   UNL     1       2.563  -2.591  -2.211  0.00  0.00    -0.082 HD
ENDROOT
BRANCH   9  14
ATOM     14  S   UNL     1       1.427  -7.636  -4.742  0.00  0.00    +0.062 S 
ATOM     15  O   UNL     1       1.632  -7.212  -6.083  0.00  0.00    -0.153 OA
ATOM     16  O   UNL     1       2.467  -8.200  -3.955  0.00  0.00    -0.153 OA
BRANCH  14  17
ATOM     17  C   UNL     1       0.126  -8.823  -4.783  0.00  0.00    +0.125 A 
ATOM     18  C   UNL     1      -0.449  -9.178  -5.989  0.00  0.00    +0.030 A 
ATOM     19  C   UNL     1      -1.470 -10.109  -6.021  0.00  0.00    +0.003 A 
ATOM     20  C   UNL     1      -1.918 -10.686  -4.848  0.00  0.00    +0.021 A 
ATOM     21  C   UNL     1      -1.344 -10.332  -3.640  0.00  0.00    +0.061 A 
ATOM     22  C   UNL     1      -0.317  -9.404  -3.608  0.00  0.00    +0.086 A 
ATOM     23 CL   UNL     1       0.409  -8.964  -2.094  0.00  0.00    -0.080 Cl
ATOM     24 CL   UNL     1      -1.906 -11.056  -2.166  0.00  0.00    -0.082 Cl
ENDBRANCH  14  17
ENDBRANCH   9  14
BRANCH   1  25
ATOM     25  C   UNL     1       0.699  -0.532  -1.125  0.00  0.00    -0.020 C 
ATOM     26  C   UNL     1      -0.172  -0.079  -2.299  0.00  0.00    +0.006 C 
BRANCH  25  28
ATOM     27  C   UNL     1      -0.017   1.400   0.288  0.00  0.00    +0.004 C 
ATOM     28  C   UNL     1       0.033  -0.126   0.191  0.00  0.00    -0.001 C 
ENDBRANCH  25  28
ENDBRANCH   1  25
BRANCH   4  29
ATOM     29  C   UNL     1      -1.521  -4.582  -2.585  0.00  0.00    +0.109 C 
BRANCH  29  30
ATOM     30  C   UNL     1      -2.301  -3.939  -3.734  0.00  0.00    +0.006 C 
ATOM     31  C   UNL     1      -3.761  -3.562  -3.473  0.00  0.00    +0.005 C 
ATOM     32  C   UNL     1      -3.428  -4.758  -4.368  0.00  0.00    +0.005 C 
ENDBRANCH  29  30
ENDBRANCH   4  29
TORSDOF 6
