REMARK  Name = ZINC38546314
REMARK  8 active torsions:
REMARK  status: ('A' for Active; 'I' for Inactive)
REMARK    1  A    between atoms: C_1  and  C_2
REMARK    2  A    between atoms: N_5  and  C_8
REMARK    3  A    between atoms: C_8  and  C_10
REMARK    4  A    between atoms: C_8  and  C_18
REMARK    5  A    between atoms: C_15  and  O_16
REMARK    6  A    between atoms: O_16  and  C_17
REMARK    7  A    between atoms: C_22  and  N_23
REMARK    8  A    between atoms: C_24  and  C_26
REMARK                            x       y       z     vdW  Elec       q    Type
REMARK                         _______ _______ _______ _____ _____    ______ ____
ROOT
ATOM      1  C   UNL     1       2.388  -4.301  -1.325  0.00  0.00    -0.025 A 
ATOM      2  C   UNL     1       3.555  -3.654  -1.733  0.00  0.00    -0.033 A 
ATOM      3  C   UNL     1       4.104  -4.070  -2.905  0.00  0.00    -0.005 A 
ATOM      4  S   UNL     1       3.014  -5.357  -3.454  0.00  0.00    -0.078 S 
ATOM      5  C   UNL     1       1.863  -5.295  -2.089  0.00  0.00    +0.074 A 
ATOM      6  C   UNL     1       5.340  -3.552  -3.567  0.00  0.00    +0.043 C 
ATOM      7  C   UNL     1       5.715  -2.215  -2.910  0.00  0.00    +0.005 C 
ATOM      8  C   UNL     1       5.662  -2.384  -1.389  0.00  0.00    +0.005 C 
ATOM      9  C   UNL     1       4.212  -2.535  -0.930  0.00  0.00    +0.036 C 
ENDROOT
BRANCH   5  10
ATOM     10  N   UNL     1       0.720  -6.066  -1.867  0.00  0.00    -0.273 N 
ATOM     11  C   UNL     1       0.306  -6.943  -2.803  0.00  0.00    +0.284 C 
ATOM     12  O   UNL     1       0.928  -7.063  -3.842  0.00  0.00    -0.266 OA
ATOM     13  H   UNL     1       0.224  -5.971  -1.039  0.00  0.00    +0.156 HD
BRANCH  11  14
ATOM     14  C   UNL     1      -0.894  -7.752  -2.569  0.00  0.00    +0.189 A 
ATOM     15  C   UNL     1      -1.418  -8.677  -3.427  0.00  0.00    +0.054 A 
ATOM     16  C   UNL     1      -2.558  -9.207  -2.802  0.00  0.00    +0.042 A 
ATOM     17  C   UNL     1      -2.678  -8.591  -1.606  0.00  0.00    +0.196 A 
ATOM     18  O   UNL     1      -1.671  -7.718  -1.467  0.00  0.00    -0.458 OA
ENDBRANCH  11  14
ENDBRANCH   5  10
BRANCH   1  19
ATOM     19  C   UNL     1       1.714  -3.902  -0.038  0.00  0.00    -0.001 C 
BRANCH  19  24
ATOM     20  C   UNL     1       0.149   1.579   0.143  0.00  0.00    +0.007 C 
ATOM     21  C   UNL     1       0.126   0.051   0.070  0.00  0.00    -0.018 C 
ATOM     22  C   UNL     1       0.905  -0.414  -1.163  0.00  0.00    -0.015 C 
ATOM     23  C   UNL     1       0.946  -1.944  -1.187  0.00  0.00    -0.077 C 
ATOM     24  N   UNL     1       1.607  -2.438   0.026  0.00  0.00    +0.387 N 
ATOM     25  C   UNL     1       0.827  -2.057   1.210  0.00  0.00    -0.077 C 
ATOM     26  C   UNL     1       0.782  -0.531   1.325  0.00  0.00    -0.015 C 
ATOM     27  H   UNL     1       2.531  -2.038   0.090  0.00  0.00    -0.080 HD
ENDBRANCH  19  24
BRANCH  19  28
ATOM     28  C   UNL     1       2.527  -4.397   1.130  0.00  0.00    -0.015 A 
ATOM     29  C   UNL     1       3.318  -3.518   1.845  0.00  0.00    +0.006 A 
ATOM     30  C   UNL     1       4.065  -3.973   2.916  0.00  0.00    +0.000 A 
ATOM     31  C   UNL     1       4.022  -5.308   3.275  0.00  0.00    +0.004 A 
ATOM     32  C   UNL     1       3.233  -6.190   2.563  0.00  0.00    +0.046 A 
ATOM     33  C   UNL     1       2.478  -5.736   1.492  0.00  0.00    +0.122 A 
BRANCH  33  34
ATOM     34  O   UNL     1       1.696  -6.601   0.794  0.00  0.00    -0.495 OA
ATOM     35  C   UNL     1       1.695  -7.964   1.223  0.00  0.00    +0.277 C 
ENDBRANCH  33  34
ENDBRANCH  19  28
ENDBRANCH   1  19
TORSDOF 6
