REMARK  Name = ZINC63138467
REMARK  6 active torsions:
REMARK  status: ('A' for Active; 'I' for Inactive)
REMARK    1  A    between atoms: C_1  and  O_2
REMARK    2  A    between atoms: O_2  and  C_3
REMARK    3  A    between atoms: C_6  and  C_9
REMARK    4  A    between atoms: C_9  and  C_10
REMARK    5  A    between atoms: C_10  and  N_11
REMARK    6  A    between atoms: C_31  and  C_33
REMARK                            x       y       z     vdW  Elec       q    Type
REMARK                         _______ _______ _______ _____ _____    ______ ____
ROOT
ATOM      1  N   UNL     1      -6.739  -3.548  -1.396  0.00  0.00    -0.291 N 
ATOM      2  C   UNL     1      -6.839  -5.019  -1.391  0.00  0.00    +0.203 C 
ATOM      3  C   UNL     1      -7.864  -5.428  -0.354  0.00  0.00    +0.234 C 
ATOM      4  O   UNL     1      -7.663  -6.348   0.409  0.00  0.00    -0.274 OA
ATOM      5  N   UNL     1      -9.033  -4.707  -0.320  0.00  0.00    -0.279 N 
ATOM      6  C   UNL     1      -9.168  -3.691  -1.342  0.00  0.00    +0.167 C 
ATOM      7  C   UNL     1      -7.915  -2.853  -1.386  0.00  0.00    +0.237 C 
ATOM      8  O   UNL     1      -7.949  -1.641  -1.416  0.00  0.00    -0.274 OA
ATOM      9  C   UNL     1     -10.419  -2.851  -1.355  0.00  0.00    +0.065 C 
ATOM     10  C   UNL     1     -11.219  -3.106  -0.107  0.00  0.00    -0.034 C 
ATOM     11  C   UNL     1     -11.891  -2.296   0.700  0.00  0.00    -0.001 A 
ATOM     12  C   UNL     1     -12.140  -0.846   0.648  0.00  0.00    +0.010 A 
ATOM     13  C   UNL     1     -12.877  -0.327   1.665  0.00  0.00    +0.001 A 
ATOM     14  C   UNL     1     -13.386  -1.096   2.717  0.00  0.00    +0.002 A 
ATOM     15  C   UNL     1     -13.209  -2.435   2.842  0.00  0.00    +0.026 A 
ATOM     16  C   UNL     1     -12.453  -3.096   1.830  0.00  0.00    +0.043 A 
ATOM     17  N   UNL     1     -12.144  -4.350   1.697  0.00  0.00    -0.375 N 
ATOM     18  C   UNL     1     -11.372  -4.516   0.459  0.00  0.00    +0.131 C 
ATOM     19  C   UNL     1      -9.965  -5.012   0.756  0.00  0.00    +0.133 C 
ATOM     20  H   UNL     1     -12.383  -5.060   2.314  0.00  0.00    +0.160 HD
ENDROOT
BRANCH  19  21
ATOM     21  C   UNL     1      -9.502  -4.326   2.016  0.00  0.00    -0.025 A 
ATOM     22  C   UNL     1      -8.992  -3.042   1.956  0.00  0.00    +0.007 A 
ATOM     23  C   UNL     1      -8.567  -2.413   3.111  0.00  0.00    +0.020 A 
ATOM     24  C   UNL     1      -8.652  -3.068   4.327  0.00  0.00    +0.041 A 
ATOM     25  C   UNL     1      -9.161  -4.353   4.386  0.00  0.00    +0.020 A 
ATOM     26  C   UNL     1      -9.591  -4.979   3.231  0.00  0.00    +0.007 A 
ATOM     27 CL   UNL     1      -8.117  -2.278   5.777  0.00  0.00    -0.084 Cl
ENDBRANCH  19  21
BRANCH   1  28
ATOM     28  C   UNL     1      -5.443  -2.865  -1.405  0.00  0.00    +0.113 C 
BRANCH  28  29
ATOM     29  C   UNL     1      -4.981  -2.629   0.035  0.00  0.00    +0.054 C 
BRANCH  29  33
ATOM     30  C   UNL     1      -1.200  -0.637   0.010  0.00  0.00    +0.120 A 
ATOM     31  C   UNL     1      -2.375   0.101   0.019  0.00  0.00    +0.046 A 
ATOM     32  C   UNL     1      -3.596  -0.545   0.027  0.00  0.00    +0.007 A 
ATOM     33  C   UNL     1      -3.648  -1.927   0.026  0.00  0.00    -0.046 A 
ATOM     34  C   UNL     1      -2.479  -2.665   0.017  0.00  0.00    +0.007 A 
ATOM     35  C   UNL     1      -1.255  -2.024   0.003  0.00  0.00    +0.046 A 
BRANCH  30  37
ATOM     36  C   UNL     1      -0.017   1.425   0.010  0.00  0.00    +0.277 C 
ATOM     37  O   UNL     1       0.002  -0.004   0.002  0.00  0.00    -0.495 OA
ENDBRANCH  30  37
ENDBRANCH  29  33
ENDBRANCH  28  29
ENDBRANCH   1  28
TORSDOF 5
