REMARK  Name = ZINC57486796
REMARK  8 active torsions:
REMARK  status: ('A' for Active; 'I' for Inactive)
REMARK    1  A    between atoms: C_1  and  C_2
REMARK    2  A    between atoms: C_2  and  C_3
REMARK    3  A    between atoms: C_8  and  N_9
REMARK    4  A    between atoms: C_10  and  C_12
REMARK    5  A    between atoms: C_12  and  N_13
REMARK    6  A    between atoms: C_17  and  C_18
REMARK    7  A    between atoms: C_20  and  C_23
REMARK    8  A    between atoms: C_26  and  C_29
REMARK                            x       y       z     vdW  Elec       q    Type
REMARK                         _______ _______ _______ _____ _____    ______ ____
ROOT
ATOM      1  N   UNL     1      -2.353  -0.595  -5.972  0.00  0.00    -0.334 N 
ATOM      2  C   UNL     1      -2.397  -1.777  -6.640  0.00  0.00    +0.087 A 
ATOM      3  C   UNL     1      -3.354  -1.699  -7.594  0.00  0.00    +0.020 A 
ATOM      4  C   UNL     1      -3.928  -0.424  -7.520  0.00  0.00    +0.033 A 
ATOM      5  C   UNL     1      -3.301   0.245  -6.506  0.00  0.00    +0.108 A 
ENDROOT
BRANCH   5   6
ATOM      6  C   UNL     1      -3.586   1.618  -6.068  0.00  0.00    +0.275 A 
ATOM      7  N   UNL     1      -4.499   2.418  -6.579  0.00  0.00    -0.186 NA
ATOM      8  C   UNL     1      -4.484   3.596  -5.938  0.00  0.00    +0.202 A 
ATOM      9  N   UNL     1      -3.560   3.562  -5.008  0.00  0.00    -0.056 NA
ATOM     10  O   UNL     1      -2.964   2.275  -5.071  0.00  0.00    -0.331 OA
BRANCH   8  11
ATOM     11  C   UNL     1      -5.369   4.750  -6.232  0.00  0.00    +0.022 A 
ATOM     12  C   UNL     1      -6.320   4.661  -7.247  0.00  0.00    +0.012 A 
ATOM     13  C   UNL     1      -7.141   5.737  -7.517  0.00  0.00    +0.004 A 
ATOM     14  C   UNL     1      -7.021   6.903  -6.782  0.00  0.00    -0.050 A 
ATOM     15  C   UNL     1      -6.079   6.997  -5.774  0.00  0.00    +0.004 A 
ATOM     16  C   UNL     1      -5.257   5.925  -5.492  0.00  0.00    +0.012 A 
ATOM     17  C   UNL     1      -7.920   8.075  -7.082  0.00  0.00    +0.044 C 
ENDBRANCH   8  11
ENDBRANCH   5   6
BRANCH   1  18
ATOM     18  C   UNL     1      -1.451  -0.272  -4.864  0.00  0.00    +0.217 C 
BRANCH  18  20
ATOM     19  N   UNL     1      -1.505  -0.315  -2.391  0.00  0.00    -0.284 N 
ATOM     20  C   UNL     1      -2.147  -0.541  -3.555  0.00  0.00    +0.237 C 
ATOM     21  O   UNL     1      -3.285  -0.961  -3.548  0.00  0.00    -0.274 OA
ATOM     22  H   UNL     1      -0.620   0.082  -2.395  0.00  0.00    +0.155 HD
BRANCH  19  28
ATOM     23  C   UNL     1      -1.349  -1.119  -0.119  0.00  0.00    -0.026 A 
ATOM     24  C   UNL     1      -1.954  -1.445   1.079  0.00  0.00    +0.005 A 
ATOM     25  C   UNL     1      -3.322  -1.313   1.222  0.00  0.00    +0.000 A 
ATOM     26  C   UNL     1      -4.090  -0.854   0.168  0.00  0.00    +0.002 A 
ATOM     27  C   UNL     1      -3.491  -0.525  -1.033  0.00  0.00    +0.023 A 
ATOM     28  C   UNL     1      -2.116  -0.652  -1.178  0.00  0.00    +0.037 A 
BRANCH  23  30
ATOM     29  C   UNL     1       0.819   0.078   0.019  0.00  0.00    +0.009 C 
ATOM     30  C   UNL     1       0.143  -1.263  -0.275  0.00  0.00    +0.033 C 
ENDBRANCH  23  30
ENDBRANCH  19  28
ENDBRANCH  18  20
ENDBRANCH   1  18
TORSDOF 6
