REMARK  Name = ZINC08783467
REMARK  6 active torsions:
REMARK  status: ('A' for Active; 'I' for Inactive)
REMARK    1  A    between atoms: C_1  and  C_2
REMARK    2  A    between atoms: C_2  and  C_3
REMARK    3  A    between atoms: C_2  and  C_4
REMARK    4  A    between atoms: C_11  and  N_25
REMARK    5  A    between atoms: C_12  and  C_23
REMARK    6  A    between atoms: C_13  and  C_15
REMARK                            x       y       z     vdW  Elec       q    Type
REMARK                         _______ _______ _______ _____ _____    ______ ____
ROOT
ATOM      1  C   UNL     1       0.707  -0.490  -1.238  0.00  0.00    +0.046 A 
ATOM      2  C   UNL     1       1.810  -1.254  -1.274  0.00  0.00    +0.049 A 
ATOM      3  C   UNL     1       2.143  -1.480  -2.627  0.00  0.00    +0.245 A 
ATOM      4  N   UNL     1       1.262  -0.870  -3.366  0.00  0.00    -0.135 NA
ATOM      5  N   UNL     1       0.340  -0.240  -2.516  0.00  0.00    -0.278 N 
ATOM      6  H   UNL     1      -0.426   0.285  -2.796  0.00  0.00    +0.189 HD
ATOM      7  O   UNL     1       3.223  -2.224  -2.990  0.00  0.00    -0.421 OA
ATOM      8  C   UNL     1       4.124  -2.516  -2.032  0.00  0.00    +0.201 C 
ATOM      9  C   UNL     1       3.915  -2.354  -0.709  0.00  0.00    +0.098 C 
ATOM     10  C   UNL     1       2.624  -1.822  -0.140  0.00  0.00    +0.104 C 
ENDROOT
BRANCH  10  11
ATOM     11  C   UNL     1       1.862  -2.940   0.524  0.00  0.00    +0.001 A 
ATOM     12  C   UNL     1       1.498  -4.056  -0.206  0.00  0.00    +0.008 A 
ATOM     13  C   UNL     1       0.800  -5.082   0.402  0.00  0.00    +0.016 A 
ATOM     14  C   UNL     1       0.464  -4.994   1.741  0.00  0.00    +0.021 A 
ATOM     15  C   UNL     1       0.827  -3.878   2.472  0.00  0.00    +0.054 A 
ATOM     16  C   UNL     1       1.532  -2.852   1.865  0.00  0.00    +0.129 A 
ATOM     17  F   UNL     1       1.892  -1.764   2.580  0.00  0.00    -0.205 F 
ATOM     18 BR   UNL     1      -0.492  -6.399   2.571  0.00  0.00    -0.050 Br
ENDBRANCH  10  11
BRANCH   1  20
ATOM     19  C   UNL     1      -0.019   1.526   0.010  0.00  0.00    +0.014 C 
ATOM     20  C   UNL     1       0.002  -0.004   0.002  0.00  0.00    +0.031 C 
ATOM     21  C   UNL     1      -1.433  -0.534   0.013  0.00  0.00    +0.014 C 
ENDBRANCH   1  20
BRANCH   8  22
ATOM     22  N   UNL     1       5.340  -3.014  -2.430  0.00  0.00    -0.328 N 
ATOM     23  H   UNL     1       5.526  -3.144  -3.373  0.00  0.00    +0.145 HD
ATOM     24  H   UNL     1       6.014  -3.235  -1.768  0.00  0.00    +0.145 HD
ENDBRANCH   8  22
BRANCH   9  25
ATOM     25  C   UNL     1       4.968  -2.703   0.197  0.00  0.00    +0.101 C 
ATOM     26  N   UNL     1       5.803  -2.981   0.916  0.00  0.00    -0.191 NA
ENDBRANCH   9  25
TORSDOF 4
