REMARK  Name = ZINC49455514
REMARK  4 active torsions:
REMARK  status: ('A' for Active; 'I' for Inactive)
REMARK    1  A    between atoms: C_1  and  C_2
REMARK    2  A    between atoms: C_2  and  C_3
REMARK    3  A    between atoms: C_6  and  C_9
REMARK    4  A    between atoms: N_17  and  C_21
REMARK                            x       y       z     vdW  Elec       q    Type
REMARK                         _______ _______ _______ _____ _____    ______ ____
ROOT
ATOM      1  C   UNL     1      -5.419  -2.005   0.043  0.00  0.00    +0.142 C 
ATOM      2  C   UNL     1      -6.355  -0.823  -0.108  0.00  0.00    +0.058 C 
ATOM      3  C   UNL     1      -7.207  -0.827  -1.153  0.00  0.00    +0.042 C 
ATOM      4  C   UNL     1      -8.008   0.452  -1.055  0.00  0.00    +0.156 C 
ATOM      5  N   UNL     1      -7.493   1.129   0.144  0.00  0.00    -0.306 N 
ATOM      6  C   UNL     1      -6.530   0.345   0.662  0.00  0.00    +0.244 C 
ATOM      7  O   UNL     1      -5.893   0.610   1.665  0.00  0.00    -0.270 OA
ATOM      8  N   UNL     1      -7.226  -1.861  -2.046  0.00  0.00    -0.260 N 
ATOM      9  C   UNL     1      -6.422  -2.928  -1.961  0.00  0.00    +0.307 C 
ATOM     10  O   UNL     1      -6.511  -3.800  -2.804  0.00  0.00    -0.252 OA
ATOM     11  N   UNL     1      -5.518  -3.067  -0.972  0.00  0.00    -0.288 N 
ATOM     12  C   UNL     1      -8.179  -1.797  -3.158  0.00  0.00    +0.139 C 
ATOM     13  H   UNL     1      -7.792   1.982   0.496  0.00  0.00    +0.149 HD
ATOM     14  H   UNL     1      -4.945  -3.849  -0.930  0.00  0.00    +0.151 HD
ENDROOT
BRANCH   1  18
ATOM     15  C   UNL     1      -1.412  -0.526   0.013  0.00  0.00    -0.048 A 
ATOM     16  C   UNL     1      -2.051  -0.766   1.215  0.00  0.00    +0.004 A 
ATOM     17  C   UNL     1      -3.348  -1.244   1.225  0.00  0.00    +0.006 A 
ATOM     18  C   UNL     1      -4.006  -1.482   0.032  0.00  0.00    -0.023 A 
ATOM     19  C   UNL     1      -3.367  -1.241  -1.170  0.00  0.00    +0.006 A 
ATOM     20  C   UNL     1      -2.072  -0.758  -1.179  0.00  0.00    +0.004 A 
BRANCH  15  22
ATOM     21  C   UNL     1      -0.019   1.526   0.010  0.00  0.00    +0.009 C 
ATOM     22  C   UNL     1       0.002  -0.004   0.002  0.00  0.00    +0.032 C 
ENDBRANCH  15  22
ENDBRANCH   1  18
TORSDOF 2
