REMARK  Name = ZINC63362161
REMARK  5 active torsions:
REMARK  status: ('A' for Active; 'I' for Inactive)
REMARK    1  A    between atoms: C_1  and  C_2
REMARK    2  A    between atoms: C_5  and  N_8
REMARK    3  A    between atoms: C_9  and  C_11
REMARK    4  A    between atoms: C_16  and  N_17
REMARK    5  A    between atoms: C_20  and  C_36
REMARK                            x       y       z     vdW  Elec       q    Type
REMARK                         _______ _______ _______ _____ _____    ______ ____
ROOT
ATOM      1  N   UNL     1      -1.121  -4.210   6.061  0.00  0.00    -0.192 N 
ATOM      2  C   UNL     1      -1.509  -5.492   5.896  0.00  0.00    +0.253 C 
ATOM      3  O   UNL     1      -2.631  -5.897   5.683  0.00  0.00    -0.272 OA
ATOM      4  C   UNL     1      -0.250  -6.319   6.033  0.00  0.00    +0.137 C 
ATOM      5  C   UNL     1      -0.384  -7.322   7.178  0.00  0.00    +0.139 C 
ATOM      6  C   UNL     1       0.562  -6.877   8.284  0.00  0.00    -0.034 C 
ATOM      7  C   UNL     1      -0.184  -6.741   9.378  0.00  0.00    -0.001 A 
ATOM      8  C   UNL     1       0.171  -6.400  10.765  0.00  0.00    +0.010 A 
ATOM      9  C   UNL     1      -0.861  -6.335  11.648  0.00  0.00    +0.001 A 
ATOM     10  C   UNL     1      -2.192  -6.572  11.293  0.00  0.00    +0.002 A 
ATOM     11  C   UNL     1      -2.608  -6.896  10.043  0.00  0.00    +0.026 A 
ATOM     12  C   UNL     1      -1.613  -6.999   9.027  0.00  0.00    +0.043 A 
ATOM     13  N   UNL     1      -1.729  -7.313   7.756  0.00  0.00    -0.375 N 
ATOM     14  C   UNL     1       2.029  -6.598   8.068  0.00  0.00    +0.052 C 
ATOM     15  C   UNL     1       2.132  -5.635   6.868  0.00  0.00    +0.115 C 
ATOM     16  N   UNL     1       0.771  -5.324   6.421  0.00  0.00    -0.268 N 
ATOM     17  C   UNL     1       0.191  -4.120   6.321  0.00  0.00    +0.317 C 
ATOM     18  O   UNL     1       0.784  -3.068   6.453  0.00  0.00    -0.252 OA
ATOM     19  C   UNL     1       0.112  -7.005   4.713  0.00  0.00    +0.044 C 
ATOM     20  H   UNL     1      -2.553  -7.502   7.280  0.00  0.00    +0.160 HD
ENDROOT
BRANCH   1  26
ATOM     21  C   UNL     1      -2.107  -2.420   4.756  0.00  0.00    +0.059 A 
ATOM     22  C   UNL     1      -2.973  -1.327   4.674  0.00  0.00    +0.015 A 
ATOM     23  C   UNL     1      -3.691  -0.934   5.783  0.00  0.00    +0.001 A 
ATOM     24  C   UNL     1      -3.558  -1.618   6.980  0.00  0.00    +0.002 A 
ATOM     25  C   UNL     1      -2.706  -2.700   7.076  0.00  0.00    +0.025 A 
ATOM     26  C   UNL     1      -1.980  -3.113   5.968  0.00  0.00    +0.058 A 
BRANCH  21  28
ATOM     27  N   UNL     1      -1.374  -2.112   2.443  0.00  0.00    -0.308 N 
ATOM     28  C   UNL     1      -1.336  -2.846   3.572  0.00  0.00    +0.246 C 
ATOM     29  O   UNL     1      -0.665  -3.859   3.617  0.00  0.00    -0.270 OA
ATOM     30  H   UNL     1      -1.847  -1.265   2.431  0.00  0.00    +0.149 HD
BRANCH  27  35
ATOM     31  C   UNL     1       0.066   1.492   0.033  0.00  0.00    +0.007 C 
ATOM     32  C   UNL     1       0.043  -0.038   0.012  0.00  0.00    -0.014 C 
ATOM     33  C   UNL     1      -1.407  -0.526   0.019  0.00  0.00    +0.005 C 
ATOM     34  C   UNL     1      -1.429  -2.056  -0.002  0.00  0.00    +0.022 C 
ATOM     35  C   UNL     1      -0.703  -2.594   1.233  0.00  0.00    +0.073 C 
ATOM     36  C   UNL     1       0.747  -2.105   1.225  0.00  0.00    +0.022 C 
ATOM     37  C   UNL     1       0.769  -0.576   1.246  0.00  0.00    +0.005 C 
ENDBRANCH  27  35
ENDBRANCH  21  28
ENDBRANCH   1  26
TORSDOF 3
