REMARK  Name = ZINC35565859
REMARK  11 active torsions:
REMARK  status: ('A' for Active; 'I' for Inactive)
REMARK    1  A    between atoms: C_1  and  C_2
REMARK    2  A    between atoms: C_3  and  C_8
REMARK    3  A    between atoms: C_5  and  C_7
REMARK    4  A    between atoms: C_8  and  C_10
REMARK    5  A    between atoms: C_15  and  C_17
REMARK    6  A    between atoms: C_20  and  O_23
REMARK    7  A    between atoms: C_26  and  C_35
REMARK    8  A    between atoms: C_27  and  C_29
REMARK    9  A    between atoms: C_29  and  O_31
REMARK   10  A    between atoms: O_31  and  C_32
REMARK   11  A    between atoms: C_32  and  C_33
REMARK                            x       y       z     vdW  Elec       q    Type
REMARK                         _______ _______ _______ _____ _____    ______ ____
ROOT
ATOM      1  C   UNL     1      -0.009  -1.164  -3.865  0.00  0.00    +0.077 C 
ATOM      2  C   UNL     1       0.092  -0.902  -5.188  0.00  0.00    +0.250 C 
ATOM      3  C   UNL     1       0.216  -2.173  -5.928  0.00  0.00    +0.293 C 
ATOM      4  O   UNL     1       0.325  -2.270  -7.134  0.00  0.00    -0.266 OA
ATOM      5  N   UNL     1       0.193  -3.209  -5.069  0.00  0.00    -0.232 N 
ATOM      6  C   UNL     1       0.056  -2.666  -3.712  0.00  0.00    +0.152 C 
ATOM      7  C   UNL     1       0.286  -4.546  -5.405  0.00  0.00    +0.169 A 
ATOM      8  N   UNL     1       0.420  -5.080  -6.606  0.00  0.00    -0.229 NA
ATOM      9  C   UNL     1       0.497  -6.375  -6.774  0.00  0.00    +0.062 A 
ATOM     10  C   UNL     1       0.429  -7.151  -5.624  0.00  0.00    +0.120 A 
ATOM     11  S   UNL     1       0.262  -5.881  -4.380  0.00  0.00    -0.045 S 
ATOM     12  C   UNL     1       0.650  -6.991  -8.141  0.00  0.00    +0.067 C 
ATOM     13  O   UNL     1       0.079   0.332  -5.746  0.00  0.00    -0.282 OA
ENDROOT
BRANCH   6  14
ATOM     14  C   UNL     1      -1.212  -3.178  -3.077  0.00  0.00    -0.022 A 
ATOM     15  C   UNL     1      -2.360  -3.308  -3.837  0.00  0.00    +0.009 A 
ATOM     16  C   UNL     1      -3.523  -3.777  -3.257  0.00  0.00    +0.046 A 
ATOM     17  C   UNL     1      -3.538  -4.117  -1.912  0.00  0.00    +0.117 A 
ATOM     18  C   UNL     1      -2.385  -3.986  -1.153  0.00  0.00    +0.046 A 
ATOM     19  C   UNL     1      -1.223  -3.522  -1.738  0.00  0.00    +0.009 A 
BRANCH  17  20
ATOM     20  O   UNL     1      -4.681  -4.578  -1.340  0.00  0.00    -0.507 OA
ATOM     21  H   UNL     1      -4.782  -5.539  -1.381  0.00  0.00    +0.292 HD
ENDBRANCH  17  20
ENDBRANCH   6  14
BRANCH   1  22
ATOM     22  C   UNL     1      -0.148  -0.180  -2.785  0.00  0.00    +0.203 C 
ATOM     23  O   UNL     1      -1.162   0.490  -2.699  0.00  0.00    -0.286 OA
BRANCH  22  26
ATOM     24  C   UNL     1      -0.016   1.938  -0.487  0.00  0.00    +0.067 C 
ATOM     25  C   UNL     1       1.052   0.912  -0.771  0.00  0.00    +0.057 A 
ATOM     26  C   UNL     1       0.933  -0.003  -1.810  0.00  0.00    +0.082 A 
ATOM     27  S   UNL     1       2.463  -0.905  -1.625  0.00  0.00    -0.069 S 
ATOM     28  C   UNL     1       3.072  -0.062  -0.302  0.00  0.00    +0.076 A 
ATOM     29  N   UNL     1       2.146   0.837  -0.055  0.00  0.00    -0.249 NA
ATOM     30  C   UNL     1       4.374  -0.281   0.424  0.00  0.00    +0.073 C 
ENDBRANCH  22  26
ENDBRANCH   1  22
BRANCH  10  31
ATOM     31  C   UNL     1       0.483  -8.604  -5.473  0.00  0.00    +0.348 C 
ATOM     32  O   UNL     1       0.605  -9.313  -6.455  0.00  0.00    -0.244 OA
BRANCH  31  33
ATOM     33  O   UNL     1       0.397  -9.159  -4.247  0.00  0.00    -0.457 OA
BRANCH  33  34
ATOM     34  C   UNL     1       0.457 -10.585  -4.174  0.00  0.00    +0.259 C 
BRANCH  34  35
ATOM     35  C   UNL     1       0.347 -11.019  -2.735  0.00  0.00    +0.006 C 
ATOM     36  C   UNL     1      -0.443 -12.012  -2.409  0.00  0.00    +0.007 C 
ENDBRANCH  34  35
ENDBRANCH  33  34
ENDBRANCH  31  33
ENDBRANCH  10  31
TORSDOF 8
