REMARK  Name = ZINC03999877
REMARK  5 active torsions:
REMARK  status: ('A' for Active; 'I' for Inactive)
REMARK    1  A    between atoms: C_1  and  C_2
REMARK    2  A    between atoms: C_7  and  N_8
REMARK    3  A    between atoms: C_11  and  C_14
REMARK    4  A    between atoms: C_14  and  C_27
REMARK    5  A    between atoms: C_18  and  C_23
REMARK                            x       y       z     vdW  Elec       q    Type
REMARK                         _______ _______ _______ _____ _____    ______ ____
ROOT
ATOM      1  N   UNL     1       0.326   6.009   3.079  0.00  0.00    -0.294 N 
ATOM      2  C   UNL     1      -0.256   5.112   2.195  0.00  0.00    +0.163 A 
ATOM      3  N   UNL     1      -0.159   3.796   2.167  0.00  0.00    -0.226 NA
ATOM      4  C   UNL     1      -0.780   3.086   1.244  0.00  0.00    +0.094 A 
ATOM      5  C   UNL     1      -1.535   3.737   0.327  0.00  0.00    +0.075 A 
ATOM      6  S   UNL     1      -1.303   5.431   0.847  0.00  0.00    -0.060 S 
ATOM      7  H   UNL     1       0.808   5.683   3.854  0.00  0.00    +0.154 HD
ENDROOT
BRANCH   4   8
ATOM      8  C   UNL     1      -0.658   1.584   1.216  0.00  0.00    +0.154 C 
ATOM      9  C   UNL     1       0.115   1.081   2.459  0.00  0.00    +0.084 C 
ATOM     10  C   UNL     1      -0.591  -0.251   2.752  0.00  0.00    +0.171 C 
ATOM     11  C   UNL     1      -0.868  -0.401   4.255  0.00  0.00    +0.074 C 
ATOM     12  C   UNL     1       0.194  -1.448   4.671  0.00  0.00    +0.175 C 
ATOM     13  O   UNL     1       0.456  -2.207   3.452  0.00  0.00    -0.461 OA
ATOM     14  C   UNL     1       0.273  -1.422   2.376  0.00  0.00    +0.325 C 
ATOM     15  O   UNL     1       0.731  -1.627   1.277  0.00  0.00    -0.250 OA
ATOM     16  C   UNL     1       1.469  -0.753   5.154  0.00  0.00    +0.052 C 
ATOM     17  C   UNL     1      -1.870  -0.219   1.961  0.00  0.00    +0.325 C 
ATOM     18  O   UNL     1      -2.678  -1.115   1.904  0.00  0.00    -0.250 OA
ATOM     19  O   UNL     1      -1.974   0.962   1.327  0.00  0.00    -0.451 OA
ATOM     20  C   UNL     1       0.040   1.130  -0.067  0.00  0.00    +0.063 C 
ENDBRANCH   4   8
BRANCH   1  27
ATOM     21  C   UNL     1       0.521   7.759   5.314  0.00  0.00    +0.045 C 
ATOM     22  C   UNL     1       0.306   8.274   3.914  0.00  0.00    -0.029 A 
ATOM     23  C   UNL     1       0.203   9.632   3.685  0.00  0.00    +0.005 A 
ATOM     24  C   UNL     1      -0.000  10.105   2.401  0.00  0.00    +0.000 A 
ATOM     25  C   UNL     1      -0.096   9.221   1.342  0.00  0.00    +0.002 A 
ATOM     26  C   UNL     1       0.012   7.862   1.563  0.00  0.00    +0.023 A 
ATOM     27  C   UNL     1       0.216   7.384   2.851  0.00  0.00    +0.036 A 
ENDBRANCH   1  27
TORSDOF 2
