REMARK  Name = ZINC40815189
REMARK  8 active torsions:
REMARK  status: ('A' for Active; 'I' for Inactive)
REMARK    1  A    between atoms: C_1  and  C_2
REMARK    2  A    between atoms: C_5  and  S_8
REMARK    3  A    between atoms: S_8  and  N_11
REMARK    4  A    between atoms: N_11  and  N_12
REMARK    5  A    between atoms: C_19  and  C_33
REMARK    6  A    between atoms: C_20  and  C_22
REMARK    7  A    between atoms: N_24  and  C_25
REMARK    8  A    between atoms: C_30  and  C_31
REMARK                            x       y       z     vdW  Elec       q    Type
REMARK                         _______ _______ _______ _____ _____    ______ ____
ROOT
ATOM      1  N   UNL     1       2.515  -4.597   0.991  0.00  0.00    -0.170 NA
ATOM      2  C   UNL     1       3.759  -4.962   0.982  0.00  0.00    +0.071 C 
ATOM      3  C   UNL     1       4.360  -5.788  -0.145  0.00  0.00    +0.058 C 
ATOM      4  C   UNL     1       5.267  -6.857   0.473  0.00  0.00    +0.014 C 
ATOM      5  C   UNL     1       6.453  -6.208   1.192  0.00  0.00    +0.075 C 
ATOM      6  C   UNL     1       5.945  -5.177   2.168  0.00  0.00    +0.115 A 
ATOM      7  C   UNL     1       4.701  -4.600   2.067  0.00  0.00    +0.042 A 
ATOM      8  C   UNL     1       4.568  -3.695   3.127  0.00  0.00    +0.009 A 
ATOM      9  C   UNL     1       5.740  -3.752   3.828  0.00  0.00    +0.193 A 
ATOM     10  O   UNL     1       6.553  -4.660   3.234  0.00  0.00    -0.454 OA
ATOM     11  C   UNL     1       3.371  -2.832   3.434  0.00  0.00    +0.048 C 
ENDROOT
BRANCH   9  12
ATOM     12  C   UNL     1       6.060  -2.972   5.028  0.00  0.00    +0.284 C 
ATOM     13  O   UNL     1       5.244  -2.191   5.481  0.00  0.00    -0.266 OA
ATOM     14  N   UNL     1       7.257  -3.120   5.629  0.00  0.00    -0.279 N 
ATOM     15  H   UNL     1       7.876  -3.798   5.317  0.00  0.00    +0.155 HD
BRANCH  14  16
ATOM     16  C   UNL     1       7.607  -2.295   6.703  0.00  0.00    +0.038 A 
ATOM     17  C   UNL     1       7.022  -1.042   6.838  0.00  0.00    +0.043 A 
ATOM     18  C   UNL     1       7.370  -0.230   7.900  0.00  0.00    +0.043 A 
ATOM     19  C   UNL     1       8.300  -0.664   8.829  0.00  0.00    +0.020 A 
ATOM     20  C   UNL     1       8.883  -1.911   8.697  0.00  0.00    +0.006 A 
ATOM     21  C   UNL     1       8.535  -2.729   7.640  0.00  0.00    -0.029 A 
ATOM     22  C   UNL     1       9.167  -4.090   7.501  0.00  0.00    +0.045 C 
ATOM     23 CL   UNL     1       6.640   1.336   8.070  0.00  0.00    -0.083 Cl
ENDBRANCH  14  16
ENDBRANCH   9  12
BRANCH   1  24
ATOM     24  N   UNL     1       1.669  -4.969  -0.062  0.00  0.00    -0.136 N 
ATOM     25  H   UNL     1       2.014  -5.499  -0.797  0.00  0.00    +0.197 HD
BRANCH  24  26
ATOM     26  S   UNL     1       0.080  -4.503  -0.051  0.00  0.00    +0.086 S 
ATOM     27  O   UNL     1      -0.461  -4.934   1.190  0.00  0.00    -0.149 OA
ATOM     28  O   UNL     1      -0.469  -4.902  -1.300  0.00  0.00    -0.149 OA
BRANCH  26  33
ATOM     29  C   UNL     1      -0.014   1.529   0.027  0.00  0.00    +0.044 C 
ATOM     30  C   UNL     1       0.010   0.023   0.007  0.00  0.00    -0.050 A 
ATOM     31  C   UNL     1       0.018  -0.653  -1.199  0.00  0.00    +0.005 A 
ATOM     32  C   UNL     1       0.039  -2.035  -1.217  0.00  0.00    +0.029 A 
ATOM     33  C   UNL     1       0.053  -2.741  -0.029  0.00  0.00    +0.110 A 
ATOM     34  C   UNL     1       0.046  -2.066   1.177  0.00  0.00    +0.029 A 
ATOM     35  C   UNL     1       0.029  -0.684   1.195  0.00  0.00    +0.005 A 
ENDBRANCH  26  33
ENDBRANCH  24  26
ENDBRANCH   1  24
TORSDOF 5
