REMARK  Name = ZINC05521376
REMARK  7 active torsions:
REMARK  status: ('A' for Active; 'I' for Inactive)
REMARK    1  A    between atoms: C_1  and  N_2
REMARK    2  A    between atoms: N_10  and  C_14
REMARK    3  A    between atoms: C_14  and  C_15
REMARK    4  A    between atoms: C_15  and  C_17
REMARK    5  A    between atoms: C_15  and  O_26
REMARK    6  A    between atoms: C_17  and  O_18
REMARK    7  A    between atoms: O_18  and  C_19
REMARK                            x       y       z     vdW  Elec       q    Type
REMARK                         _______ _______ _______ _____ _____    ______ ____
ROOT
ATOM      1  C   UNL     1      -0.018   1.461   0.010  0.00  0.00    +0.155 C 
ATOM      2  N   UNL     1       0.002  -0.004   0.002  0.00  0.00    -0.278 N 
ATOM      3  C   UNL     1      -1.176  -0.712   0.004  0.00  0.00    +0.169 A 
ATOM      4  C   UNL     1      -1.113  -2.113  -0.005  0.00  0.00    +0.154 A 
ATOM      5  C   UNL     1       0.131  -2.732  -0.014  0.00  0.00    +0.302 A 
ATOM      6  O   UNL     1       0.220  -4.082  -0.023  0.00  0.00    -0.263 OA
ATOM      7  N   UNL     1       1.238  -1.985  -0.015  0.00  0.00    -0.152 NA
ATOM      8  C   UNL     1       1.184  -0.671  -0.013  0.00  0.00    +0.353 A 
ATOM      9  O   UNL     1       2.335   0.033  -0.020  0.00  0.00    -0.244 OA
ATOM     10  N   UNL     1      -2.430  -2.561  -0.001  0.00  0.00    -0.310 N 
ATOM     11  C   UNL     1      -3.217  -1.465   0.009  0.00  0.00    +0.183 A 
ATOM     12  N   UNL     1      -2.462  -0.372   0.012  0.00  0.00    -0.203 NA
ATOM     13  S   UNL     1      -4.929  -1.480   0.017  0.00  0.00    -0.011 S 
ENDROOT
BRANCH  10  14
ATOM     14  C   UNL     1      -2.877  -3.956  -0.007  0.00  0.00    +0.159 C 
BRANCH  14  15
ATOM     15  C   UNL     1      -3.026  -4.450   1.434  0.00  0.00    +0.171 C 
BRANCH  15  16
ATOM     16  O   UNL     1      -1.766  -4.356   2.102  0.00  0.00    -0.387 OA
ATOM     17  H   UNL     1      -1.064  -4.879   1.692  0.00  0.00    +0.210 HD
ENDBRANCH  15  16
BRANCH  15  18
ATOM     18  C   UNL     1      -3.493  -5.907   1.428  0.00  0.00    +0.262 C 
BRANCH  18  19
ATOM     19  O   UNL     1      -3.743  -6.332   2.769  0.00  0.00    -0.489 OA
BRANCH  19  20
ATOM     20  C   UNL     1      -4.168  -7.612   2.941  0.00  0.00    +0.121 A 
ATOM     21  C   UNL     1      -4.335  -8.442   1.842  0.00  0.00    +0.047 A 
ATOM     22  C   UNL     1      -4.768  -9.742   2.019  0.00  0.00    +0.023 A 
ATOM     23  C   UNL     1      -5.035 -10.216   3.291  0.00  0.00    +0.041 A 
ATOM     24  C   UNL     1      -4.869  -9.389   4.388  0.00  0.00    +0.023 A 
ATOM     25  C   UNL     1      -4.431  -8.091   4.216  0.00  0.00    +0.047 A 
ATOM     26 CL   UNL     1      -5.578 -11.850   3.511  0.00  0.00    -0.084 Cl
ENDBRANCH  19  20
ENDBRANCH  18  19
ENDBRANCH  15  18
ENDBRANCH  14  15
ENDBRANCH  10  14
TORSDOF 6
