REMARK  Name = ZINC20166042
REMARK  10 active torsions:
REMARK  status: ('A' for Active; 'I' for Inactive)
REMARK    1  A    between atoms: C_1  and  C_2
REMARK    2  A    between atoms: C_6  and  C_32
REMARK    3  A    between atoms: C_7  and  O_8
REMARK    4  A    between atoms: O_8  and  C_9
REMARK    5  A    between atoms: C_9  and  C_10
REMARK    6  A    between atoms: C_13  and  S_21
REMARK    7  A    between atoms: N_14  and  C_15
REMARK    8  A    between atoms: S_21  and  C_22
REMARK    9  A    between atoms: C_22  and  C_23
REMARK   10  A    between atoms: C_28  and  C_31
REMARK                            x       y       z     vdW  Elec       q    Type
REMARK                         _______ _______ _______ _____ _____    ______ ____
ROOT
ATOM      1  C   UNL     1      -6.081   2.682   0.045  0.00  0.00    +0.176 A 
ATOM      2  N   UNL     1      -5.205   3.647   0.046  0.00  0.00    -0.130 NA
ATOM      3  N   UNL     1      -4.014   3.163   0.044  0.00  0.00    -0.122 NA
ATOM      4  C   UNL     1      -4.064   1.851   0.031  0.00  0.00    +0.197 A 
ATOM      5  N   UNL     1      -5.387   1.501   0.036  0.00  0.00    -0.271 N 
ENDROOT
BRANCH   5   6
ATOM      6  C   UNL     1      -5.921   0.204   0.032  0.00  0.00    +0.050 A 
ATOM      7  C   UNL     1      -6.665  -0.238  -1.053  0.00  0.00    +0.026 A 
ATOM      8  C   UNL     1      -7.186  -1.517  -1.056  0.00  0.00    +0.002 A 
ATOM      9  C   UNL     1      -6.975  -2.354   0.025  0.00  0.00    +0.000 A 
ATOM     10  C   UNL     1      -6.238  -1.914   1.109  0.00  0.00    +0.002 A 
ATOM     11  C   UNL     1      -5.711  -0.637   1.115  0.00  0.00    +0.026 A 
ENDBRANCH   5   6
BRANCH   1  12
ATOM     12  C   UNL     1      -7.580   2.837   0.054  0.00  0.00    +0.305 C 
BRANCH  12  13
ATOM     13  O   UNL     1      -8.047   2.879   1.404  0.00  0.00    -0.484 OA
BRANCH  13  20
ATOM     14  C   UNL     1      -9.071   5.505   1.605  0.00  0.00    +0.047 C 
ATOM     15  C   UNL     1      -9.947   4.282   1.696  0.00  0.00    -0.009 A 
ATOM     16  C   UNL     1     -11.309   4.419   1.879  0.00  0.00    +0.007 A 
ATOM     17  C   UNL     1     -12.112   3.297   1.967  0.00  0.00    +0.001 A 
ATOM     18  C   UNL     1     -11.556   2.035   1.867  0.00  0.00    +0.007 A 
ATOM     19  C   UNL     1     -10.194   1.893   1.679  0.00  0.00    -0.009 A 
ATOM     20  C   UNL     1      -9.386   3.017   1.589  0.00  0.00    +0.127 A 
ATOM     21  C   UNL     1      -9.588   0.517   1.569  0.00  0.00    +0.047 C 
ENDBRANCH  13  20
ENDBRANCH  12  13
ENDBRANCH   1  12
BRANCH   4  22
ATOM     22  S   UNL     1      -2.689   0.750   0.019  0.00  0.00    -0.076 S 
BRANCH  22  23
ATOM     23  C   UNL     1      -1.330   1.944   0.019  0.00  0.00    +0.173 C 
BRANCH  23  24
ATOM     24  C   UNL     1      -0.014   1.209   0.009  0.00  0.00    +0.229 C 
ATOM     25  O   UNL     1       0.002  -0.004   0.002  0.00  0.00    -0.275 OA
ATOM     26  N   UNL     1       1.143   1.898   0.001  0.00  0.00    -0.267 N 
ATOM     27  C   UNL     1       2.361   1.217  -0.014  0.00  0.00    +0.168 A 
ATOM     28  C   UNL     1       2.550  -0.190  -0.023  0.00  0.00    +0.091 A 
ATOM     29  C   UNL     1       3.895  -0.338  -0.038  0.00  0.00    +0.136 A 
ATOM     30  O   UNL     1       4.416   0.897  -0.037  0.00  0.00    -0.358 OA
ATOM     31  N   UNL     1       3.556   1.747  -0.028  0.00  0.00    -0.063 NA
ATOM     32  C   UNL     1       4.658  -1.638  -0.052  0.00  0.00    +0.089 C 
ATOM     33  H   UNL     1       1.129   2.998   0.007  0.00  0.00    +0.156 HD
ENDBRANCH  23  24
ENDBRANCH  22  23
ENDBRANCH   4  22
TORSDOF 7
