REMARK  Name = ZINC14012647
REMARK  5 active torsions:
REMARK  status: ('A' for Active; 'I' for Inactive)
REMARK    1  A    between atoms: C_4  and  C_7
REMARK    2  A    between atoms: C_12  and  N_13
REMARK    3  A    between atoms: C_14  and  C_16
REMARK    4  A    between atoms: C_16  and  C_17
REMARK    5  A    between atoms: N_28  and  C_31
REMARK                            x       y       z     vdW  Elec       q    Type
REMARK                         _______ _______ _______ _____ _____    ______ ____
ROOT
ATOM      1  C   UNL     1       1.059   7.720  -4.735  0.00  0.00    +0.112 C 
ATOM      2  C   UNL     1      -0.121   8.231  -5.572  0.00  0.00    +0.103 C 
ATOM      3  S   UNL     1       0.522   7.996  -7.270  0.00  0.00    -0.085 S 
ATOM      4  C   UNL     1       2.122   7.318  -6.881  0.00  0.00    +0.174 A 
ATOM      5  N   UNL     1       2.203   7.256  -5.519  0.00  0.00    -0.283 N 
ATOM      6  C   UNL     1       3.363   6.760  -4.979  0.00  0.00    +0.266 A 
ATOM      7  O   UNL     1       3.489   6.683  -3.770  0.00  0.00    -0.267 OA
ATOM      8  C   UNL     1       4.409   6.338  -5.827  0.00  0.00    +0.103 A 
ATOM      9  C   UNL     1       5.694   5.795  -5.610  0.00  0.00    +0.150 A 
ATOM     10  N   UNL     1       6.255   5.583  -6.768  0.00  0.00    -0.172 NA
ATOM     11  N   UNL     1       5.380   5.971  -7.791  0.00  0.00    -0.214 N 
ATOM     12  C   UNL     1       4.237   6.439  -7.218  0.00  0.00    +0.171 A 
ATOM     13  N   UNL     1       3.086   6.931  -7.686  0.00  0.00    -0.203 NA
ENDROOT
BRANCH  11  14
ATOM     14  C   UNL     1       5.637   5.891  -9.166  0.00  0.00    +0.068 A 
ATOM     15  C   UNL     1       4.609   5.587 -10.049  0.00  0.00    +0.030 A 
ATOM     16  C   UNL     1       4.863   5.514 -11.404  0.00  0.00    +0.040 A 
ATOM     17  C   UNL     1       6.144   5.732 -11.882  0.00  0.00    +0.124 A 
ATOM     18  C   UNL     1       7.172   6.030 -11.003  0.00  0.00    +0.040 A 
ATOM     19  C   UNL     1       6.921   6.110  -9.647  0.00  0.00    +0.030 A 
ATOM     20  F   UNL     1       6.391   5.656 -13.208  0.00  0.00    -0.205 F 
ENDBRANCH  11  14
BRANCH   1  21
ATOM     21  C   UNL     1       0.570   6.563  -3.862  0.00  0.00    +0.122 C 
BRANCH  21  23
ATOM     22  N   UNL     1      -1.022   6.232  -1.997  0.00  0.00    -0.285 N 
ATOM     23  C   UNL     1      -0.507   7.057  -2.931  0.00  0.00    +0.219 C 
ATOM     24  O   UNL     1      -0.911   8.197  -3.022  0.00  0.00    -0.275 OA
ATOM     25  H   UNL     1      -0.646   5.347  -1.871  0.00  0.00    +0.155 HD
BRANCH  22  31
ATOM     26  C   UNL     1      -2.313   6.080   0.048  0.00  0.00    +0.003 A 
ATOM     27  C   UNL     1      -3.391   6.502   0.823  0.00  0.00    +0.010 A 
ATOM     28  C   UNL     1      -4.234   7.489   0.351  0.00  0.00    +0.001 A 
ATOM     29  C   UNL     1      -4.019   8.053  -0.894  0.00  0.00    +0.002 A 
ATOM     30  C   UNL     1      -2.956   7.639  -1.673  0.00  0.00    +0.024 A 
ATOM     31  C   UNL     1      -2.098   6.652  -1.210  0.00  0.00    +0.041 A 
BRANCH  26  35
ATOM     32  C   UNL     1       0.305   3.057   1.492  0.00  0.00    +0.000 A 
ATOM     33  C   UNL     1      -0.003   4.142   2.293  0.00  0.00    +0.001 A 
ATOM     34  C   UNL     1      -0.851   5.127   1.829  0.00  0.00    +0.008 A 
ATOM     35  C   UNL     1      -1.402   5.024   0.553  0.00  0.00    -0.016 A 
ATOM     36  C   UNL     1      -1.092   3.927  -0.248  0.00  0.00    +0.008 A 
ATOM     37  C   UNL     1      -0.243   2.947   0.226  0.00  0.00    +0.001 A 
ENDBRANCH  26  35
ENDBRANCH  22  31
ENDBRANCH  21  23
ENDBRANCH   1  21
TORSDOF 5
