REMARK  Name = ZINC63627162
REMARK  4 active torsions:
REMARK  status: ('A' for Active; 'I' for Inactive)
REMARK    1  A    between atoms: C_6  and  C_11
REMARK    2  A    between atoms: C_14  and  N_17
REMARK    3  A    between atoms: N_17  and  S_18
REMARK    4  A    between atoms: S_18  and  C_21
REMARK                            x       y       z     vdW  Elec       q    Type
REMARK                         _______ _______ _______ _____ _____    ______ ____
ROOT
ATOM      1  C   UNL     1       3.737  -2.796   1.137  0.00  0.00    -0.021 A 
ATOM      2  C   UNL     1       3.776  -2.115   2.340  0.00  0.00    +0.008 A 
ATOM      3  C   UNL     1       4.219  -2.752   3.483  0.00  0.00    +0.025 A 
ATOM      4  C   UNL     1       4.625  -4.080   3.422  0.00  0.00    +0.048 A 
ATOM      5  C   UNL     1       4.584  -4.761   2.213  0.00  0.00    +0.025 A 
ATOM      6  C   UNL     1       4.135  -4.119   1.075  0.00  0.00    +0.008 A 
ENDROOT
BRANCH   1  12
ATOM      7  C   UNL     1       0.262   1.452  -0.146  0.00  0.00    +0.001 A 
ATOM      8  C   UNL     1       1.479   2.147  -0.179  0.00  0.00    +0.002 A 
ATOM      9  C   UNL     1       2.675   1.522  -0.181  0.00  0.00    +0.026 A 
ATOM     10  C   UNL     1       2.745   0.102  -0.150  0.00  0.00    +0.043 A 
ATOM     11  N   UNL     1       3.764  -0.722  -0.145  0.00  0.00    -0.374 N 
ATOM     12  C   UNL     1       3.254  -2.097  -0.107  0.00  0.00    +0.133 C 
ATOM     13  C   UNL     1       1.746  -1.980  -0.088  0.00  0.00    +0.012 C 
ATOM     14  C   UNL     1       1.473  -0.655  -0.115  0.00  0.00    -0.004 A 
ATOM     15  C   UNL     1       0.215   0.101  -0.114  0.00  0.00    +0.010 A 
ATOM     16  H   UNL     1       4.699  -0.466  -0.165  0.00  0.00    +0.161 HD
ENDBRANCH   1  12
BRANCH   4  17
ATOM     17  N   UNL     1       5.074  -4.727   4.576  0.00  0.00    -0.216 N 
ATOM     18  H   UNL     1       5.708  -4.287   5.163  0.00  0.00    +0.174 HD
BRANCH  17  19
ATOM     19  S   UNL     1       4.522  -6.246   4.940  0.00  0.00    +0.072 S 
ATOM     20  O   UNL     1       4.731  -7.042   3.782  0.00  0.00    -0.150 OA
ATOM     21  O   UNL     1       5.072  -6.584   6.206  0.00  0.00    -0.150 OA
BRANCH  19  22
ATOM     22  C   UNL     1       2.779  -6.128   5.163  0.00  0.00    +0.109 A 
ATOM     23  C   UNL     1       2.263  -5.751   6.389  0.00  0.00    +0.030 A 
ATOM     24  C   UNL     1       0.895  -5.658   6.564  0.00  0.00    +0.017 A 
ATOM     25  C   UNL     1       0.042  -5.942   5.512  0.00  0.00    +0.018 A 
ATOM     26  C   UNL     1       0.559  -6.318   4.286  0.00  0.00    +0.017 A 
ATOM     27  C   UNL     1       1.927  -6.406   4.110  0.00  0.00    +0.030 A 
ATOM     28 BR   UNL     1      -1.829  -5.815   5.751  0.00  0.00    -0.050 Br
ENDBRANCH  19  22
ENDBRANCH  17  19
ENDBRANCH   4  17
TORSDOF 4
