REMARK  Name = ZINC04546258
REMARK  10 active torsions:
REMARK  status: ('A' for Active; 'I' for Inactive)
REMARK    1  A    between atoms: C_1  and  O_2
REMARK    2  A    between atoms: O_2  and  C_3
REMARK    3  A    between atoms: C_3  and  C_5
REMARK    4  A    between atoms: C_5  and  C_41
REMARK    5  A    between atoms: C_6  and  C_35
REMARK    6  A    between atoms: C_9  and  C_28
REMARK    7  A    between atoms: C_9  and  O_34
REMARK    8  A    between atoms: C_10  and  C_20
REMARK    9  A    between atoms: C_12  and  C_14
REMARK   10  A    between atoms: C_20  and  C_22
REMARK                            x       y       z     vdW  Elec       q    Type
REMARK                         _______ _______ _______ _____ _____    ______ ____
ROOT
ATOM      1  C   UNL     1       4.937   5.256  -0.154  0.00  0.00    +0.168 C 
ATOM      2  C   UNL     1       5.053   5.803   1.270  0.00  0.00    +0.054 C 
ATOM      3  C   UNL     1       3.796   5.436   2.061  0.00  0.00    +0.050 C 
ATOM      4  C   UNL     1       2.568   6.044   1.379  0.00  0.00    +0.102 C 
ATOM      5  C   UNL     1       2.453   5.498  -0.045  0.00  0.00    +0.106 C 
ATOM      6  C   UNL     1       3.710   5.865  -0.836  0.00  0.00    +0.064 C 
ENDROOT
BRANCH   6   7
ATOM      7  C   UNL     1       3.596   5.326  -2.239  0.00  0.00    -0.041 A 
ATOM      8  C   UNL     1       3.618   3.962  -2.459  0.00  0.00    +0.004 A 
ATOM      9  C   UNL     1       3.510   3.467  -3.746  0.00  0.00    +0.000 A 
ATOM     10  C   UNL     1       3.388   4.338  -4.813  0.00  0.00    +0.000 A 
ATOM     11  C   UNL     1       3.370   5.703  -4.593  0.00  0.00    +0.000 A 
ATOM     12  C   UNL     1       3.475   6.197  -3.306  0.00  0.00    +0.004 A 
ENDBRANCH   6   7
BRANCH   4  13
ATOM     13  C   UNL     1       1.330   5.683   2.158  0.00  0.00    -0.015 A 
ATOM     14  C   UNL     1       0.209   6.489   2.087  0.00  0.00    +0.006 A 
ATOM     15  C   UNL     1      -0.928   6.155   2.798  0.00  0.00    +0.000 A 
ATOM     16  C   UNL     1      -0.942   5.020   3.588  0.00  0.00    +0.000 A 
ATOM     17  C   UNL     1       0.181   4.217   3.663  0.00  0.00    +0.000 A 
ATOM     18  C   UNL     1       1.317   4.548   2.948  0.00  0.00    +0.006 A 
ENDBRANCH   4  13
BRANCH   2  19
ATOM     19  C   UNL     1       6.261   5.204   1.942  0.00  0.00    -0.042 A 
ATOM     20  C   UNL     1       6.353   3.834   2.106  0.00  0.00    +0.004 A 
ATOM     21  C   UNL     1       7.464   3.284   2.718  0.00  0.00    +0.000 A 
ATOM     22  C   UNL     1       8.479   4.104   3.174  0.00  0.00    +0.000 A 
ATOM     23  C   UNL     1       8.385   5.474   3.014  0.00  0.00    +0.000 A 
ATOM     24  C   UNL     1       7.276   6.024   2.398  0.00  0.00    +0.004 A 
ENDBRANCH   2  19
BRANCH   1  25
ATOM     25  C   UNL     1       6.175   5.618  -0.933  0.00  0.00    +0.328 C 
ATOM     26  O   UNL     1       6.086   6.293  -1.931  0.00  0.00    -0.249 OA
BRANCH  25  28
ATOM     27  C   UNL     1       8.527   5.576  -1.318  0.00  0.00    +0.280 C 
ATOM     28  O   UNL     1       7.378   5.190  -0.518  0.00  0.00    -0.467 OA
ENDBRANCH  25  28
ENDBRANCH   1  25
BRANCH   5  29
ATOM     29  C   UNL     1       2.309   3.998   0.003  0.00  0.00    +0.170 C 
ATOM     30  O   UNL     1       2.798   3.371   0.918  0.00  0.00    -0.292 OA
BRANCH  29  31
ATOM     31  C   UNL     1       1.575   3.295  -1.062  0.00  0.00    +0.018 A 
ATOM     32  C   UNL     1       1.554   1.897  -1.096  0.00  0.00    +0.011 A 
ATOM     33  C   UNL     1       0.865   1.246  -2.097  0.00  0.00    +0.001 A 
ATOM     34  C   UNL     1       0.200   1.972  -3.069  0.00  0.00    +0.000 A 
ATOM     35  C   UNL     1       0.212   3.355  -3.040  0.00  0.00    +0.001 A 
ATOM     36  C   UNL     1       0.896   4.021  -2.045  0.00  0.00    +0.011 A 
ENDBRANCH  29  31
ENDBRANCH   5  29
BRANCH   4  37
ATOM     37  O   UNL     1       2.705   7.466   1.334  0.00  0.00    -0.383 OA
ATOM     38  H   UNL     1       2.783   7.882   2.204  0.00  0.00    +0.211 HD
ENDBRANCH   4  37
BRANCH   1  39
ATOM     39  C   UNL     1       4.797   3.792  -0.108  0.00  0.00    +0.082 C 
ATOM     40  N   UNL     1       4.689   2.661  -0.072  0.00  0.00    -0.195 NA
ENDBRANCH   1  39
TORSDOF 9
