REMARK  Name = ZINC20067959
REMARK  10 active torsions:
REMARK  status: ('A' for Active; 'I' for Inactive)
REMARK    1  A    between atoms: C_1  and  C_2
REMARK    2  A    between atoms: C_2  and  N_3
REMARK    3  A    between atoms: C_4  and  C_27
REMARK    4  A    between atoms: C_7  and  S_8
REMARK    5  A    between atoms: S_8  and  C_9
REMARK    6  A    between atoms: C_9  and  C_10
REMARK    7  A    between atoms: C_16  and  C_21
REMARK    8  A    between atoms: C_24  and  C_26
REMARK    9  A    between atoms: C_32  and  O_33
REMARK   10  A    between atoms: O_33  and  C_34
REMARK                            x       y       z     vdW  Elec       q    Type
REMARK                         _______ _______ _______ _____ _____    ______ ____
ROOT
ATOM      1  C   UNL     1       4.834  -0.703  -1.061  0.00  0.00    +0.151 C 
ENDROOT
BRANCH   1   2
ATOM      2  C   UNL     1       6.012  -0.383  -0.178  0.00  0.00    +0.121 A 
ATOM      3  N   UNL     1       7.261  -0.730  -0.580  0.00  0.00    -0.310 N 
ATOM      4  H   UNL     1       7.379  -1.180  -1.431  0.00  0.00    +0.170 HD
ATOM      5  C   UNL     1       8.340  -0.462   0.179  0.00  0.00    +0.260 A 
ATOM      6  O   UNL     1       9.455  -0.780  -0.196  0.00  0.00    -0.267 OA
ATOM      7  C   UNL     1       8.158   0.203   1.433  0.00  0.00    +0.080 A 
ATOM      8  C   UNL     1       9.155   0.598   2.422  0.00  0.00    +0.010 A 
ATOM      9  C   UNL     1       8.740   1.226   3.551  0.00  0.00    +0.057 A 
ATOM     10  S   UNL     1       6.972   1.319   3.345  0.00  0.00    -0.076 S 
ATOM     11  C   UNL     1       6.831   0.523   1.765  0.00  0.00    +0.116 A 
ATOM     12  N   UNL     1       5.814   0.229   0.959  0.00  0.00    -0.226 NA
BRANCH   8  13
ATOM     13  C   UNL     1      10.589   0.321   2.198  0.00  0.00    +0.021 A 
ATOM     14  C   UNL     1      11.659   1.170   2.301  0.00  0.00    +0.016 A 
ATOM     15  C   UNL     1      12.921   0.679   2.041  0.00  0.00    +0.011 A 
ATOM     16  C   UNL     1      13.065  -0.624   1.692  0.00  0.00    -0.013 A 
ATOM     17  S   UNL     1      11.380  -1.210   1.729  0.00  0.00    -0.093 S 
ATOM     18  C   UNL     1      14.325  -1.383   1.363  0.00  0.00    +0.051 C 
ENDBRANCH   8  13
ENDBRANCH   1   2
BRANCH   1  19
ATOM     19  S   UNL     1       3.309  -0.117  -0.272  0.00  0.00    -0.078 S 
BRANCH  19  24
ATOM     20  N   UNL     1       0.703  -0.328  -1.267  0.00  0.00    -0.302 N 
ATOM     21  C   UNL     1       0.112  -0.840  -2.399  0.00  0.00    +0.168 A 
ATOM     22  N   UNL     1       1.072  -1.339  -3.142  0.00  0.00    -0.128 NA
ATOM     23  N   UNL     1       2.207  -1.177  -2.561  0.00  0.00    -0.122 NA
ATOM     24  C   UNL     1       2.042  -0.560  -1.413  0.00  0.00    +0.192 A 
BRANCH  21  25
ATOM     25  C   UNL     1      -1.331  -0.830  -2.718  0.00  0.00    +0.061 A 
ATOM     26  C   UNL     1      -2.263  -1.243  -1.765  0.00  0.00    +0.015 A 
ATOM     27  C   UNL     1      -3.608  -1.231  -2.069  0.00  0.00    +0.001 A 
ATOM     28  C   UNL     1      -4.038  -0.811  -3.316  0.00  0.00    +0.004 A 
ATOM     29  C   UNL     1      -3.124  -0.400  -4.268  0.00  0.00    +0.046 A 
ATOM     30  C   UNL     1      -1.770  -0.401  -3.976  0.00  0.00    +0.131 A 
BRANCH  30  31
ATOM     31  O   UNL     1      -0.872   0.009  -4.909  0.00  0.00    -0.494 OA
ATOM     32  C   UNL     1      -1.393   0.433  -6.170  0.00  0.00    +0.277 C 
ENDBRANCH  30  31
ENDBRANCH  21  25
BRANCH  20  34
ATOM     33  C   UNL     1      -0.081   1.832  -0.428  0.00  0.00    +0.027 C 
ATOM     34  C   UNL     1       0.036   0.333  -0.142  0.00  0.00    +0.122 C 
ENDBRANCH  20  34
ENDBRANCH  19  24
ENDBRANCH   1  19
TORSDOF 7
