REMARK  Name = ZINC20806337
REMARK  5 active torsions:
REMARK  status: ('A' for Active; 'I' for Inactive)
REMARK    1  A    between atoms: C_4  and  N_7
REMARK    2  A    between atoms: C_8  and  C_29
REMARK    3  A    between atoms: N_12  and  C_13
REMARK    4  A    between atoms: C_16  and  C_19
REMARK    5  A    between atoms: C_33  and  N_35
REMARK                            x       y       z     vdW  Elec       q    Type
REMARK                         _______ _______ _______ _____ _____    ______ ____
ROOT
ATOM      1  N   UNL     1      -2.595   3.789   0.402  0.00  0.00    -0.289 N 
ATOM      2  C   UNL     1      -3.674   3.166  -0.081  0.00  0.00    +0.063 A 
ATOM      3  C   UNL     1      -4.781   3.939  -0.460  0.00  0.00    +0.075 A 
ATOM      4  S   UNL     1      -4.242   5.553  -0.125  0.00  0.00    -0.059 S 
ATOM      5  C   UNL     1      -2.616   5.159   0.495  0.00  0.00    +0.157 A 
ATOM      6  N   UNL     1      -1.673   5.976   0.932  0.00  0.00    -0.335 N 
ATOM      7  H   UNL     1      -0.684   5.579   1.207  0.00  0.00    +0.168 HD
ENDROOT
BRANCH   1  11
ATOM      8  C   UNL     1       0.761   1.629   1.584  0.00  0.00    +0.000 A 
ATOM      9  C   UNL     1       0.905   2.729   0.757  0.00  0.00    +0.002 A 
ATOM     10  C   UNL     1      -0.205   3.451   0.368  0.00  0.00    +0.026 A 
ATOM     11  C   UNL     1      -1.470   3.065   0.798  0.00  0.00    +0.049 A 
ATOM     12  C   UNL     1      -1.610   1.959   1.629  0.00  0.00    +0.026 A 
ATOM     13  C   UNL     1      -0.494   1.245   2.019  0.00  0.00    +0.002 A 
ENDBRANCH   1  11
BRANCH   6  14
ATOM     14  C   UNL     1      -1.920   7.288   1.039  0.00  0.00    +0.041 A 
ATOM     15  C   UNL     1      -1.753   8.134  -0.079  0.00  0.00    +0.026 A 
ATOM     16  C   UNL     1      -2.012   9.464   0.033  0.00  0.00    +0.013 A 
ATOM     17  C   UNL     1      -2.433   9.999   1.262  0.00  0.00    +0.019 A 
ATOM     18  C   UNL     1      -2.594   9.162   2.378  0.00  0.00    +0.013 A 
ATOM     19  C   UNL     1      -2.344   7.830   2.273  0.00  0.00    +0.026 A 
BRANCH  17  20
ATOM     20  C   UNL     1      -2.705  11.440   1.379  0.00  0.00    +0.164 A 
ATOM     21  N   UNL     1      -2.274  12.393   0.571  0.00  0.00    -0.129 NA
ATOM     22  N   UNL     1      -2.716  13.532   0.977  0.00  0.00    -0.134 NA
ATOM     23  C   UNL     1      -3.445  13.370   2.052  0.00  0.00    +0.134 A 
ATOM     24  N   UNL     1      -3.459  12.052   2.343  0.00  0.00    -0.311 N 
ATOM     25  C   UNL     1      -4.120  11.417   3.483  0.00  0.00    +0.125 C 
ATOM     26  C   UNL     1      -5.337  12.252   3.891  0.00  0.00    +0.022 C 
ATOM     27  C   UNL     1      -4.919  13.302   4.920  0.00  0.00    +0.002 C 
ATOM     28  C   UNL     1      -3.881  14.249   4.325  0.00  0.00    +0.008 C 
ATOM     29  C   UNL     1      -4.161  14.443   2.832  0.00  0.00    +0.076 C 
ENDBRANCH  17  20
ENDBRANCH   6  14
BRANCH   2  30
ATOM     30  C   UNL     1      -3.701   1.700  -0.207  0.00  0.00    +0.002 A 
ATOM     31  C   UNL     1      -2.600   1.018  -0.742  0.00  0.00    +0.010 A 
ATOM     32  C   UNL     1      -2.633  -0.355  -0.853  0.00  0.00    +0.003 A 
ATOM     33  C   UNL     1      -3.753  -1.060  -0.446  0.00  0.00    +0.033 A 
ATOM     34  C   UNL     1      -4.847  -0.394   0.080  0.00  0.00    +0.127 A 
ATOM     35  C   UNL     1      -4.830   0.979   0.202  0.00  0.00    +0.042 A 
BRANCH  34  36
ATOM     36  N   UNL     1      -6.039  -1.158   0.512  0.00  0.00    +0.056 N 
ATOM     37  O   UNL     1      -7.081  -0.526   1.011  0.00  0.00    -0.126 OA
ATOM     38  O   UNL     1      -6.058  -2.470   0.396  0.00  0.00    -0.126 OA
ENDBRANCH  34  36
ENDBRANCH   2  30
TORSDOF 5
