REMARK  Name = ZINC04761883
REMARK  4 active torsions:
REMARK  status: ('A' for Active; 'I' for Inactive)
REMARK    1  A    between atoms: N_11  and  C_12
REMARK    2  A    between atoms: C_18  and  C_20
REMARK    3  A    between atoms: N_24  and  C_25
REMARK    4  A    between atoms: C_25  and  C_26
REMARK                            x       y       z     vdW  Elec       q    Type
REMARK                         _______ _______ _______ _____ _____    ______ ____
ROOT
ATOM      1  C   UNL     1       3.279  -2.409   0.794  0.00  0.00    +0.095 C 
ATOM      2  C   UNL     1       1.869  -2.999   0.862  0.00  0.00    +0.044 C 
ATOM      3  C   UNL     1       1.000  -2.364  -0.229  0.00  0.00    +0.110 C 
ATOM      4  N   UNL     1       1.051  -0.903  -0.082  0.00  0.00    -0.296 N 
ATOM      5  C   UNL     1       2.363  -0.242  -0.050  0.00  0.00    +0.110 C 
ATOM      6  C   UNL     1       3.216  -0.901   1.045  0.00  0.00    +0.044 C 
ATOM      7  C   UNL     1      -0.084  -0.183   0.015  0.00  0.00    +0.263 C 
ATOM      8  O   UNL     1      -1.154  -0.748   0.145  0.00  0.00    -0.268 OA
ENDROOT
BRANCH   1  19
ATOM      9  C   UNL     1       7.606  -5.267   1.744  0.00  0.00    +0.002 A 
ATOM     10  C   UNL     1       7.131  -4.856   0.510  0.00  0.00    +0.002 A 
ATOM     11  C   UNL     1       5.975  -4.106   0.423  0.00  0.00    +0.028 A 
ATOM     12  C   UNL     1       5.285  -3.765   1.577  0.00  0.00    +0.070 A 
ATOM     13  C   UNL     1       5.764  -4.179   2.821  0.00  0.00    +0.067 A 
ATOM     14  C   UNL     1       6.926  -4.931   2.898  0.00  0.00    +0.028 A 
ATOM     15  N   UNL     1       4.876  -3.692   3.777  0.00  0.00    -0.306 N 
ATOM     16  H   UNL     1       4.947  -3.820   4.736  0.00  0.00    +0.170 HD
ATOM     17  C   UNL     1       3.904  -3.008   3.143  0.00  0.00    +0.328 A 
ATOM     18  O   UNL     1       2.970  -2.450   3.688  0.00  0.00    -0.247 OA
ATOM     19  N   UNL     1       4.121  -3.038   1.815  0.00  0.00    -0.289 N 
ENDBRANCH   1  19
BRANCH   7  20
ATOM     20  C   UNL     1      -0.030   1.280  -0.037  0.00  0.00    +0.109 A 
ATOM     21  C   UNL     1       0.913   2.030  -0.705  0.00  0.00    +0.079 A 
ATOM     22  C   UNL     1       0.605   3.380  -0.503  0.00  0.00    +0.153 A 
ATOM     23  C   UNL     1      -0.530   3.431   0.301  0.00  0.00    +0.088 A 
ATOM     24  N   UNL     1      -0.912   2.145   0.582  0.00  0.00    -0.333 N 
ATOM     25  C   UNL     1      -0.818   4.803   0.493  0.00  0.00    +0.067 A 
ATOM     26  C   UNL     1       0.117   5.502  -0.174  0.00  0.00    +0.198 A 
ATOM     27  O   UNL     1       0.969   4.653  -0.772  0.00  0.00    -0.461 OA
BRANCH  24  28
ATOM     28  C   UNL     1      -2.062   1.753   1.401  0.00  0.00    +0.126 C 
BRANCH  28  29
ATOM     29  C   UNL     1      -1.657   1.742   2.876  0.00  0.00    +0.009 C 
ATOM     30  C   UNL     1      -1.048   0.407   3.338  0.00  0.00    +0.005 C 
ATOM     31  C   UNL     1      -1.845   0.587   4.643  0.00  0.00    +0.001 C 
ATOM     32  C   UNL     1      -2.826   1.452   3.833  0.00  0.00    +0.005 C 
ENDBRANCH  28  29
ENDBRANCH  24  28
ENDBRANCH   7  20
TORSDOF 4
