REMARK  Name = ZINC16696693
REMARK  15 active torsions:
REMARK  status: ('A' for Active; 'I' for Inactive)
REMARK    1  A    between atoms: C_1  and  C_2
REMARK    2  A    between atoms: C_2  and  C_3
REMARK    3  A    between atoms: C_3  and  C_4
REMARK    4  A    between atoms: C_7  and  C_11
REMARK    5  A    between atoms: C_10  and  N_61
REMARK    6  A    between atoms: N_13  and  C_14
REMARK    7  A    between atoms: C_14  and  C_16
REMARK    8  A    between atoms: C_14  and  C_34
REMARK    9  A    between atoms: C_18  and  O_33
REMARK   10  A    between atoms: C_20  and  O_32
REMARK   11  A    between atoms: C_22  and  O_29
REMARK   12  A    between atoms: C_24  and  S_27
REMARK   13  A    between atoms: S_27  and  C_28
REMARK   14  A    between atoms: O_29  and  P_30
REMARK   15  A    between atoms: C_34  and  C_36
REMARK                            x       y       z     vdW  Elec       q    Type
REMARK                         _______ _______ _______ _____ _____    ______ ____
ROOT
ATOM      1  C   UNL     1      -2.694   7.027  -3.360  0.00  0.00    +0.122 C 
ENDROOT
BRANCH   1   2
ATOM      2  C   UNL     1      -2.315   5.561  -3.147  0.00  0.00    +0.172 C 
ATOM      3  C   UNL     1      -0.790   5.428  -3.105  0.00  0.00    +0.176 C 
ATOM      4  C   UNL     1      -0.419   3.967  -2.831  0.00  0.00    +0.178 C 
ATOM      5  C   UNL     1      -1.078   3.522  -1.522  0.00  0.00    +0.200 C 
ATOM      6  C   UNL     1      -2.591   3.728  -1.625  0.00  0.00    +0.208 C 
ATOM      7  O   UNL     1      -2.866   5.101  -1.911  0.00  0.00    -0.356 OA
BRANCH   6   8
ATOM      8  S   UNL     1      -3.254   2.688  -2.956  0.00  0.00    -0.130 S 
ATOM      9  C   UNL     1      -5.049   2.928  -2.848  0.00  0.00    +0.087 C 
ENDBRANCH   6   8
BRANCH   4  10
ATOM     10  O   UNL     1       1.000   3.848  -2.718  0.00  0.00    -0.386 OA
ATOM     11  H   UNL     1       1.306   2.948  -2.537  0.00  0.00    +0.210 HD
ENDBRANCH   4  10
BRANCH   3  12
ATOM     12  O   UNL     1      -0.267   6.257  -2.064  0.00  0.00    -0.387 OA
ATOM     13  H   UNL     1       0.695   6.222  -1.980  0.00  0.00    +0.210 HD
ENDBRANCH   3  12
BRANCH   5  14
ATOM     14  O   UNL     1      -0.798   2.139  -1.294  0.00  0.00    -0.274 OA
BRANCH  14  15
ATOM     15  P   UNL     1      -0.020   1.606   0.011  0.00  0.00    +0.532 P 
ATOM     16  O   UNL     1      -0.713   2.083   1.228  0.00  0.00    -0.222 OA
ATOM     17  O   UNL     1       0.002  -0.004   0.002  0.00  0.00    -0.115 OA
ATOM     18  O   UNL     1       1.491   2.163  -0.001  0.00  0.00    -0.115 OA
ENDBRANCH  14  15
ENDBRANCH   5  14
ENDBRANCH   1   2
BRANCH   1  21
ATOM     19  C   UNL     1      -1.881   8.811  -4.808  0.00  0.00    +0.200 C 
ATOM     20  O   UNL     1      -2.126   9.602  -3.921  0.00  0.00    -0.278 OA
ATOM     21  N   UNL     1      -2.129   7.499  -4.627  0.00  0.00    -0.310 N 
ATOM     22  H   UNL     1      -1.934   6.866  -5.336  0.00  0.00    +0.149 HD
BRANCH  19  25
ATOM     23  C   UNL     1      -2.025  10.710  -7.975  0.00  0.00    -0.029 C 
ATOM     24  C   UNL     1      -2.411   9.449  -7.172  0.00  0.00    -0.005 C 
ATOM     25  C   UNL     1      -1.300   9.296  -6.111  0.00  0.00    +0.019 C 
ATOM     26  C   UNL     1      -0.712  11.209  -7.333  0.00  0.00    -0.075 C 
ATOM     27  C   UNL     1       0.612  10.614  -5.378  0.00  0.00    -0.095 C 
ATOM     28  N   UNL     1      -0.759  10.646  -5.978  0.00  0.00    +0.386 N 
ATOM     29  H   UNL     1      -1.374  11.214  -5.383  0.00  0.00    -0.081 HD
BRANCH  23  30
ATOM     30  C   UNL     1      -1.796  10.355  -9.445  0.00  0.00    +0.001 C 
BRANCH  30  32
ATOM     31  C   UNL     1      -1.237  11.269 -11.702  0.00  0.00    +0.004 C 
ATOM     32  C   UNL     1      -1.466  11.625 -10.232  0.00  0.00    -0.003 C 
ENDBRANCH  30  32
ENDBRANCH  23  30
ENDBRANCH  19  25
ENDBRANCH   1  21
BRANCH   1  33
ATOM     33  C   UNL     1      -4.218   7.160  -3.400  0.00  0.00    +0.100 C 
ATOM     34  C   UNL     1      -4.596   8.603  -3.737  0.00  0.00    +0.026 C 
ATOM     35 CL   UNL     1      -4.884   6.054  -4.660  0.00  0.00    -0.120 Cl
ENDBRANCH   1  33
TORSDOF 11
