REMARK  Name = ZINC13448170
REMARK  15 active torsions:
REMARK  status: ('A' for Active; 'I' for Inactive)
REMARK    1  A    between atoms: C_1  and  C_2
REMARK    2  A    between atoms: C_2  and  C_3
REMARK    3  A    between atoms: C_4  and  C_31
REMARK    4  A    between atoms: C_6  and  N_13
REMARK    5  A    between atoms: C_7  and  C_8
REMARK    6  A    between atoms: C_8  and  O_10
REMARK    7  A    between atoms: O_10  and  C_11
REMARK    8  A    between atoms: C_11  and  C_12
REMARK    9  A    between atoms: C_14  and  C_16
REMARK   10  A    between atoms: C_16  and  S_17
REMARK   11  A    between atoms: S_17  and  C_18
REMARK   12  A    between atoms: C_22  and  C_26
REMARK   13  A    between atoms: C_23  and  C_25
REMARK   14  A    between atoms: C_26  and  C_27
REMARK   15  A    between atoms: C_27  and  C_28
REMARK                            x       y       z     vdW  Elec       q    Type
REMARK                         _______ _______ _______ _____ _____    ______ ____
ROOT
ATOM      1  N   UNL     1      -4.340  -1.597  -2.061  0.00  0.00    -0.279 N 
ATOM      2  C   UNL     1      -5.567  -2.050  -1.738  0.00  0.00    +0.228 C 
ATOM      3  O   UNL     1      -5.882  -2.170  -0.573  0.00  0.00    -0.275 OA
ATOM      4  H   UNL     1      -4.088  -1.501  -2.993  0.00  0.00    +0.155 HD
ENDROOT
BRANCH   1   8
ATOM      5  C   UNL     1      -1.412  -0.526   0.013  0.00  0.00    -0.022 A 
ATOM      6  C   UNL     1      -2.073  -0.774   1.158  0.00  0.00    -0.008 A 
ATOM      7  S   UNL     1      -3.659  -1.356   0.598  0.00  0.00    -0.078 S 
ATOM      8  C   UNL     1      -3.437  -1.268  -1.063  0.00  0.00    +0.086 A 
ATOM      9  C   UNL     1      -2.144  -0.785  -1.207  0.00  0.00    +0.091 A 
ATOM     10  C   UNL     1      -1.588  -0.600   2.574  0.00  0.00    +0.052 C 
BRANCH   5  12
ATOM     11  C   UNL     1      -0.019   1.526   0.010  0.00  0.00    +0.009 C 
ATOM     12  C   UNL     1       0.002  -0.004   0.002  0.00  0.00    +0.033 C 
ENDBRANCH   5  12
BRANCH   9  13
ATOM     13  C   UNL     1      -1.550  -0.554  -2.525  0.00  0.00    +0.342 C 
ATOM     14  O   UNL     1      -0.939  -1.447  -3.082  0.00  0.00    -0.245 OA
BRANCH  13  15
ATOM     15  O   UNL     1      -1.681   0.648  -3.123  0.00  0.00    -0.461 OA
BRANCH  15  16
ATOM     16  C   UNL     1      -1.076   0.803  -4.408  0.00  0.00    +0.229 C 
ATOM     17  C   UNL     1      -1.328   2.221  -4.923  0.00  0.00    +0.048 C 
ENDBRANCH  15  16
ENDBRANCH  13  15
ENDBRANCH   9  13
ENDBRANCH   1   8
BRANCH   2  18
ATOM     18  C   UNL     1      -6.549  -2.408  -2.824  0.00  0.00    +0.173 C 
BRANCH  18  19
ATOM     19  S   UNL     1      -8.098  -2.981  -2.074  0.00  0.00    -0.077 S 
BRANCH  19  20
ATOM     20  C   UNL     1      -9.127  -3.355  -3.454  0.00  0.00    +0.192 A 
ATOM     21  N   UNL     1      -8.653  -3.182  -4.680  0.00  0.00    -0.183 NA
ATOM     22  C   UNL     1      -9.403  -3.455  -5.740  0.00  0.00    +0.277 A 
ATOM     23  O   UNL     1      -8.915  -3.277  -6.991  0.00  0.00    -0.265 OA
ATOM     24  C   UNL     1     -10.701  -3.927  -5.548  0.00  0.00    +0.040 A 
ATOM     25  C   UNL     1     -11.159  -4.094  -4.254  0.00  0.00    +0.049 A 
ATOM     26  N   UNL     1     -10.355  -3.808  -3.241  0.00  0.00    -0.227 NA
ATOM     27  C   UNL     1     -12.554  -4.602  -3.999  0.00  0.00    +0.066 C 
BRANCH  24  28
ATOM     28  C   UNL     1     -11.586  -4.248  -6.725  0.00  0.00    +0.054 C 
BRANCH  28  29
ATOM     29  C   UNL     1     -11.392  -5.713  -7.124  0.00  0.00    +0.130 C 
BRANCH  29  30
ATOM     30  C   UNL     1     -12.277  -6.034  -8.301  0.00  0.00    +0.356 C 
ATOM     31  O   UNL     1     -12.996  -5.171  -8.777  0.00  0.00    -0.246 OA
ATOM     32  O   UNL     1     -12.274  -7.156  -8.778  0.00  0.00    -0.246 OA
ENDBRANCH  29  30
ENDBRANCH  28  29
ENDBRANCH  24  28
ENDBRANCH  19  20
ENDBRANCH  18  19
ENDBRANCH   2  18
TORSDOF 11
