REMARK  Name = ZINC40153076
REMARK  4 active torsions:
REMARK  status: ('A' for Active; 'I' for Inactive)
REMARK    1  A    between atoms: C_1  and  C_2
REMARK    2  A    between atoms: C_7  and  N_10
REMARK    3  A    between atoms: C_11  and  C_13
REMARK    4  A    between atoms: C_19  and  N_23
REMARK                            x       y       z     vdW  Elec       q    Type
REMARK                         _______ _______ _______ _____ _____    ______ ____
ROOT
ATOM      1  C   UNL     1       1.918  -4.242   4.099  0.00  0.00    +0.103 A 
ATOM      2  C   UNL     1       1.743  -5.458   4.678  0.00  0.00    +0.041 A 
ATOM      3  C   UNL     1       2.612  -5.533   5.794  0.00  0.00    +0.003 A 
ATOM      4  C   UNL     1       2.865  -6.524   6.751  0.00  0.00    +0.010 A 
ATOM      5  C   UNL     1       3.784  -6.300   7.734  0.00  0.00    +0.003 A 
ATOM      6  C   UNL     1       4.474  -5.095   7.795  0.00  0.00    +0.035 A 
ATOM      7  C   UNL     1       4.243  -4.106   6.866  0.00  0.00    +0.150 A 
ATOM      8  C   UNL     1       3.310  -4.311   5.854  0.00  0.00    +0.078 A 
ATOM      9  N   UNL     1       2.875  -3.538   4.804  0.00  0.00    -0.349 N 
ATOM     10  H   UNL     1       3.187  -2.643   4.594  0.00  0.00    +0.166 HD
ENDROOT
BRANCH   1  12
ATOM     11  N   UNL     1       1.471  -2.526   2.420  0.00  0.00    -0.307 N 
ATOM     12  C   UNL     1       1.207  -3.754   2.907  0.00  0.00    +0.261 C 
ATOM     13  O   UNL     1       0.380  -4.460   2.362  0.00  0.00    -0.269 OA
ATOM     14  H   UNL     1       2.131  -1.963   2.855  0.00  0.00    +0.149 HD
BRANCH  11  20
ATOM     15  C   UNL     1      -0.019   1.526   0.010  0.00  0.00    +0.007 C 
ATOM     16  C   UNL     1       0.002  -0.004   0.002  0.00  0.00    -0.012 C 
ATOM     17  C   UNL     1       0.718  -0.497  -1.257  0.00  0.00    +0.003 C 
ATOM     18  C   UNL     1       0.739  -2.027  -1.265  0.00  0.00    +0.002 C 
ATOM     19  C   UNL     1       1.479  -2.534  -0.026  0.00  0.00    +0.022 C 
ATOM     20  C   UNL     1       0.763  -2.041   1.233  0.00  0.00    +0.074 C 
ATOM     21  C   UNL     1       0.742  -0.511   1.242  0.00  0.00    +0.025 C 
ENDBRANCH  11  20
ENDBRANCH   1  12
BRANCH   7  22
ATOM     22  N   UNL     1       4.986  -2.828   6.943  0.00  0.00    +0.058 N 
ATOM     23  O   UNL     1       5.796  -2.651   7.822  0.00  0.00    -0.126 OA
ATOM     24  O   UNL     1       4.782  -1.960   6.126  0.00  0.00    -0.126 OA
ENDBRANCH   7  22
TORSDOF 3
