REMARK  Name = ZINC59017553
REMARK  10 active torsions:
REMARK  status: ('A' for Active; 'I' for Inactive)
REMARK    1  A    between atoms: C_1  and  C_2
REMARK    2  A    between atoms: C_5  and  C_35
REMARK    3  A    between atoms: N_8  and  S_10
REMARK    4  A    between atoms: S_10  and  C_13
REMARK    5  A    between atoms: C_16  and  C_19
REMARK    6  A    between atoms: N_21  and  C_22
REMARK    7  A    between atoms: C_27  and  N_28
REMARK    8  A    between atoms: N_31  and  C_32
REMARK    9  A    between atoms: C_32  and  C_33
REMARK   10  A    between atoms: C_32  and  C_34
REMARK                            x       y       z     vdW  Elec       q    Type
REMARK                         _______ _______ _______ _____ _____    ______ ____
ROOT
ATOM      1  C   UNL     1       3.866  -4.131  -4.172  0.00  0.00    +0.248 C 
ATOM      2  O   UNL     1       3.443  -5.109  -4.758  0.00  0.00    -0.270 OA
ATOM      3  N   UNL     1       4.741  -3.306  -4.782  0.00  0.00    -0.280 N 
ATOM      4  H   UNL     1       5.016  -2.483  -4.348  0.00  0.00    +0.155 HD
ENDROOT
BRANCH   1   8
ATOM      5  C   UNL     1       2.590  -3.314  -0.204  0.00  0.00    +0.106 A 
ATOM      6  C   UNL     1       2.106  -4.427  -0.868  0.00  0.00    +0.029 A 
ATOM      7  C   UNL     1       2.517  -4.698  -2.157  0.00  0.00    +0.015 A 
ATOM      8  C   UNL     1       3.422  -3.846  -2.792  0.00  0.00    +0.037 A 
ATOM      9  C   UNL     1       3.906  -2.724  -2.116  0.00  0.00    +0.015 A 
ATOM     10  C   UNL     1       3.483  -2.462  -0.830  0.00  0.00    +0.029 A 
BRANCH   5  11
ATOM     11  S   UNL     1       2.061  -2.975   1.442  0.00  0.00    +0.061 S 
ATOM     12  O   UNL     1       3.072  -2.173   2.037  0.00  0.00    -0.153 OA
ATOM     13  O   UNL     1       1.647  -4.216   1.999  0.00  0.00    -0.153 OA
BRANCH  11  19
ATOM     14  C   UNL     1       0.059   1.493   0.106  0.00  0.00    +0.009 C 
ATOM     15  C   UNL     1       0.069  -0.036   0.080  0.00  0.00    +0.002 C 
ATOM     16  C   UNL     1      -1.369  -0.558   0.101  0.00  0.00    +0.009 C 
ATOM     17  C   UNL     1      -1.361  -2.087   0.041  0.00  0.00    +0.002 C 
ATOM     18  C   UNL     1      -0.629  -2.638   1.269  0.00  0.00    +0.112 C 
ATOM     19  N   UNL     1       0.707  -2.029   1.336  0.00  0.00    -0.176 NA
ATOM     20  C   UNL     1       0.818  -0.564   1.308  0.00  0.00    +0.112 C 
ATOM     21  C   UNL     1      -2.800  -2.606   0.028  0.00  0.00    +0.009 C 
ENDBRANCH  11  19
ENDBRANCH   5  11
ENDBRANCH   1   8
BRANCH   3  22
ATOM     22  C   UNL     1       5.252  -3.636  -6.043  0.00  0.00    +0.055 A 
ATOM     23  C   UNL     1       5.302  -4.962  -6.448  0.00  0.00    +0.025 A 
ATOM     24  C   UNL     1       5.806  -5.285  -7.694  0.00  0.00    +0.002 A 
ATOM     25  C   UNL     1       6.263  -4.290  -8.539  0.00  0.00    +0.002 A 
ATOM     26  C   UNL     1       6.217  -2.967  -8.143  0.00  0.00    +0.025 A 
ATOM     27  C   UNL     1       5.706  -2.632  -6.898  0.00  0.00    +0.056 A 
BRANCH  27  28
ATOM     28  N   UNL     1       5.653  -1.291  -6.498  0.00  0.00    -0.268 N 
ATOM     29  C   UNL     1       6.503  -0.393  -7.034  0.00  0.00    +0.304 C 
ATOM     30  O   UNL     1       7.382  -0.764  -7.789  0.00  0.00    -0.253 OA
ATOM     31  N   UNL     1       6.380   0.915  -6.734  0.00  0.00    -0.297 N 
ATOM     32  H   UNL     1       5.005  -1.008  -5.834  0.00  0.00    +0.156 HD
ATOM     33  H   UNL     1       5.679   1.210  -6.132  0.00  0.00    +0.151 HD
BRANCH  31  34
ATOM     34  C   UNL     1       7.304   1.891  -7.318  0.00  0.00    +0.068 C 
ATOM     35  C   UNL     1       6.798   2.310  -8.699  0.00  0.00    +0.027 C 
ATOM     36  C   UNL     1       7.388   3.120  -6.410  0.00  0.00    +0.027 C 
ENDBRANCH  31  34
ENDBRANCH  27  28
ENDBRANCH   3  22
TORSDOF 6
