REMARK  Name = ZINC04739985
REMARK  4 active torsions:
REMARK  status: ('A' for Active; 'I' for Inactive)
REMARK    1  A    between atoms: C_1  and  C_2
REMARK    2  A    between atoms: C_6  and  C_7
REMARK    3  A    between atoms: C_13  and  N_19
REMARK    4  A    between atoms: C_14  and  C_16
REMARK                            x       y       z     vdW  Elec       q    Type
REMARK                         _______ _______ _______ _____ _____    ______ ____
ROOT
ATOM      1  C   UNL     1       2.396  -0.074   0.498  0.00  0.00    +0.005 A 
ATOM      2  C   UNL     1       1.540  -0.623   1.459  0.00  0.00    -0.017 A 
ATOM      3  C   UNL     1       0.292  -0.078   1.657  0.00  0.00    +0.046 A 
ATOM      4  N   UNL     1      -0.103   0.964   0.935  0.00  0.00    -0.244 NA
ATOM      5  C   UNL     1       0.656   1.518   0.018  0.00  0.00    +0.112 A 
ATOM      6  C   UNL     1       1.956   1.046  -0.270  0.00  0.00    +0.038 A 
ATOM      7  C   UNL     1       2.662   1.771  -1.310  0.00  0.00    +0.054 A 
ATOM      8  C   UNL     1       2.023   2.832  -1.917  0.00  0.00    +0.097 A 
ATOM      9  S   UNL     1       0.442   2.884  -1.097  0.00  0.00    -0.062 S 
ATOM     10  C   UNL     1      -0.673  -0.616   2.683  0.00  0.00    +0.056 C 
ATOM     11  C   UNL     1      -0.274  -2.027   3.108  0.00  0.00    +0.006 C 
ATOM     12  C   UNL     1       1.207  -2.012   3.504  0.00  0.00    +0.005 C 
ATOM     13  C   UNL     1       2.041  -1.810   2.240  0.00  0.00    +0.037 C 
ENDROOT
BRANCH   1  19
ATOM     14  C   UNL     1       5.048   1.063   1.554  0.00  0.00    +0.045 C 
ATOM     15  C   UNL     1       4.953  -0.190   0.722  0.00  0.00    -0.036 A 
ATOM     16  C   UNL     1       6.083  -0.901   0.394  0.00  0.00    +0.011 A 
ATOM     17  C   UNL     1       5.964  -2.023  -0.364  0.00  0.00    +0.046 A 
ATOM     18  S   UNL     1       4.201  -2.108  -0.633  0.00  0.00    -0.096 S 
ATOM     19  C   UNL     1       3.736  -0.646   0.280  0.00  0.00    +0.023 A 
ENDBRANCH   1  19
BRANCH   8  20
ATOM     20  C   UNL     1       2.507   3.677  -2.945  0.00  0.00    +0.250 C 
ATOM     21  O   UNL     1       3.623   3.504  -3.401  0.00  0.00    -0.270 OA
ATOM     22  N   UNL     1       1.732   4.673  -3.419  0.00  0.00    -0.325 N 
ATOM     23  H   UNL     1       0.844   4.812  -3.056  0.00  0.00    +0.145 HD
ATOM     24  H   UNL     1       2.064   5.252  -4.123  0.00  0.00    +0.145 HD
ENDBRANCH   8  20
BRANCH   7  25
ATOM     25  N   UNL     1       3.947   1.405  -1.685  0.00  0.00    -0.356 N 
ATOM     26  H   UNL     1       4.335   0.581  -1.351  0.00  0.00    +0.142 HD
ATOM     27  H   UNL     1       4.459   1.974  -2.282  0.00  0.00    +0.142 HD
ENDBRANCH   7  25
TORSDOF 3
