REMARK  Name = ZINC20683752
REMARK  7 active torsions:
REMARK  status: ('A' for Active; 'I' for Inactive)
REMARK    1  A    between atoms: C_3  and  C_6
REMARK    2  A    between atoms: C_6  and  N_7
REMARK    3  A    between atoms: N_7  and  C_8
REMARK    4  A    between atoms: C_18  and  C_20
REMARK    5  A    between atoms: C_20  and  N_21
REMARK    6  A    between atoms: N_24  and  C_27
REMARK    7  A    between atoms: C_30  and  N_33
REMARK                            x       y       z     vdW  Elec       q    Type
REMARK                         _______ _______ _______ _____ _____    ______ ____
ROOT
ATOM      1  N   UNL     1       3.621  -0.663  -0.044  0.00  0.00    -0.268 N 
ATOM      2  C   UNL     1       4.778   0.020  -0.156  0.00  0.00    +0.204 C 
ATOM      3  O   UNL     1       4.769   1.233  -0.149  0.00  0.00    -0.277 OA
ENDROOT
BRANCH   1   4
ATOM      4  C   UNL     1       2.401   0.025  -0.020  0.00  0.00    +0.040 A 
ATOM      5  C   UNL     1       1.643   0.054   1.143  0.00  0.00    +0.027 A 
ATOM      6  C   UNL     1       0.440   0.732   1.167  0.00  0.00    +0.051 A 
ATOM      7  C   UNL     1      -0.015   1.385   0.031  0.00  0.00    +0.162 A 
ATOM      8  C   UNL     1       0.743   1.360  -1.134  0.00  0.00    +0.164 A 
ATOM      9  C   UNL     1       1.950   0.679  -1.158  0.00  0.00    +0.073 A 
ATOM     10  O   UNL     1       0.318   2.003  -2.256  0.00  0.00    -0.485 OA
ATOM     11  C   UNL     1      -1.068   2.359  -2.307  0.00  0.00    +0.270 C 
ATOM     12  C   UNL     1      -1.450   2.999  -0.966  0.00  0.00    +0.270 C 
ATOM     13  O   UNL     1      -1.208   2.042   0.071  0.00  0.00    -0.485 OA
ENDBRANCH   1   4
BRANCH   1  14
ATOM     14  C   UNL     1       3.640  -2.125   0.052  0.00  0.00    +0.156 C 
BRANCH  14  17
ATOM     15  C   UNL     1       4.267  -3.588  -3.409  0.00  0.00    +0.008 A 
ATOM     16  C   UNL     1       4.574  -3.047  -2.175  0.00  0.00    +0.013 A 
ATOM     17  C   UNL     1       3.565  -2.720  -1.331  0.00  0.00    +0.007 A 
ATOM     18  S   UNL     1       2.126  -3.183  -2.279  0.00  0.00    -0.100 S 
ATOM     19  C   UNL     1       2.965  -3.774  -3.740  0.00  0.00    +0.045 A 
ENDBRANCH  14  17
ENDBRANCH   1  14
BRANCH   2  20
ATOM     20  C   UNL     1       6.082  -0.724  -0.289  0.00  0.00    +0.019 C 
BRANCH  20  21
ATOM     21  N   UNL     1       7.186   0.239  -0.394  0.00  0.00    +0.387 N 
ATOM     22  C   UNL     1       7.097   1.009  -1.643  0.00  0.00    -0.059 C 
ATOM     23  C   UNL     1       8.216   2.053  -1.676  0.00  0.00    +0.086 C 
ATOM     24  N   UNL     1       9.516   1.377  -1.569  0.00  0.00    -0.333 N 
ATOM     25  C   UNL     1       9.606   0.607  -0.321  0.00  0.00    +0.086 C 
ATOM     26  C   UNL     1       8.487  -0.437  -0.287  0.00  0.00    -0.059 C 
ATOM     27  H   UNL     1       7.099   0.944   0.446  0.00  0.00    -0.081 HD
BRANCH  24  28
ATOM     28  C   UNL     1      10.566   2.292  -1.669  0.00  0.00    +0.030 A 
ATOM     29  C   UNL     1      11.511   2.381  -0.655  0.00  0.00    +0.025 A 
ATOM     30  C   UNL     1      12.552   3.283  -0.759  0.00  0.00    +0.034 A 
ATOM     31  C   UNL     1      12.646   4.106  -1.867  0.00  0.00    +0.126 A 
ATOM     32  C   UNL     1      11.704   4.025  -2.876  0.00  0.00    +0.034 A 
ATOM     33  C   UNL     1      10.665   3.121  -2.780  0.00  0.00    +0.025 A 
BRANCH  31  34
ATOM     34  N   UNL     1      13.759   5.076  -1.973  0.00  0.00    +0.056 N 
ATOM     35  O   UNL     1      13.844   5.802  -2.947  0.00  0.00    -0.126 OA
ATOM     36  O   UNL     1      14.590   5.149  -1.085  0.00  0.00    -0.126 OA
ENDBRANCH  31  34
ENDBRANCH  24  28
ENDBRANCH  20  21
ENDBRANCH   2  20
TORSDOF 7
