REMARK  Name = ZINC38611350
REMARK  8 active torsions:
REMARK  status: ('A' for Active; 'I' for Inactive)
REMARK    1  A    between atoms: C_1  and  C_2
REMARK    2  A    between atoms: C_2  and  C_3
REMARK    3  A    between atoms: C_3  and  C_5
REMARK    4  A    between atoms: C_3  and  C_11
REMARK    5  A    between atoms: N_13  and  C_14
REMARK    6  A    between atoms: C_22  and  C_24
REMARK    7  A    between atoms: C_24  and  O_26
REMARK    8  A    between atoms: O_26  and  C_27
REMARK                            x       y       z     vdW  Elec       q    Type
REMARK                         _______ _______ _______ _____ _____    ______ ____
ROOT
ATOM      1  C   UNL     1      -0.943  -4.052   1.445  0.00  0.00    +0.053 C 
ATOM      2  C   UNL     1      -0.504  -4.876   2.468  0.00  0.00    +0.019 A 
ATOM      3  C   UNL     1       0.102  -4.606   3.718  0.00  0.00    +0.026 A 
ATOM      4  C   UNL     1       0.435  -5.633   4.539  0.00  0.00    +0.019 A 
ATOM      5  C   UNL     1       0.194  -6.964   4.183  0.00  0.00    +0.017 A 
ATOM      6  C   UNL     1      -0.383  -7.295   3.003  0.00  0.00    +0.027 A 
ATOM      7  C   UNL     1      -0.760  -6.276   2.090  0.00  0.00    +0.045 A 
ATOM      8  N   UNL     1      -1.325  -6.336   0.901  0.00  0.00    -0.367 N 
ATOM      9  C   UNL     1      -1.502  -4.975   0.385  0.00  0.00    +0.234 C 
ATOM     10 BR   UNL     1       1.246  -5.257   6.206  0.00  0.00    -0.050 Br
ATOM     11  H   UNL     1      -1.587  -7.150   0.443  0.00  0.00    +0.161 HD
ENDROOT
BRANCH   1  14
ATOM     12  C   UNL     1      -1.222  -2.036   0.275  0.00  0.00    +0.224 C 
ATOM     13  O   UNL     1      -1.479  -2.659  -0.733  0.00  0.00    -0.275 OA
ATOM     14  N   UNL     1      -0.887  -2.691   1.405  0.00  0.00    -0.286 N 
ATOM     15  H   UNL     1      -0.606  -2.193   2.188  0.00  0.00    +0.155 HD
BRANCH  12  16
ATOM     16  C   UNL     1      -1.278  -0.530   0.266  0.00  0.00    +0.105 C 
BRANCH  16  17
ATOM     17  C   UNL     1      -1.675  -0.051  -1.107  0.00  0.00    -0.036 A 
ATOM     18  C   UNL     1      -0.893  -0.368  -2.202  0.00  0.00    +0.004 A 
ATOM     19  C   UNL     1      -1.257   0.072  -3.461  0.00  0.00    +0.000 A 
ATOM     20  C   UNL     1      -2.403   0.828  -3.625  0.00  0.00    +0.000 A 
ATOM     21  C   UNL     1      -3.185   1.144  -2.530  0.00  0.00    +0.000 A 
ATOM     22  C   UNL     1      -2.823   0.700  -1.271  0.00  0.00    +0.004 A 
ENDBRANCH  16  17
BRANCH  16  24
ATOM     23  C   UNL     1       0.011   1.557   0.738  0.00  0.00    +0.005 C 
ATOM     24  C   UNL     1       0.098   0.034   0.625  0.00  0.00    +0.014 C 
ENDBRANCH  16  24
ENDBRANCH  12  16
ENDBRANCH   1  14
BRANCH   9  25
ATOM     25  C   UNL     1      -2.964  -4.685   0.164  0.00  0.00    +0.335 C 
ATOM     26  O   UNL     1      -3.800  -5.267   0.814  0.00  0.00    -0.248 OA
BRANCH  25  27
ATOM     27  O   UNL     1      -3.338  -3.781  -0.754  0.00  0.00    -0.466 OA
ATOM     28  C   UNL     1      -4.741  -3.557  -0.911  0.00  0.00    +0.280 C 
ENDBRANCH  25  27
ENDBRANCH   9  25
TORSDOF 6
