REMARK  Name = ZINC36203200
REMARK  15 active torsions:
REMARK  status: ('A' for Active; 'I' for Inactive)
REMARK    1  A    between atoms: C_1  and  C_2
REMARK    2  A    between atoms: C_7  and  C_8
REMARK    3  A    between atoms: C_8  and  N_9
REMARK    4  A    between atoms: N_9  and  C_10
REMARK    5  A    between atoms: N_9  and  C_34
REMARK    6  A    between atoms: C_10  and  C_11
REMARK    7  A    between atoms: C_14  and  C_16
REMARK    8  A    between atoms: C_16  and  C_17
REMARK    9  A    between atoms: C_16  and  C_25
REMARK   10  A    between atoms: C_16  and  O_33
REMARK   11  A    between atoms: C_20  and  O_23
REMARK   12  A    between atoms: O_23  and  C_24
REMARK   13  A    between atoms: C_28  and  O_31
REMARK   14  A    between atoms: O_31  and  C_32
REMARK   15  A    between atoms: C_34  and  C_35
REMARK                            x       y       z     vdW  Elec       q    Type
REMARK                         _______ _______ _______ _____ _____    ______ ____
ROOT
ATOM      1  C   UNL     1      -3.334   1.333   4.903  0.00  0.00    +0.089 A 
ATOM      2  C   UNL     1      -4.226   0.475   5.431  0.00  0.00    +0.043 A 
ATOM      3  C   UNL     1      -5.453   1.169   5.529  0.00  0.00    +0.048 A 
ATOM      4  C   UNL     1      -5.238   2.410   5.056  0.00  0.00    +0.146 A 
ATOM      5  O   UNL     1      -3.952   2.505   4.683  0.00  0.00    -0.463 OA
ENDROOT
BRANCH   1   6
ATOM      6  C   UNL     1      -1.886   1.032   4.613  0.00  0.00    -0.003 C 
BRANCH   6   7
ATOM      7  N   UNL     1      -1.767   0.441   3.273  0.00  0.00    +0.389 N 
ATOM      8  H   UNL     1      -2.194   1.056   2.596  0.00  0.00    -0.081 HD
BRANCH   7   9
ATOM      9  C   UNL     1      -0.348   0.259   2.942  0.00  0.00    -0.042 C 
BRANCH   9  16
ATOM     10  C   UNL     1      -0.537   2.150   0.767  0.00  0.00    +0.044 C 
ATOM     11  C   UNL     1      -0.311   0.689   0.477  0.00  0.00    -0.049 A 
ATOM     12  C   UNL     1      -0.189   0.254  -0.830  0.00  0.00    +0.003 A 
ATOM     13  C   UNL     1       0.018  -1.087  -1.095  0.00  0.00    +0.000 A 
ATOM     14  C   UNL     1       0.103  -1.992  -0.054  0.00  0.00    +0.000 A 
ATOM     15  C   UNL     1      -0.018  -1.558   1.252  0.00  0.00    +0.002 A 
ATOM     16  C   UNL     1      -0.221  -0.216   1.518  0.00  0.00    -0.061 A 
ENDBRANCH   9  16
ENDBRANCH   7   9
BRANCH   7  17
ATOM     17  C   UNL     1      -2.447  -0.861   3.250  0.00  0.00    -0.046 C 
BRANCH  17  18
ATOM     18  C   UNL     1      -1.923  -1.730   4.394  0.00  0.00    +0.102 C 
ATOM     19  C   UNL     1      -2.694  -3.073   4.447  0.00  0.00    +0.032 C 
ATOM     20  C   UNL     1      -1.653  -3.984   5.152  0.00  0.00    +0.030 C 
ATOM     21  C   UNL     1      -0.316  -3.430   4.615  0.00  0.00    +0.160 C 
ATOM     22  O   UNL     1      -0.552  -2.091   4.159  0.00  0.00    -0.378 OA
ENDBRANCH  17  18
ENDBRANCH   7  17
ENDBRANCH   6   7
ENDBRANCH   1   6
BRANCH   4  23
ATOM     23  C   UNL     1      -6.266   3.508   4.964  0.00  0.00    +0.174 C 
BRANCH  23  24
ATOM     24  C   UNL     1      -5.586   4.846   5.106  0.00  0.00    -0.004 A 
ATOM     25  C   UNL     1      -5.850   5.641   6.206  0.00  0.00    +0.011 A 
ATOM     26  C   UNL     1      -5.228   6.867   6.338  0.00  0.00    +0.046 A 
ATOM     27  C   UNL     1      -4.337   7.301   5.367  0.00  0.00    +0.120 A 
ATOM     28  C   UNL     1      -4.074   6.501   4.264  0.00  0.00    +0.046 A 
ATOM     29  C   UNL     1      -4.694   5.273   4.139  0.00  0.00    +0.011 A 
BRANCH  27  30
ATOM     30  O   UNL     1      -3.724   8.507   5.495  0.00  0.00    -0.495 OA
ATOM     31  C   UNL     1      -2.820   8.888   4.456  0.00  0.00    +0.277 C 
ENDBRANCH  27  30
ENDBRANCH  23  24
BRANCH  23  32
ATOM     32  C   UNL     1      -6.960   3.437   3.628  0.00  0.00    -0.004 A 
ATOM     33  C   UNL     1      -6.297   2.913   2.534  0.00  0.00    +0.011 A 
ATOM     34  C   UNL     1      -6.931   2.847   1.308  0.00  0.00    +0.046 A 
ATOM     35  C   UNL     1      -8.233   3.307   1.176  0.00  0.00    +0.120 A 
ATOM     36  C   UNL     1      -8.896   3.832   2.276  0.00  0.00    +0.046 A 
ATOM     37  C   UNL     1      -8.259   3.891   3.501  0.00  0.00    +0.011 A 
BRANCH  35  38
ATOM     38  O   UNL     1      -8.859   3.243  -0.029  0.00  0.00    -0.495 OA
ATOM     39  C   UNL     1     -10.199   3.735  -0.091  0.00  0.00    +0.277 C 
ENDBRANCH  35  38
ENDBRANCH  23  32
BRANCH  23  40
ATOM     40  O   UNL     1      -7.227   3.350   6.010  0.00  0.00    -0.372 OA
ATOM     41  H   UNL     1      -7.705   2.509   5.980  0.00  0.00    +0.212 HD
ENDBRANCH  23  40
ENDBRANCH   4  23
TORSDOF 12
