REMARK  Name = ZINC09695103
REMARK  10 active torsions:
REMARK  status: ('A' for Active; 'I' for Inactive)
REMARK    1  A    between atoms: C_2  and  C_3
REMARK    2  A    between atoms: C_3  and  N_4
REMARK    3  A    between atoms: C_5  and  C_26
REMARK    4  A    between atoms: C_8  and  S_9
REMARK    5  A    between atoms: S_9  and  C_10
REMARK    6  A    between atoms: C_10  and  C_11
REMARK    7  A    between atoms: C_11  and  C_12
REMARK    8  A    between atoms: N_14  and  C_15
REMARK    9  A    between atoms: C_16  and  C_24
REMARK   10  A    between atoms: C_26  and  N_27
REMARK                            x       y       z     vdW  Elec       q    Type
REMARK                         _______ _______ _______ _____ _____    ______ ____
ROOT
ATOM      1  N   UNL     1      -4.153  11.493  -7.945  0.00  0.00    -0.301 N 
ATOM      2  C   UNL     1      -4.357  10.632  -8.988  0.00  0.00    +0.156 A 
ATOM      3  N   UNL     1      -4.023   9.441  -8.579  0.00  0.00    -0.132 NA
ATOM      4  N   UNL     1      -3.619   9.490  -7.359  0.00  0.00    -0.122 NA
ATOM      5  C   UNL     1      -3.675  10.727  -6.921  0.00  0.00    +0.192 A 
ENDROOT
BRANCH   1   6
ATOM      6  C   UNL     1      -4.394  12.938  -7.931  0.00  0.00    +0.152 C 
BRANCH   6   8
ATOM      7  C   UNL     1      -3.151  14.511  -9.325  0.00  0.00    +0.005 C 
ATOM      8  C   UNL     1      -3.133  13.661  -8.329  0.00  0.00    -0.013 C 
ENDBRANCH   6   8
ENDBRANCH   1   6
BRANCH   5   9
ATOM      9  S   UNL     1      -3.224  11.290  -5.314  0.00  0.00    -0.086 S 
BRANCH   9  10
ATOM     10  C   UNL     1      -2.713   9.724  -4.564  0.00  0.00    +0.086 C 
BRANCH  10  11
ATOM     11  C   UNL     1      -2.267   9.971  -3.121  0.00  0.00    +0.107 C 
BRANCH  11  12
ATOM     12  C   UNL     1      -1.841   8.667  -2.497  0.00  0.00    +0.218 C 
ATOM     13  O   UNL     1      -1.889   7.641  -3.143  0.00  0.00    -0.275 OA
ATOM     14  N   UNL     1      -1.406   8.640  -1.222  0.00  0.00    -0.279 N 
ATOM     15  H   UNL     1      -1.367   9.461  -0.706  0.00  0.00    +0.155 HD
BRANCH  14  16
ATOM     16  C   UNL     1      -1.013   7.440  -0.647  0.00  0.00    +0.090 A 
ATOM     17  C   UNL     1      -0.542   7.213   0.637  0.00  0.00    +0.084 A 
ATOM     18  C   UNL     1      -0.197   5.848   0.995  0.00  0.00    -0.018 A 
ATOM     19  C   UNL     1      -0.376   4.934   0.016  0.00  0.00    -0.004 A 
ATOM     20  S   UNL     1      -0.994   5.861  -1.360  0.00  0.00    -0.077 S 
ATOM     21  C   UNL     1      -0.106   3.463   0.094  0.00  0.00    +0.043 C 
ATOM     22  C   UNL     1       0.760   3.195   1.333  0.00  0.00    +0.005 C 
ATOM     23  C   UNL     1       0.153   3.929   2.532  0.00  0.00    +0.005 C 
ATOM     24  C   UNL     1       0.332   5.438   2.364  0.00  0.00    +0.037 C 
BRANCH  17  25
ATOM     25  C   UNL     1      -0.402   8.284   1.577  0.00  0.00    +0.102 C 
ATOM     26  N   UNL     1      -0.290   9.134   2.322  0.00  0.00    -0.191 NA
ENDBRANCH  17  25
ENDBRANCH  14  16
ENDBRANCH  11  12
ENDBRANCH  10  11
ENDBRANCH   9  10
ENDBRANCH   5   9
BRANCH   2  27
ATOM     27  C   UNL     1      -4.878  10.992 -10.355  0.00  0.00    +0.222 C 
BRANCH  27  28
ATOM     28  N   UNL     1      -6.329  10.797 -10.392  0.00  0.00    -0.237 N 
ATOM     29  C   UNL     1      -6.998   9.681 -10.837  0.00  0.00    +0.089 A 
ATOM     30  C   UNL     1      -6.594   8.457 -11.361  0.00  0.00    +0.029 A 
ATOM     31  C   UNL     1      -7.532   7.529 -11.719  0.00  0.00    +0.002 A 
ATOM     32  C   UNL     1      -8.886   7.797 -11.565  0.00  0.00    +0.002 A 
ATOM     33  C   UNL     1      -9.307   8.989 -11.053  0.00  0.00    +0.032 A 
ATOM     34  C   UNL     1      -8.367   9.958 -10.678  0.00  0.00    +0.113 A 
ATOM     35  N   UNL     1      -8.476  11.197 -10.158  0.00  0.00    -0.129 NA
ATOM     36  N   UNL     1      -7.310  11.709  -9.975  0.00  0.00    -0.064 NA
ENDBRANCH  27  28
ENDBRANCH   2  27
TORSDOF 10
