REMARK  Name = ZINC19234504
REMARK  9 active torsions:
REMARK  status: ('A' for Active; 'I' for Inactive)
REMARK    1  A    between atoms: C_1  and  C_2
REMARK    2  A    between atoms: C_6  and  C_8
REMARK    3  A    between atoms: C_8  and  O_32
REMARK    4  A    between atoms: N_11  and  C_14
REMARK    5  A    between atoms: C_14  and  C_15
REMARK    6  A    between atoms: C_15  and  C_17
REMARK    7  A    between atoms: C_15  and  O_31
REMARK    8  A    between atoms: N_26  and  S_27
REMARK    9  A    between atoms: S_27  and  C_30
REMARK                            x       y       z     vdW  Elec       q    Type
REMARK                         _______ _______ _______ _____ _____    ______ ____
ROOT
ATOM      1  C   UNL     1       1.379   9.722   0.341  0.00  0.00    -0.042 C 
ENDROOT
BRANCH   1   5
ATOM      2  C   UNL     1       0.986   5.845   2.100  0.00  0.00    +0.088 C 
ATOM      3  C   UNL     1      -0.158   6.853   2.236  0.00  0.00    +0.021 C 
ATOM      4  C   UNL     1       0.382   8.265   1.998  0.00  0.00    -0.076 C 
ATOM      5  N   UNL     1       0.974   8.345   0.656  0.00  0.00    +0.382 N 
ATOM      6  C   UNL     1       2.105   7.420   0.519  0.00  0.00    -0.076 C 
ATOM      7  C   UNL     1       1.617   5.982   0.712  0.00  0.00    +0.021 C 
ATOM      8  H   UNL     1       0.204   8.043  -0.068  0.00  0.00    -0.082 HD
BRANCH   2  14
ATOM      9  C   UNL     1      -0.142   1.971   5.061  0.00  0.00    +0.044 C 
ATOM     10  C   UNL     1      -0.090   2.594   3.690  0.00  0.00    -0.050 A 
ATOM     11  C   UNL     1      -0.535   1.883   2.590  0.00  0.00    +0.003 A 
ATOM     12  C   UNL     1      -0.493   2.457   1.334  0.00  0.00    +0.001 A 
ATOM     13  C   UNL     1      -0.000   3.739   1.175  0.00  0.00    +0.006 A 
ATOM     14  C   UNL     1       0.449   4.447   2.273  0.00  0.00    -0.016 A 
ATOM     15  C   UNL     1       0.407   3.874   3.530  0.00  0.00    +0.009 A 
ENDBRANCH   2  14
BRANCH   2  16
ATOM     16  O   UNL     1       1.973   6.104   3.100  0.00  0.00    -0.384 OA
ATOM     17  H   UNL     1       2.480   7.080   3.133  0.00  0.00    +0.211 HD
ENDBRANCH   2  16
ENDBRANCH   1   5
BRANCH   1  18
ATOM     18  C   UNL     1       1.522   9.877  -1.174  0.00  0.00    +0.128 C 
BRANCH  18  19
ATOM     19  C   UNL     1       1.947  11.286  -1.497  0.00  0.00    -0.021 A 
ATOM     20  C   UNL     1       1.008  12.302  -1.521  0.00  0.00    +0.008 A 
ATOM     21  C   UNL     1       1.399  13.593  -1.813  0.00  0.00    +0.025 A 
ATOM     22  C   UNL     1       2.733  13.871  -2.093  0.00  0.00    +0.054 A 
ATOM     23  C   UNL     1       3.672  12.852  -2.072  0.00  0.00    -0.024 A 
ATOM     24  C   UNL     1       3.272  11.560  -1.774  0.00  0.00    +0.011 A 
ATOM     25  C   UNL     1       5.126  13.116  -2.364  0.00  0.00    +0.038 C 
ATOM     26  C   UNL     1       5.287  14.422  -3.141  0.00  0.00    +0.025 C 
ATOM     27  C   UNL     1       4.533  15.535  -2.401  0.00  0.00    +0.131 C 
ATOM     28  N   UNL     1       3.106  15.184  -2.397  0.00  0.00    -0.207 N 
BRANCH  28  29
ATOM     29  S   UNL     1       1.958  16.325  -2.748  0.00  0.00    +0.043 S 
ATOM     30  O   UNL     1       2.668  17.362  -3.413  0.00  0.00    -0.155 OA
ATOM     31  O   UNL     1       0.928  15.610  -3.416  0.00  0.00    -0.155 OA
ATOM     32  C   UNL     1       1.370  16.907  -1.133  0.00  0.00    +0.218 C 
ENDBRANCH  28  29
ENDBRANCH  18  19
BRANCH  18  33
ATOM     33  O   UNL     1       0.268   9.603  -1.802  0.00  0.00    -0.389 OA
ATOM     34  H   UNL     1       0.175   9.664  -2.896  0.00  0.00    +0.210 HD
ENDBRANCH  18  33
ENDBRANCH   1  18
TORSDOF 7
