REMARK  Name = ZINC25022178
REMARK  9 active torsions:
REMARK  status: ('A' for Active; 'I' for Inactive)
REMARK    1  A    between atoms: C_1  and  C_2
REMARK    2  A    between atoms: C_2  and  C_3
REMARK    3  A    between atoms: C_8  and  N_9
REMARK    4  A    between atoms: C_12  and  C_15
REMARK    5  A    between atoms: C_15  and  S_16
REMARK    6  A    between atoms: S_16  and  C_17
REMARK    7  A    between atoms: N_21  and  C_22
REMARK    8  A    between atoms: C_25  and  O_28
REMARK    9  A    between atoms: C_29  and  C_31
REMARK                            x       y       z     vdW  Elec       q    Type
REMARK                         _______ _______ _______ _____ _____    ______ ____
ROOT
ATOM      1  N   UNL     1       0.098   0.146  -0.005  0.00  0.00    -0.219 N 
ATOM      2  C   UNL     1      -1.165  -0.427  -0.120  0.00  0.00    +0.172 A 
ATOM      3  N   UNL     1      -2.348   0.149  -0.030  0.00  0.00    -0.228 NA
ATOM      4  C   UNL     1      -3.459  -0.548  -0.166  0.00  0.00    +0.061 A 
ATOM      5  C   UNL     1      -3.362  -1.879  -0.403  0.00  0.00    +0.072 A 
ATOM      6  S   UNL     1      -1.587  -2.083  -0.428  0.00  0.00    -0.060 S 
ATOM      7  C   UNL     1       0.218   1.467   0.232  0.00  0.00    +0.223 C 
ATOM      8  O   UNL     1      -0.769   2.171   0.260  0.00  0.00    -0.275 OA
ATOM      9  C   UNL     1       1.581   2.071   0.456  0.00  0.00    +0.110 C 
ENDROOT
BRANCH   1  15
ATOM     10  C   UNL     1       1.871  -1.154   0.996  0.00  0.00    -0.026 A 
ATOM     11  C   UNL     1       2.998  -1.943   0.864  0.00  0.00    +0.005 A 
ATOM     12  C   UNL     1       3.505  -2.222  -0.391  0.00  0.00    +0.000 A 
ATOM     13  C   UNL     1       2.885  -1.716  -1.519  0.00  0.00    +0.002 A 
ATOM     14  C   UNL     1       1.755  -0.931  -1.394  0.00  0.00    +0.024 A 
ATOM     15  C   UNL     1       1.243  -0.650  -0.135  0.00  0.00    +0.046 A 
BRANCH  10  17
ATOM     16  C   UNL     1       0.220  -1.848   2.711  0.00  0.00    +0.009 C 
ATOM     17  C   UNL     1       1.323  -0.845   2.365  0.00  0.00    +0.033 C 
ENDBRANCH  10  17
ENDBRANCH   1  15
BRANCH   4  18
ATOM     18  C   UNL     1      -4.806   0.121  -0.062  0.00  0.00    +0.133 C 
BRANCH  18  19
ATOM     19  S   UNL     1      -5.326   0.688  -1.700  0.00  0.00    -0.078 S 
BRANCH  19  20
ATOM     20  C   UNL     1      -6.882   1.408  -1.294  0.00  0.00    +0.214 A 
ATOM     21  N   UNL     1      -7.429   1.468  -0.098  0.00  0.00    -0.101 NA
ATOM     22  N   UNL     1      -8.567   2.059  -0.153  0.00  0.00    -0.022 NA
ATOM     23  N   UNL     1      -8.831   2.416  -1.363  0.00  0.00    -0.038 NA
ATOM     24  N   UNL     1      -7.741   2.011  -2.154  0.00  0.00    -0.187 N 
BRANCH  24  25
ATOM     25  C   UNL     1      -7.577   2.191  -3.536  0.00  0.00    +0.070 A 
ATOM     26  C   UNL     1      -6.315   2.435  -4.060  0.00  0.00    +0.031 A 
ATOM     27  C   UNL     1      -6.154   2.606  -5.421  0.00  0.00    +0.047 A 
ATOM     28  C   UNL     1      -7.255   2.545  -6.263  0.00  0.00    +0.117 A 
ATOM     29  C   UNL     1      -8.517   2.306  -5.739  0.00  0.00    +0.047 A 
ATOM     30  C   UNL     1      -8.678   2.129  -4.379  0.00  0.00    +0.031 A 
BRANCH  28  31
ATOM     31  O   UNL     1      -7.097   2.719  -7.602  0.00  0.00    -0.507 OA
ATOM     32  H   UNL     1      -7.970   2.670  -8.270  0.00  0.00    +0.292 HD
ENDBRANCH  28  31
ENDBRANCH  24  25
ENDBRANCH  19  20
ENDBRANCH  18  19
ENDBRANCH   4  18
TORSDOF 7
