REMARK  Name = ZINC63375894
REMARK  8 active torsions:
REMARK  status: ('A' for Active; 'I' for Inactive)
REMARK    1  A    between atoms: C_1  and  C_2
REMARK    2  A    between atoms: C_2  and  C_3
REMARK    3  A    between atoms: C_3  and  C_4
REMARK    4  A    between atoms: C_4  and  N_5
REMARK    5  A    between atoms: C_6  and  C_8
REMARK    6  A    between atoms: C_11  and  N_14
REMARK    7  A    between atoms: C_30  and  C_35
REMARK    8  A    between atoms: C_38  and  C_41
REMARK                            x       y       z     vdW  Elec       q    Type
REMARK                         _______ _______ _______ _____ _____    ______ ____
ROOT
ATOM      1  N   UNL     1       4.207  -5.642  -7.336  0.00  0.00    -0.193 N 
ATOM      2  C   UNL     1       4.470  -6.939  -7.599  0.00  0.00    +0.248 C 
ATOM      3  O   UNL     1       4.218  -7.894  -6.896  0.00  0.00    -0.273 OA
ATOM      4  C   UNL     1       5.143  -6.954  -8.955  0.00  0.00    +0.169 C 
ATOM      5  C   UNL     1       6.543  -7.580  -8.837  0.00  0.00    +0.065 C 
ATOM      6  C   UNL     1       7.356  -7.032  -9.985  0.00  0.00    -0.034 C 
ATOM      7  C   UNL     1       8.650  -7.145 -10.263  0.00  0.00    -0.001 A 
ATOM      8  C   UNL     1       9.727  -7.909  -9.612  0.00  0.00    +0.010 A 
ATOM      9  C   UNL     1      10.965  -7.783 -10.159  0.00  0.00    +0.001 A 
ATOM     10  C   UNL     1      11.237  -6.982 -11.272  0.00  0.00    +0.002 A 
ATOM     11  C   UNL     1      10.307  -6.251 -11.936  0.00  0.00    +0.026 A 
ATOM     12  C   UNL     1       8.965  -6.307 -11.460  0.00  0.00    +0.043 A 
ATOM     13  N   UNL     1       7.888  -5.732 -11.907  0.00  0.00    -0.375 N 
ATOM     14  C   UNL     1       6.755  -6.171 -11.090  0.00  0.00    +0.131 C 
ATOM     15  C   UNL     1       6.059  -4.985 -10.409  0.00  0.00    +0.135 C 
ATOM     16  N   UNL     1       5.286  -5.519  -9.276  0.00  0.00    -0.264 N 
ATOM     17  C   UNL     1       4.647  -4.840  -8.315  0.00  0.00    +0.317 C 
ATOM     18  O   UNL     1       4.487  -3.635  -8.328  0.00  0.00    -0.252 OA
ATOM     19  H   UNL     1       7.843  -5.116 -12.655  0.00  0.00    +0.160 HD
ENDROOT
BRANCH  15  20
ATOM     20  C   UNL     1       7.088  -3.993  -9.931  0.00  0.00    -0.025 A 
ATOM     21  C   UNL     1       7.773  -4.222  -8.753  0.00  0.00    +0.006 A 
ATOM     22  C   UNL     1       8.717  -3.312  -8.314  0.00  0.00    +0.004 A 
ATOM     23  C   UNL     1       8.975  -2.172  -9.054  0.00  0.00    -0.050 A 
ATOM     24  C   UNL     1       8.289  -1.944 -10.232  0.00  0.00    +0.004 A 
ATOM     25  C   UNL     1       7.349  -2.856 -10.673  0.00  0.00    +0.006 A 
ATOM     26  C   UNL     1      10.002  -1.180  -8.575  0.00  0.00    +0.044 C 
ENDBRANCH  15  20
BRANCH   1  30
ATOM     27  C   UNL     1       2.255  -4.298  -3.907  0.00  0.00    +0.037 A 
ATOM     28  C   UNL     1       2.792  -3.380  -4.813  0.00  0.00    +0.015 A 
ATOM     29  C   UNL     1       3.436  -3.827  -5.944  0.00  0.00    +0.025 A 
ATOM     30  C   UNL     1       3.553  -5.192  -6.186  0.00  0.00    +0.045 A 
ATOM     31  C   UNL     1       3.019  -6.109  -5.287  0.00  0.00    +0.025 A 
ATOM     32  C   UNL     1       2.379  -5.668  -4.151  0.00  0.00    +0.015 A 
BRANCH  27  34
ATOM     33  N   UNL     1       1.445  -2.500  -2.459  0.00  0.00    -0.311 N 
ATOM     34  C   UNL     1       1.564  -3.822  -2.692  0.00  0.00    +0.244 C 
ATOM     35  O   UNL     1       1.102  -4.622  -1.903  0.00  0.00    -0.270 OA
ATOM     36  H   UNL     1       1.814  -1.861  -3.089  0.00  0.00    +0.149 HD
BRANCH  33  37
ATOM     37  C   UNL     1       0.759  -2.027  -1.254  0.00  0.00    +0.104 C 
BRANCH  37  38
ATOM     38  C   UNL     1       0.764  -0.497  -1.231  0.00  0.00    +0.018 C 
BRANCH  38  40
ATOM     39  C   UNL     1       0.052   1.526   0.051  0.00  0.00    +0.004 C 
ATOM     40  C   UNL     1       0.048  -0.004   0.028  0.00  0.00    -0.002 C 
ENDBRANCH  38  40
ENDBRANCH  37  38
ENDBRANCH  33  37
ENDBRANCH  27  34
ENDBRANCH   1  30
TORSDOF 6
