REMARK  Name = ZINC36252088
REMARK  4 active torsions:
REMARK  status: ('A' for Active; 'I' for Inactive)
REMARK    1  A    between atoms: C_1  and  C_2
REMARK    2  A    between atoms: C_2  and  C_3
REMARK    3  A    between atoms: C_2  and  C_4
REMARK    4  A    between atoms: C_10  and  N_14
REMARK                            x       y       z     vdW  Elec       q    Type
REMARK                         _______ _______ _______ _____ _____    ______ ____
ROOT
ATOM      1  C   UNL     1      -1.412  -0.526   0.013  0.00  0.00    +0.140 A 
ATOM      2  N   UNL     1      -2.313  -0.299   0.934  0.00  0.00    -0.133 NA
ATOM      3  N   UNL     1      -3.415  -0.893   0.635  0.00  0.00    -0.128 NA
ATOM      4  C   UNL     1      -3.270  -1.540  -0.511  0.00  0.00    +0.175 A 
ATOM      5  N   UNL     1      -1.985  -1.313  -0.936  0.00  0.00    -0.283 N 
ATOM      6  C   UNL     1      -1.537  -1.854  -2.108  0.00  0.00    +0.117 A 
ATOM      7  C   UNL     1      -2.357  -2.620  -2.869  0.00  0.00    +0.043 A 
ATOM      8  C   UNL     1      -3.683  -2.866  -2.456  0.00  0.00    +0.043 A 
ATOM      9  C   UNL     1      -4.134  -2.338  -1.287  0.00  0.00    +0.064 A 
ATOM     10 BR   UNL     1      -5.910  -2.655  -0.719  0.00  0.00    -0.046 Br
ENDROOT
BRANCH   1  12
ATOM     11  C   UNL     1      -0.019   1.526   0.010  0.00  0.00    +0.015 C 
ATOM     12  C   UNL     1       0.002  -0.004   0.002  0.00  0.00    +0.051 C 
ATOM     13  C   UNL     1       0.742  -0.511   1.242  0.00  0.00    +0.015 C 
ENDBRANCH   1  12
BRANCH   7  14
ATOM     14  N   UNL     1      -1.886  -3.169  -4.068  0.00  0.00    -0.357 N 
ATOM     15  H   UNL     1      -0.974  -3.001  -4.353  0.00  0.00    +0.142 HD
ATOM     16  H   UNL     1      -2.471  -3.718  -4.614  0.00  0.00    +0.142 HD
ENDBRANCH   7  14
TORSDOF 2
