REMARK  Name = ZINC59265585
REMARK  10 active torsions:
REMARK  status: ('A' for Active; 'I' for Inactive)
REMARK    1  A    between atoms: C_2  and  C_3
REMARK    2  A    between atoms: C_3  and  N_4
REMARK    3  A    between atoms: C_5  and  C_22
REMARK    4  A    between atoms: C_8  and  S_9
REMARK    5  A    between atoms: S_9  and  C_10
REMARK    6  A    between atoms: C_10  and  C_11
REMARK    7  A    between atoms: C_11  and  C_12
REMARK    8  A    between atoms: N_14  and  C_15
REMARK    9  A    between atoms: C_22  and  N_23
REMARK   10  A    between atoms: N_23  and  C_24
REMARK                            x       y       z     vdW  Elec       q    Type
REMARK                         _______ _______ _______ _____ _____    ______ ____
ROOT
ATOM      1  N   UNL     1       1.322  -1.662   1.129  0.00  0.00    -0.301 N 
ATOM      2  C   UNL     1       1.787  -1.412   2.390  0.00  0.00    +0.152 A 
ATOM      3  N   UNL     1       1.660  -2.513   3.075  0.00  0.00    -0.132 NA
ATOM      4  N   UNL     1       1.150  -3.435   2.339  0.00  0.00    -0.122 NA
ATOM      5  C   UNL     1       0.917  -2.966   1.135  0.00  0.00    +0.192 A 
ENDROOT
BRANCH   1   6
ATOM      6  C   UNL     1       1.263  -0.723   0.005  0.00  0.00    +0.152 C 
BRANCH   6   8
ATOM      7  C   UNL     1      -0.084   1.313   0.037  0.00  0.00    +0.005 C 
ATOM      8  C   UNL     1      -0.057   0.004   0.026  0.00  0.00    -0.013 C 
ENDBRANCH   6   8
ENDBRANCH   1   6
BRANCH   5   9
ATOM      9  S   UNL     1       0.219  -3.853  -0.218  0.00  0.00    -0.086 S 
BRANCH   9  10
ATOM     10  C   UNL     1      -0.087  -5.510   0.454  0.00  0.00    +0.086 C 
BRANCH  10  11
ATOM     11  C   UNL     1      -0.702  -6.395  -0.631  0.00  0.00    +0.107 C 
BRANCH  11  12
ATOM     12  C   UNL     1      -0.957  -7.771  -0.073  0.00  0.00    +0.218 C 
ATOM     13  O   UNL     1      -0.674  -8.020   1.080  0.00  0.00    -0.275 OA
ATOM     14  N   UNL     1      -1.498  -8.726  -0.855  0.00  0.00    -0.285 N 
ATOM     15  H   UNL     1      -1.784  -8.511  -1.756  0.00  0.00    +0.155 HD
BRANCH  14  16
ATOM     16  C   UNL     1      -1.648 -10.029  -0.366  0.00  0.00    +0.047 A 
ATOM     17  C   UNL     1      -1.947 -10.240   0.974  0.00  0.00    +0.024 A 
ATOM     18  C   UNL     1      -2.094 -11.527   1.453  0.00  0.00    +0.002 A 
ATOM     19  C   UNL     1      -1.944 -12.605   0.601  0.00  0.00    +0.001 A 
ATOM     20  C   UNL     1      -1.646 -12.400  -0.733  0.00  0.00    +0.017 A 
ATOM     21  C   UNL     1      -1.503 -11.114  -1.221  0.00  0.00    +0.039 A 
ATOM     22 BR   UNL     1      -1.103 -10.834  -3.048  0.00  0.00    -0.048 Br
ENDBRANCH  14  16
ENDBRANCH  11  12
ENDBRANCH  10  11
ENDBRANCH   9  10
ENDBRANCH   5   9
BRANCH   2  23
ATOM     23  C   UNL     1       2.344  -0.106   2.894  0.00  0.00    +0.178 C 
BRANCH  23  24
ATOM     24  N   UNL     1       1.258   0.707   3.448  0.00  0.00    -0.336 N 
ATOM     25  H   UNL     1       0.349   0.368   3.445  0.00  0.00    +0.147 HD
BRANCH  24  26
ATOM     26  C   UNL     1       1.531   1.966   3.978  0.00  0.00    +0.035 A 
ATOM     27  C   UNL     1       2.820   2.455   3.980  0.00  0.00    +0.023 A 
ATOM     28  C   UNL     1       3.103   3.712   4.506  0.00  0.00    +0.002 A 
ATOM     29  C   UNL     1       2.119   4.491   5.034  0.00  0.00    +0.008 A 
ATOM     30  C   UNL     1       0.792   4.029   5.051  0.00  0.00    -0.016 A 
ATOM     31  C   UNL     1       0.490   2.754   4.513  0.00  0.00    +0.003 A 
ATOM     32  C   UNL     1      -0.837   2.297   4.527  0.00  0.00    +0.010 A 
ATOM     33  C   UNL     1      -1.816   3.084   5.051  0.00  0.00    +0.001 A 
ATOM     34  C   UNL     1      -1.521   4.341   5.575  0.00  0.00    +0.001 A 
ATOM     35  C   UNL     1      -0.244   4.812   5.590  0.00  0.00    +0.008 A 
ENDBRANCH  24  26
ENDBRANCH  23  24
ENDBRANCH   2  23
TORSDOF 10
