REMARK  Name = ZINC38974748
REMARK  6 active torsions:
REMARK  status: ('A' for Active; 'I' for Inactive)
REMARK    1  A    between atoms: C_1  and  O_2
REMARK    2  A    between atoms: O_2  and  C_3
REMARK    3  A    between atoms: C_5  and  C_11
REMARK    4  A    between atoms: C_8  and  O_9
REMARK    5  A    between atoms: N_12  and  N_13
REMARK    6  A    between atoms: C_14  and  C_20
REMARK                            x       y       z     vdW  Elec       q    Type
REMARK                         _______ _______ _______ _____ _____    ______ ____
ROOT
ATOM      1  N   UNL     1       3.723   0.470   6.147  0.00  0.00    -0.171 N 
ATOM      2  C   UNL     1       4.539  -0.021   7.273  0.00  0.00    +0.280 C 
ATOM      3  N   UNL     1       4.992   1.208   7.943  0.00  0.00    -0.188 NA
ATOM      4  N   UNL     1       4.530   2.172   7.327  0.00  0.00    -0.219 N 
ATOM      5  C   UNL     1       3.776   1.816   6.253  0.00  0.00    +0.174 C 
ATOM      6  S   UNL     1       3.002   2.914   5.191  0.00  0.00    -0.015 S 
ATOM      7  H   UNL     1       4.692   3.094   7.582  0.00  0.00    +0.176 HD
ENDROOT
BRANCH   2   8
ATOM      8  C   UNL     1       5.715  -0.816   6.767  0.00  0.00    +0.062 A 
ATOM      9  C   UNL     1       5.610  -1.508   5.575  0.00  0.00    +0.025 A 
ATOM     10  C   UNL     1       6.698  -2.236   5.119  0.00  0.00    +0.003 A 
ATOM     11  C   UNL     1       7.857  -2.239   5.881  0.00  0.00    +0.017 A 
ATOM     12  C   UNL     1       7.888  -1.523   7.062  0.00  0.00    +0.083 A 
ATOM     13  N   UNL     1       6.835  -0.837   7.463  0.00  0.00    -0.361 N 
ATOM     14  H   UNL     1       6.884  -0.340   8.294  0.00  0.00    +0.165 HD
ENDBRANCH   2   8
BRANCH   1  16
ATOM     15  C   UNL     1       2.282   0.298   4.313  0.00  0.00    +0.138 C 
ATOM     16  N   UNL     1       3.049  -0.289   5.181  0.00  0.00    -0.183 NA
BRANCH  15  19
ATOM     17  C   UNL     1       0.251  -0.594   1.284  0.00  0.00    +0.163 A 
ATOM     18  C   UNL     1       0.833   0.145   2.297  0.00  0.00    +0.059 A 
ATOM     19  C   UNL     1       1.659  -0.485   3.232  0.00  0.00    -0.001 A 
ATOM     20  C   UNL     1       1.892  -1.860   3.139  0.00  0.00    +0.028 A 
ATOM     21  C   UNL     1       1.308  -2.591   2.125  0.00  0.00    +0.063 A 
ATOM     22  C   UNL     1       0.483  -1.965   1.200  0.00  0.00    +0.173 A 
ATOM     23 BR   UNL     1       1.624  -4.451   2.000  0.00  0.00    -0.046 Br
BRANCH  17  25
ATOM     24  C   UNL     1      -0.747   1.425   0.519  0.00  0.00    +0.277 C 
ATOM     25  O   UNL     1      -0.553   0.016   0.373  0.00  0.00    -0.491 OA
ENDBRANCH  17  25
BRANCH  22  26
ATOM     26  O   UNL     1      -0.094  -2.691   0.206  0.00  0.00    -0.503 OA
ATOM     27  H   UNL     1       0.439  -2.750  -0.599  0.00  0.00    +0.292 HD
ENDBRANCH  22  26
ENDBRANCH  15  19
ENDBRANCH   1  16
TORSDOF 5
