REMARK  Name = ZINC21114021
REMARK  5 active torsions:
REMARK  status: ('A' for Active; 'I' for Inactive)
REMARK    1  A    between atoms: C_3  and  N_8
REMARK    2  A    between atoms: C_9  and  C_11
REMARK    3  A    between atoms: N_14  and  S_17
REMARK    4  A    between atoms: S_17  and  C_20
REMARK    5  A    between atoms: C_30  and  C_32
REMARK                            x       y       z     vdW  Elec       q    Type
REMARK                         _______ _______ _______ _____ _____    ______ ____
ROOT
ATOM      1  S   UNL     1       3.681   5.147   2.461  0.00  0.00    +0.061 S 
ATOM      2  O   UNL     1       4.892   4.621   2.988  0.00  0.00    -0.153 OA
ATOM      3  O   UNL     1       3.623   6.395   1.784  0.00  0.00    -0.153 OA
ENDROOT
BRANCH   1   4
ATOM      4  C   UNL     1       2.549   5.252   3.808  0.00  0.00    +0.106 A 
ATOM      5  C   UNL     1       1.499   6.150   3.758  0.00  0.00    +0.030 A 
ATOM      6  C   UNL     1       0.611   6.229   4.812  0.00  0.00    +0.026 A 
ATOM      7  C   UNL     1       0.778   5.414   5.926  0.00  0.00    +0.040 A 
ATOM      8  C   UNL     1       1.831   4.515   5.976  0.00  0.00    -0.024 A 
ATOM      9  C   UNL     1       2.716   4.440   4.913  0.00  0.00    +0.034 A 
ATOM     10  C   UNL     1       2.037   3.609   7.161  0.00  0.00    +0.038 C 
ATOM     11  C   UNL     1       1.319   4.164   8.390  0.00  0.00    +0.024 C 
ATOM     12  C   UNL     1      -0.138   4.468   8.018  0.00  0.00    +0.114 C 
ATOM     13  N   UNL     1      -0.130   5.517   6.989  0.00  0.00    -0.271 N 
ATOM     14  C   UNL     1      -0.979   6.560   7.066  0.00  0.00    +0.223 C 
ATOM     15  O   UNL     1      -1.010   7.384   6.177  0.00  0.00    -0.275 OA
BRANCH  14  16
ATOM     16  C   UNL     1      -1.891   6.703   8.258  0.00  0.00    +0.076 C 
ATOM     17  C   UNL     1      -3.227   5.958   8.104  0.00  0.00    +0.013 C 
ATOM     18  C   UNL     1      -3.891   7.173   8.774  0.00  0.00    +0.001 C 
ATOM     19  C   UNL     1      -2.707   8.006   8.256  0.00  0.00    +0.013 C 
ENDBRANCH  14  16
ENDBRANCH   1   4
BRANCH   1  23
ATOM     20  C   UNL     1       1.316   2.055   0.398  0.00  0.00    +0.078 C 
ATOM     21  C   UNL     1       2.191   1.752   1.617  0.00  0.00    +0.030 C 
ATOM     22  C   UNL     1       3.466   2.598   1.548  0.00  0.00    +0.110 C 
ATOM     23  N   UNL     1       3.089   4.011   1.411  0.00  0.00    -0.177 NA
ATOM     24  C   UNL     1       2.178   4.398   0.326  0.00  0.00    +0.110 C 
ATOM     25  C   UNL     1       0.917   3.532   0.408  0.00  0.00    +0.030 C 
BRANCH  20  27
ATOM     26  N   UNL     1       0.183  -0.144   0.444  0.00  0.00    -0.285 N 
ATOM     27  C   UNL     1       0.076   1.200   0.445  0.00  0.00    +0.220 C 
ATOM     28  O   UNL     1      -1.019   1.720   0.478  0.00  0.00    -0.275 OA
ATOM     29  H   UNL     1       1.171  -0.616   0.335  0.00  0.00    +0.155 HD
BRANCH  26  32
ATOM     30  C   UNL     1      -3.291  -1.313   0.157  0.00  0.00    +0.003 A 
ATOM     31  C   UNL     1      -2.163  -0.528   0.020  0.00  0.00    +0.023 A 
ATOM     32  C   UNL     1      -0.961  -0.937   0.582  0.00  0.00    +0.035 A 
ATOM     33  C   UNL     1      -0.895  -2.138   1.276  0.00  0.00    +0.043 A 
ATOM     34  C   UNL     1      -2.028  -2.918   1.413  0.00  0.00    +0.043 A 
ATOM     35  C   UNL     1      -3.225  -2.506   0.852  0.00  0.00    +0.020 A 
ATOM     36 CL   UNL     1      -1.949  -4.417   2.286  0.00  0.00    -0.083 Cl
ENDBRANCH  26  32
ENDBRANCH  20  27
ENDBRANCH   1  23
TORSDOF 5
