REMARK  Name = ZINC22323087
REMARK  13 active torsions:
REMARK  status: ('A' for Active; 'I' for Inactive)
REMARK    1  A    between atoms: C_1  and  C_2
REMARK    2  A    between atoms: C_5  and  S_8
REMARK    3  A    between atoms: S_8  and  N_11
REMARK    4  A    between atoms: N_11  and  C_12
REMARK    5  A    between atoms: N_11  and  C_29
REMARK    6  A    between atoms: C_12  and  C_13
REMARK    7  A    between atoms: N_15  and  C_16
REMARK    8  A    between atoms: C_19  and  C_27
REMARK    9  A    between atoms: C_19  and  C_28
REMARK   10  A    between atoms: C_32  and  O_37
REMARK   11  A    between atoms: C_33  and  O_35
REMARK   12  A    between atoms: O_35  and  C_36
REMARK   13  A    between atoms: O_37  and  C_38
REMARK                            x       y       z     vdW  Elec       q    Type
REMARK                         _______ _______ _______ _____ _____    ______ ____
ROOT
ATOM      1  N   UNL     1      -0.955   1.656  -1.418  0.00  0.00    -0.194 N 
ENDROOT
BRANCH   1   2
ATOM      2  C   UNL     1      -0.773   2.918  -1.995  0.00  0.00    +0.055 A 
ATOM      3  C   UNL     1       0.487   3.308  -2.428  0.00  0.00    +0.028 A 
ATOM      4  C   UNL     1       0.668   4.554  -2.998  0.00  0.00    +0.051 A 
ATOM      5  C   UNL     1      -0.407   5.416  -3.138  0.00  0.00    +0.162 A 
ATOM      6  C   UNL     1      -1.671   5.028  -2.705  0.00  0.00    +0.163 A 
ATOM      7  C   UNL     1      -1.854   3.777  -2.138  0.00  0.00    +0.074 A 
BRANCH   6   8
ATOM      8  O   UNL     1      -2.727   5.874  -2.843  0.00  0.00    -0.491 OA
ATOM      9  C   UNL     1      -4.015   5.367  -2.486  0.00  0.00    +0.277 C 
ENDBRANCH   6   8
BRANCH   5  10
ATOM     10  O   UNL     1      -0.227   6.643  -3.699  0.00  0.00    -0.491 OA
ATOM     11  C   UNL     1       1.098   6.975  -4.121  0.00  0.00    +0.277 C 
ENDBRANCH   5  10
ENDBRANCH   1   2
BRANCH   1  12
ATOM     12  S   UNL     1      -0.130   1.248  -0.042  0.00  0.00    +0.075 S 
ATOM     13  O   UNL     1      -0.161  -0.170   0.045  0.00  0.00    -0.150 OA
ATOM     14  O   UNL     1       1.085   1.983  -0.063  0.00  0.00    -0.150 OA
BRANCH  12  19
ATOM     15  C   UNL     1      -3.325   3.331   4.634  0.00  0.00    +0.044 C 
ATOM     16  C   UNL     1      -2.526   2.810   3.467  0.00  0.00    -0.050 A 
ATOM     17  C   UNL     1      -2.760   1.537   2.983  0.00  0.00    +0.005 A 
ATOM     18  C   UNL     1      -2.028   1.060   1.912  0.00  0.00    +0.029 A 
ATOM     19  C   UNL     1      -1.063   1.856   1.324  0.00  0.00    +0.109 A 
ATOM     20  C   UNL     1      -0.826   3.128   1.811  0.00  0.00    +0.029 A 
ATOM     21  C   UNL     1      -1.561   3.607   2.880  0.00  0.00    +0.005 A 
ENDBRANCH  12  19
ENDBRANCH   1  12
BRANCH   1  22
ATOM     22  C   UNL     1      -1.875   0.696  -2.033  0.00  0.00    +0.227 C 
BRANCH  22  23
ATOM     23  C   UNL     1      -1.157  -0.066  -3.117  0.00  0.00    +0.233 C 
ATOM     24  O   UNL     1       0.032   0.104  -3.291  0.00  0.00    -0.274 OA
ATOM     25  N   UNL     1      -1.834  -0.935  -3.892  0.00  0.00    -0.307 N 
ATOM     26  H   UNL     1      -2.925  -1.032  -3.787  0.00  0.00    +0.149 HD
BRANCH  25  27
ATOM     27  C   UNL     1      -1.118  -1.752  -4.876  0.00  0.00    +0.110 C 
ATOM     28  C   UNL     1      -2.032  -2.025  -6.073  0.00  0.00    +0.074 C 
ATOM     29  C   UNL     1      -1.378  -3.109  -6.940  0.00  0.00    +0.107 C 
ATOM     30  O   UNL     1      -1.324  -4.319  -6.184  0.00  0.00    -0.486 OA
ATOM     31  C   UNL     1      -0.829  -4.257  -4.920  0.00  0.00    +0.126 A 
ATOM     32  C   UNL     1      -0.709  -3.057  -4.242  0.00  0.00    +0.015 A 
ATOM     33  C   UNL     1      -0.204  -3.042  -2.953  0.00  0.00    +0.009 A 
ATOM     34  C   UNL     1       0.185  -4.219  -2.342  0.00  0.00    +0.001 A 
ATOM     35  C   UNL     1       0.069  -5.419  -3.019  0.00  0.00    +0.004 A 
ATOM     36  C   UNL     1      -0.435  -5.440  -4.303  0.00  0.00    +0.046 A 
ATOM     37  C   UNL     1      -2.210  -3.328  -8.205  0.00  0.00    +0.055 C 
ATOM     38  C   UNL     1       0.039  -2.677  -7.322  0.00  0.00    +0.055 C 
ENDBRANCH  25  27
ENDBRANCH  22  23
ENDBRANCH   1  22
TORSDOF 8
