REMARK  Name = ZINC45511135
REMARK  6 active torsions:
REMARK  status: ('A' for Active; 'I' for Inactive)
REMARK    1  A    between atoms: C_1  and  C_2
REMARK    2  A    between atoms: C_2  and  C_4
REMARK    3  A    between atoms: C_2  and  N_20
REMARK    4  A    between atoms: N_9  and  C_10
REMARK    5  A    between atoms: N_23  and  C_26
REMARK    6  A    between atoms: C_26  and  C_27
REMARK                            x       y       z     vdW  Elec       q    Type
REMARK                         _______ _______ _______ _____ _____    ______ ____
ROOT
ATOM      1  C   UNL     1      -0.019   1.526   0.010  0.00  0.00    +0.034 C 
ATOM      2  C   UNL     1       0.002  -0.004   0.002  0.00  0.00    +0.140 C 
ENDROOT
BRANCH   2   3
ATOM      3  C   UNL     1       0.731  -0.503   1.223  0.00  0.00    +0.237 C 
ATOM      4  O   UNL     1       1.725  -1.186   1.099  0.00  0.00    -0.274 OA
ATOM      5  N   UNL     1       0.278  -0.191   2.453  0.00  0.00    -0.239 N 
ATOM      6  C   UNL     1       0.930  -0.637   3.545  0.00  0.00    +0.306 C 
ATOM      7  O   UNL     1       1.926  -1.322   3.420  0.00  0.00    -0.252 OA
ATOM      8  N   UNL     1       0.476  -0.324   4.775  0.00  0.00    -0.294 N 
ATOM      9  H   UNL     1      -0.517   0.356   2.553  0.00  0.00    +0.159 HD
ATOM     10  H   UNL     1      -0.319   0.222   4.875  0.00  0.00    +0.151 HD
BRANCH   8  11
ATOM     11  C   UNL     1       1.185  -0.810   5.962  0.00  0.00    +0.037 C 
ATOM     12  C   UNL     1       1.206  -2.340   5.954  0.00  0.00    +0.029 C 
ATOM     13  C   UNL     1       1.946  -2.846   7.193  0.00  0.00    -0.008 C 
ATOM     14  C   UNL     1       1.230  -2.353   8.452  0.00  0.00    +0.007 C 
ATOM     15  C   UNL     1       1.209  -0.823   8.460  0.00  0.00    -0.008 C 
ATOM     16  C   UNL     1       0.469  -0.316   7.221  0.00  0.00    +0.029 C 
ATOM     17  C   UNL     1       2.644  -0.293   8.450  0.00  0.00    +0.007 C 
ATOM     18  C   UNL     1       3.361  -0.787   7.191  0.00  0.00    -0.008 C 
ATOM     19  C   UNL     1       3.381  -2.317   7.182  0.00  0.00    +0.007 C 
ATOM     20  C   UNL     1       2.620  -0.280   5.951  0.00  0.00    +0.029 C 
ENDBRANCH   8  11
ENDBRANCH   2   3
BRANCH   2  21
ATOM     21  N   UNL     1       0.690  -0.478  -1.207  0.00  0.00    -0.295 NA
ATOM     22  C   UNL     1       2.065   0.038  -1.267  0.00  0.00    +0.066 C 
ATOM     23  C   UNL     1       2.764  -0.525  -2.506  0.00  0.00    -0.063 C 
ATOM     24  N   UNL     1       2.021  -0.129  -3.710  0.00  0.00    +0.387 N 
ATOM     25  C   UNL     1       0.658  -0.672  -3.647  0.00  0.00    -0.063 C 
ATOM     26  C   UNL     1      -0.059  -0.110  -2.417  0.00  0.00    +0.066 C 
ATOM     27  H   UNL     1       1.980   0.877  -3.763  0.00  0.00    -0.081 HD
BRANCH  24  28
ATOM     28  C   UNL     1       2.703  -0.655  -4.900  0.00  0.00    +0.019 C 
BRANCH  28  29
ATOM     29  C   UNL     1       2.012  -0.147  -6.139  0.00  0.00    +0.199 C 
ATOM     30  O   UNL     1       1.047   0.581  -6.041  0.00  0.00    -0.278 OA
ATOM     31  N   UNL     1       2.466  -0.502  -7.358  0.00  0.00    -0.303 N 
ATOM     32  C   UNL     1       3.615  -1.375  -7.441  0.00  0.00    +0.107 C 
ATOM     33  C   UNL     1       4.912  -0.529  -7.462  0.00  0.00    +0.019 C 
ATOM     34  C   UNL     1       5.043   0.174  -8.748  0.00  0.00    +0.002 C 
ATOM     35  C   UNL     1       3.930   1.179  -9.031  0.00  0.00    +0.002 C 
ATOM     36  C   UNL     1       2.755   0.463  -9.649  0.00  0.00    +0.019 C 
ATOM     37  C   UNL     1       1.767   0.013  -8.551  0.00  0.00    +0.107 C 
ENDBRANCH  28  29
ENDBRANCH  24  28
ENDBRANCH   2  21
TORSDOF 5
