REMARK  Name = ZINC02094402
REMARK  11 active torsions:
REMARK  status: ('A' for Active; 'I' for Inactive)
REMARK    1  A    between atoms: C_1  and  C_2
REMARK    2  A    between atoms: C_2  and  N_3
REMARK    3  A    between atoms: N_3  and  C_4
REMARK    4  A    between atoms: N_3  and  C_6
REMARK    5  A    between atoms: C_4  and  C_5
REMARK    6  A    between atoms: C_9  and  C_14
REMARK    7  A    between atoms: C_10  and  O_12
REMARK    8  A    between atoms: O_12  and  C_13
REMARK    9  A    between atoms: C_26  and  S_29
REMARK   10  A    between atoms: S_29  and  C_30
REMARK   11  A    between atoms: C_30  and  C_31
REMARK                            x       y       z     vdW  Elec       q    Type
REMARK                         _______ _______ _______ _____ _____    ______ ____
ROOT
ATOM      1  C   UNL     1       0.071  -4.281  -0.020  0.00  0.00    +0.297 C 
ATOM      2  N   UNL     1       1.430  -4.736   0.258  0.00  0.00    -0.305 N 
ATOM      3  C   UNL     1       2.384  -4.665  -0.761  0.00  0.00    +0.039 A 
ATOM      4  C   UNL     1       3.435  -3.769  -0.702  0.00  0.00    +0.024 A 
ATOM      5  C   UNL     1       4.347  -3.707  -1.740  0.00  0.00    +0.002 A 
ATOM      6  C   UNL     1       4.214  -4.538  -2.840  0.00  0.00    +0.001 A 
ATOM      7  C   UNL     1       3.174  -5.445  -2.910  0.00  0.00    +0.012 A 
ATOM      8  C   UNL     1       2.255  -5.521  -1.871  0.00  0.00    +0.028 A 
ATOM      9  C   UNL     1       1.135  -6.485  -1.897  0.00  0.00    +0.156 A 
ATOM     10  C   UNL     1      -0.173  -6.047  -1.588  0.00  0.00    +0.248 A 
ATOM     11  N   UNL     1      -1.159  -6.927  -1.606  0.00  0.00    -0.184 NA
ATOM     12  C   UNL     1      -0.895  -8.193  -1.916  0.00  0.00    +0.213 A 
ATOM     13  N   UNL     1       0.339  -8.584  -2.208  0.00  0.00    -0.122 NA
ATOM     14  N   UNL     1       1.329  -7.760  -2.200  0.00  0.00    -0.141 NA
ATOM     15  O   UNL     1      -0.393  -4.746  -1.283  0.00  0.00    -0.449 OA
ATOM     16  H   UNL     1       1.667  -5.080   1.133  0.00  0.00    +0.150 HD
ENDROOT
BRANCH   1  20
ATOM     17  C   UNL     1       0.001  -0.004   0.001  0.00  0.00    +0.033 A 
ATOM     18  C   UNL     1       0.111  -0.695  -1.199  0.00  0.00    +0.024 A 
ATOM     19  C   UNL     1       0.133  -2.076  -1.202  0.00  0.00    +0.014 A 
ATOM     20  C   UNL     1       0.047  -2.774  -0.013  0.00  0.00    +0.053 A 
ATOM     21  C   UNL     1      -0.063  -2.089   1.190  0.00  0.00    +0.130 A 
ATOM     22  C   UNL     1      -0.080  -0.703   1.197  0.00  0.00    +0.069 A 
BRANCH  21  23
ATOM     23  O   UNL     1      -0.147  -2.777   2.359  0.00  0.00    -0.495 OA
ATOM     24  C   UNL     1      -0.258  -2.007   3.557  0.00  0.00    +0.277 C 
ENDBRANCH  21  23
BRANCH  17  25
ATOM     25  N   UNL     1      -0.021   1.392   0.005  0.00  0.00    -0.330 N 
BRANCH  25  27
ATOM     26  C   UNL     1      -1.335   2.364  -1.815  0.00  0.00    +0.024 C 
ATOM     27  C   UNL     1       0.071   2.130  -1.258  0.00  0.00    +0.102 C 
ENDBRANCH  25  27
BRANCH  25  28
ATOM     28  C   UNL     1      -0.142   2.120   1.270  0.00  0.00    +0.102 C 
ATOM     29  C   UNL     1       1.253   2.396   1.835  0.00  0.00    +0.024 C 
ENDBRANCH  25  28
ENDBRANCH  17  25
ENDBRANCH   1  20
BRANCH  12  30
ATOM     30  S   UNL     1      -2.206  -9.370  -1.941  0.00  0.00    -0.080 S 
BRANCH  30  31
ATOM     31  C   UNL     1      -1.284 -10.856  -2.409  0.00  0.00    +0.115 C 
BRANCH  31  32
ATOM     32  C   UNL     1      -2.229 -12.027  -2.495  0.00  0.00    -0.002 A 
ATOM     33  C   UNL     1      -2.859 -12.322  -3.690  0.00  0.00    +0.007 A 
ATOM     34  C   UNL     1      -3.725 -13.396  -3.769  0.00  0.00    +0.000 A 
ATOM     35  C   UNL     1      -3.963 -14.177  -2.653  0.00  0.00    +0.003 A 
ATOM     36  C   UNL     1      -3.334 -13.885  -1.458  0.00  0.00    +0.038 A 
ATOM     37  C   UNL     1      -2.463 -12.812  -1.379  0.00  0.00    +0.127 A 
ATOM     38  F   UNL     1      -1.844 -12.528  -0.212  0.00  0.00    -0.205 F 
ENDBRANCH  31  32
ENDBRANCH  30  31
ENDBRANCH  12  30
TORSDOF 8
