REMARK  Name = ZINC06846979
REMARK  11 active torsions:
REMARK  status: ('A' for Active; 'I' for Inactive)
REMARK    1  A    between atoms: C_1  and  C_2
REMARK    2  A    between atoms: C_2  and  C_3
REMARK    3  A    between atoms: C_9  and  C_14
REMARK    4  A    between atoms: C_20  and  C_23
REMARK    5  A    between atoms: N_25  and  C_26
REMARK    6  A    between atoms: C_26  and  C_27
REMARK    7  A    between atoms: C_27  and  N_28
REMARK    8  A    between atoms: N_28  and  C_29
REMARK    9  A    between atoms: N_28  and  C_31
REMARK   10  A    between atoms: C_29  and  C_30
REMARK   11  A    between atoms: C_31  and  C_32
REMARK                            x       y       z     vdW  Elec       q    Type
REMARK                         _______ _______ _______ _____ _____    ______ ____
ROOT
ATOM      1  C   UNL     1      -2.563  -2.386   2.736  0.00  0.00    +0.191 C 
ATOM      2  C   UNL     1      -3.578  -2.355   1.584  0.00  0.00    +0.159 C 
ATOM      3  N   UNL     1      -2.855  -2.688   0.344  0.00  0.00    -0.248 N 
ATOM      4  C   UNL     1      -1.585  -2.115   0.155  0.00  0.00    +0.080 A 
ATOM      5  C   UNL     1      -0.985  -2.155  -1.093  0.00  0.00    +0.030 A 
ATOM      6  C   UNL     1       0.266  -1.593  -1.274  0.00  0.00    -0.048 A 
ATOM      7  C   UNL     1       0.915  -0.993  -0.211  0.00  0.00    +0.007 A 
ATOM      8  C   UNL     1       0.320  -0.949   1.035  0.00  0.00    +0.048 A 
ATOM      9  C   UNL     1      -0.935  -1.509   1.226  0.00  0.00    +0.142 A 
ATOM     10  O   UNL     1      -1.514  -1.457   2.454  0.00  0.00    -0.485 OA
ATOM     11  C   UNL     1       0.921  -1.635  -2.630  0.00  0.00    +0.044 C 
ATOM     12  C   UNL     1      -3.392  -3.514  -0.575  0.00  0.00    +0.309 C 
ATOM     13  O   UNL     1      -2.722  -3.894  -1.516  0.00  0.00    -0.252 OA
ATOM     14  N   UNL     1      -4.671  -3.920  -0.452  0.00  0.00    -0.285 N 
ATOM     15  C   UNL     1      -5.612  -3.180   0.401  0.00  0.00    +0.110 C 
ATOM     16  C   UNL     1      -6.850  -2.821  -0.427  0.00  0.00    +0.032 C 
ATOM     17  C   UNL     1      -7.431  -4.094  -1.047  0.00  0.00    +0.078 C 
ATOM     18  C   UNL     1      -6.395  -4.728  -1.978  0.00  0.00    +0.032 C 
ATOM     19  C   UNL     1      -5.154  -5.106  -1.173  0.00  0.00    +0.110 C 
ENDROOT
BRANCH  17  20
ATOM     20  C   UNL     1      -8.669  -3.749  -1.834  0.00  0.00    +0.216 C 
ATOM     21  O   UNL     1      -9.049  -2.599  -1.894  0.00  0.00    -0.276 OA
ATOM     22  N   UNL     1      -9.354  -4.718  -2.473  0.00  0.00    -0.317 N 
ATOM     23  H   UNL     1      -9.050  -5.638  -2.425  0.00  0.00    +0.149 HD
BRANCH  22  24
ATOM     24  C   UNL     1     -10.557  -4.383  -3.238  0.00  0.00    +0.085 C 
BRANCH  24  25
ATOM     25  C   UNL     1     -11.138  -5.655  -3.858  0.00  0.00    -0.060 C 
BRANCH  25  26
ATOM     26  N   UNL     1     -12.414  -5.341  -4.514  0.00  0.00    +0.380 N 
ATOM     27  H   UNL     1     -13.030  -4.889  -3.855  0.00  0.00    -0.082 HD
BRANCH  26  28
ATOM     28  C   UNL     1     -12.172  -4.444  -5.652  0.00  0.00    -0.082 C 
ATOM     29  C   UNL     1     -13.510  -4.018  -6.259  0.00  0.00    -0.017 C 
ENDBRANCH  26  28
BRANCH  26  30
ATOM     30  C   UNL     1     -13.037  -6.583  -4.994  0.00  0.00    -0.082 C 
ATOM     31  C   UNL     1     -13.429  -7.452  -3.797  0.00  0.00    -0.017 C 
ENDBRANCH  26  30
ENDBRANCH  25  26
ENDBRANCH  24  25
ENDBRANCH  22  24
ENDBRANCH  17  20
BRANCH   1  33
ATOM     32  C   UNL     1      -2.274  -2.142   5.205  0.00  0.00    +0.007 C 
ATOM     33  C   UNL     1      -3.257  -1.996   4.042  0.00  0.00    +0.043 C 
ENDBRANCH   1  33
TORSDOF 7
