REMARK  Name = ZINC06227825
REMARK  10 active torsions:
REMARK  status: ('A' for Active; 'I' for Inactive)
REMARK    1  A    between atoms: C_1  and  C_2
REMARK    2  A    between atoms: C_2  and  O_3
REMARK    3  A    between atoms: O_3  and  C_4
REMARK    4  A    between atoms: C_4  and  C_6
REMARK    5  A    between atoms: C_7  and  C_37
REMARK    6  A    between atoms: C_14  and  C_15
REMARK    7  A    between atoms: C_20  and  O_21
REMARK    8  A    between atoms: C_23  and  C_25
REMARK    9  A    between atoms: C_34  and  O_35
REMARK   10  A    between atoms: O_35  and  C_36
REMARK                            x       y       z     vdW  Elec       q    Type
REMARK                         _______ _______ _______ _____ _____    ______ ____
ROOT
ATOM      1  C   UNL     1       5.888   7.263   0.384  0.00  0.00    +0.085 C 
ATOM      2  C   UNL     1       5.355   8.506   0.580  0.00  0.00    +0.053 C 
ATOM      3  N   UNL     1       4.041   8.689   0.551  0.00  0.00    -0.228 NA
ATOM      4  C   UNL     1       3.160   7.744   0.341  0.00  0.00    +0.178 A 
ATOM      5  N   UNL     1       3.483   6.425   0.121  0.00  0.00    -0.275 N 
ATOM      6  C   UNL     1       2.492   5.545  -0.075  0.00  0.00    +0.268 A 
ATOM      7  O   UNL     1       2.729   4.367  -0.266  0.00  0.00    -0.266 OA
ATOM      8  C   UNL     1       1.111   6.046  -0.058  0.00  0.00    +0.081 A 
ATOM      9  C   UNL     1      -0.055   5.371  -0.232  0.00  0.00    +0.032 C 
ATOM     10  S   UNL     1       1.380   7.782   0.264  0.00  0.00    -0.046 S 
ATOM     11  C   UNL     1       4.940   6.113   0.135  0.00  0.00    +0.166 C 
ATOM     12  C   UNL     1       6.267   9.679   0.832  0.00  0.00    +0.066 C 
ENDROOT
BRANCH  11  13
ATOM     13  C   UNL     1       5.182   5.074   1.199  0.00  0.00    +0.029 A 
ATOM     14  C   UNL     1       6.005   3.968   0.931  0.00  0.00    -0.009 A 
ATOM     15  C   UNL     1       6.619   3.803  -0.322  0.00  0.00    +0.009 A 
ATOM     16  C   UNL     1       7.412   2.719  -0.546  0.00  0.00    +0.001 A 
ATOM     17  C   UNL     1       7.625   1.768   0.450  0.00  0.00    +0.001 A 
ATOM     18  C   UNL     1       7.047   1.895   1.675  0.00  0.00    +0.008 A 
ATOM     19  C   UNL     1       6.222   3.001   1.944  0.00  0.00    -0.017 A 
ATOM     20  C   UNL     1       5.609   3.164   3.199  0.00  0.00    +0.012 A 
ATOM     21  C   UNL     1       4.817   4.246   3.426  0.00  0.00    +0.046 A 
ATOM     22  C   UNL     1       4.606   5.205   2.430  0.00  0.00    +0.126 A 
BRANCH  22  23
ATOM     23  O   UNL     1       3.814   6.278   2.689  0.00  0.00    -0.495 OA
ATOM     24  C   UNL     1       3.240   6.360   3.995  0.00  0.00    +0.277 C 
ENDBRANCH  22  23
ENDBRANCH  11  13
BRANCH   9  25
ATOM     25  C   UNL     1      -0.033   3.966  -0.656  0.00  0.00    +0.018 A 
ATOM     26  C   UNL     1       0.831   3.551  -1.677  0.00  0.00    +0.011 A 
ATOM     27  C   UNL     1       0.846   2.231  -2.069  0.00  0.00    +0.001 A 
ATOM     28  C   UNL     1       0.010   1.310  -1.459  0.00  0.00    +0.004 A 
ATOM     29  C   UNL     1      -0.852   1.706  -0.454  0.00  0.00    +0.046 A 
ATOM     30  C   UNL     1      -0.878   3.028  -0.041  0.00  0.00    +0.124 A 
BRANCH  30  31
ATOM     31  O   UNL     1      -1.721   3.417   0.950  0.00  0.00    -0.506 OA
ATOM     32  H   UNL     1      -2.591   3.700   0.638  0.00  0.00    +0.292 HD
ENDBRANCH  30  31
ENDBRANCH   9  25
BRANCH   1  33
ATOM     33  C   UNL     1       7.278   7.060   0.413  0.00  0.00    +0.339 C 
ATOM     34  O   UNL     1       7.901   6.967  -0.629  0.00  0.00    -0.245 OA
BRANCH  33  35
ATOM     35  O   UNL     1       7.923   6.969   1.596  0.00  0.00    -0.462 OA
BRANCH  35  37
ATOM     36  C   UNL     1       9.886   6.685   2.976  0.00  0.00    +0.048 C 
ATOM     37  C   UNL     1       9.336   6.762   1.551  0.00  0.00    +0.229 C 
ENDBRANCH  35  37
ENDBRANCH  33  35
ENDBRANCH   1  33
TORSDOF 7
