REMARK  Name = ZINC44812623
REMARK  10 active torsions:
REMARK  status: ('A' for Active; 'I' for Inactive)
REMARK    1  A    between atoms: C_1  and  C_2
REMARK    2  A    between atoms: C_5  and  C_8
REMARK    3  A    between atoms: C_10  and  C_13
REMARK    4  A    between atoms: C_13  and  N_14
REMARK    5  A    between atoms: C_18  and  C_21
REMARK    6  A    between atoms: N_23  and  C_24
REMARK    7  A    between atoms: C_24  and  C_25
REMARK    8  A    between atoms: C_25  and  C_27
REMARK    9  A    between atoms: C_25  and  C_28
REMARK   10  A    between atoms: C_28  and  C_29
REMARK                            x       y       z     vdW  Elec       q    Type
REMARK                         _______ _______ _______ _____ _____    ______ ____
ROOT
ATOM      1  N   UNL     1      -1.278  -7.884   1.946  0.00  0.00    +0.386 N 
ATOM      2  C   UNL     1      -1.949  -6.806   2.683  0.00  0.00    -0.078 C 
ATOM      3  C   UNL     1      -3.410  -7.187   2.932  0.00  0.00    -0.018 C 
ATOM      4  C   UNL     1      -3.463  -8.478   3.753  0.00  0.00    +0.009 C 
ATOM      5  C   UNL     1      -2.696  -9.576   3.010  0.00  0.00    +0.058 C 
ATOM      6  C   UNL     1      -1.262  -9.107   2.758  0.00  0.00    -0.065 C 
ATOM      7  H   UNL     1      -1.774  -8.059   1.085  0.00  0.00    -0.081 HD
ENDROOT
BRANCH   5   8
ATOM      8  C   UNL     1      -2.678 -10.831   3.844  0.00  0.00    +0.214 C 
ATOM      9  O   UNL     1      -1.620 -11.306   4.200  0.00  0.00    -0.276 OA
ATOM     10  N   UNL     1      -3.836 -11.424   4.195  0.00  0.00    -0.315 N 
ATOM     11  H   UNL     1      -4.681 -11.043   3.911  0.00  0.00    +0.149 HD
BRANCH  10  12
ATOM     12  C   UNL     1      -3.818 -12.643   5.007  0.00  0.00    +0.107 C 
BRANCH  12  13
ATOM     13  C   UNL     1      -5.253 -13.108   5.262  0.00  0.00    +0.007 C 
ATOM     14  C   UNL     1      -5.901 -13.513   3.936  0.00  0.00    +0.009 C 
BRANCH  13  15
ATOM     15  C   UNL     1      -5.240 -14.308   6.211  0.00  0.00    +0.040 C 
BRANCH  15  16
ATOM     16  C   UNL     1      -6.656 -14.688   6.559  0.00  0.00    -0.039 A 
ATOM     17  C   UNL     1      -7.235 -14.205   7.693  0.00  0.00    +0.004 A 
ATOM     18  C   UNL     1      -8.543 -14.546   8.031  0.00  0.00    +0.001 A 
ATOM     19  C   UNL     1      -9.279 -15.372   7.239  0.00  0.00    +0.008 A 
ATOM     20  C   UNL     1      -8.716 -15.890   6.061  0.00  0.00    -0.018 A 
ATOM     21  C   UNL     1      -7.387 -15.539   5.713  0.00  0.00    -0.015 A 
ATOM     22  C   UNL     1      -6.825 -16.052   4.532  0.00  0.00    +0.009 A 
ATOM     23  C   UNL     1      -7.564 -16.873   3.736  0.00  0.00    +0.001 A 
ATOM     24  C   UNL     1      -8.872 -17.214   4.075  0.00  0.00    +0.001 A 
ATOM     25  C   UNL     1      -9.445 -16.746   5.218  0.00  0.00    +0.008 A 
ENDBRANCH  15  16
ENDBRANCH  13  15
ENDBRANCH  12  13
ENDBRANCH  10  12
ENDBRANCH   5   8
BRANCH   1  26
ATOM     26  C   UNL     1       0.102  -7.482   1.642  0.00  0.00    +0.022 C 
BRANCH  26  29
ATOM     27  C   UNL     1       0.059  -4.256  -0.021  0.00  0.00    +0.202 A 
ATOM     28  N   UNL     1       0.070  -5.047   1.067  0.00  0.00    -0.193 NA
ATOM     29  C   UNL     1       0.086  -6.299   0.708  0.00  0.00    +0.211 A 
ATOM     30  O   UNL     1       0.086  -6.357  -0.630  0.00  0.00    -0.340 OA
ATOM     31  N   UNL     1       0.064  -5.015  -1.090  0.00  0.00    -0.056 NA
BRANCH  27  36
ATOM     32  C   UNL     1      -0.018   1.503   0.010  0.00  0.00    +0.044 C 
ATOM     33  C   UNL     1       0.002  -0.004   0.002  0.00  0.00    -0.050 A 
ATOM     34  C   UNL     1       0.006  -0.686  -1.201  0.00  0.00    +0.004 A 
ATOM     35  C   UNL     1       0.024  -2.067  -1.214  0.00  0.00    +0.012 A 
ATOM     36  C   UNL     1       0.040  -2.772  -0.013  0.00  0.00    +0.022 A 
ATOM     37  C   UNL     1       0.036  -2.080   1.196  0.00  0.00    +0.012 A 
ATOM     38  C   UNL     1       0.023  -0.700   1.198  0.00  0.00    +0.004 A 
ENDBRANCH  27  36
ENDBRANCH  26  29
ENDBRANCH   1  26
TORSDOF 8
