REMARK  Name = ZINC16666360
REMARK  9 active torsions:
REMARK  status: ('A' for Active; 'I' for Inactive)
REMARK    1  A    between atoms: C_1  and  C_2
REMARK    2  A    between atoms: C_6  and  C_29
REMARK    3  A    between atoms: C_7  and  N_8
REMARK    4  A    between atoms: N_8  and  S_9
REMARK    5  A    between atoms: S_9  and  C_12
REMARK    6  A    between atoms: C_15  and  N_19
REMARK    7  A    between atoms: C_17  and  C_18
REMARK    8  A    between atoms: C_22  and  C_27
REMARK    9  A    between atoms: C_22  and  C_28
REMARK                            x       y       z     vdW  Elec       q    Type
REMARK                         _______ _______ _______ _____ _____    ______ ____
ROOT
ATOM      1  C   UNL     1       2.899   0.623  -0.536  0.00  0.00    +0.111 A 
ATOM      2  C   UNL     1       1.609   0.180  -0.306  0.00  0.00    +0.031 A 
ATOM      3  C   UNL     1       0.541   1.037  -0.487  0.00  0.00    +0.027 A 
ATOM      4  C   UNL     1       0.763   2.344  -0.899  0.00  0.00    +0.060 A 
ATOM      5  C   UNL     1       2.059   2.786  -1.128  0.00  0.00    +0.030 A 
ATOM      6  C   UNL     1       3.123   1.924  -0.946  0.00  0.00    -0.022 A 
ATOM      7  C   UNL     1       4.531   2.402  -1.195  0.00  0.00    +0.046 C 
ENDROOT
BRANCH   4   8
ATOM      8  N   UNL     1      -0.317   3.213  -1.088  0.00  0.00    -0.143 N 
ATOM      9  C   UNL     1      -0.333   4.290  -1.888  0.00  0.00    +0.246 C 
ATOM     10  O   UNL     1       0.634   4.578  -2.560  0.00  0.00    -0.273 OA
ATOM     11  C   UNL     1      -1.576   5.126  -1.937  0.00  0.00    +0.064 C 
ATOM     12  C   UNL     1      -2.761   4.290  -1.384  0.00  0.00    +0.205 C 
ATOM     13  S   UNL     1      -1.816   3.097  -0.350  0.00  0.00    +0.053 S 
ATOM     14  O   UNL     1      -2.256   1.766  -0.581  0.00  0.00    -0.155 OA
ATOM     15  O   UNL     1      -1.636   3.599   0.967  0.00  0.00    -0.155 OA
ATOM     16  C   UNL     1      -1.867   5.539  -3.381  0.00  0.00    +0.022 C 
ATOM     17  C   UNL     1      -1.381   6.375  -1.074  0.00  0.00    +0.022 C 
ENDBRANCH   4   8
BRANCH   1  18
ATOM     18  S   UNL     1       4.258  -0.473  -0.304  0.00  0.00    +0.073 S 
ATOM     19  O   UNL     1       5.184   0.200   0.537  0.00  0.00    -0.150 OA
ATOM     20  O   UNL     1       3.707  -1.740   0.029  0.00  0.00    -0.150 OA
BRANCH  18  21
ATOM     21  N   UNL     1       4.999  -0.652  -1.775  0.00  0.00    -0.216 N 
ATOM     22  H   UNL     1       5.846  -0.212  -1.948  0.00  0.00    +0.174 HD
BRANCH  21  29
ATOM     23  C   UNL     1       4.816  -3.458  -1.336  0.00  0.00    +0.046 C 
ATOM     24  C   UNL     1       4.294  -2.811  -2.593  0.00  0.00    -0.028 A 
ATOM     25  C   UNL     1       3.700  -3.583  -3.572  0.00  0.00    +0.005 A 
ATOM     26  C   UNL     1       3.226  -2.991  -4.728  0.00  0.00    +0.001 A 
ATOM     27  C   UNL     1       3.338  -1.624  -4.906  0.00  0.00    +0.005 A 
ATOM     28  C   UNL     1       3.926  -0.846  -3.928  0.00  0.00    -0.028 A 
ATOM     29  C   UNL     1       4.404  -1.437  -2.765  0.00  0.00    +0.054 A 
ATOM     30  C   UNL     1       4.047   0.644  -4.122  0.00  0.00    +0.046 C 
ENDBRANCH  21  29
ENDBRANCH  18  21
ENDBRANCH   1  18
TORSDOF 4
