REMARK  Name = ZINC12112445
REMARK  13 active torsions:
REMARK  status: ('A' for Active; 'I' for Inactive)
REMARK    1  A    between atoms: C_1  and  C_2
REMARK    2  A    between atoms: C_2  and  O_3
REMARK    3  A    between atoms: O_3  and  C_4
REMARK    4  A    between atoms: C_4  and  C_6
REMARK    5  A    between atoms: C_7  and  C_21
REMARK    6  A    between atoms: C_10  and  N_11
REMARK    7  A    between atoms: C_12  and  C_14
REMARK    8  A    between atoms: C_14  and  N_65
REMARK    9  A    between atoms: C_17  and  C_20
REMARK   10  A    between atoms: C_24  and  C_27
REMARK   11  A    between atoms: C_27  and  C_28
REMARK   12  A    between atoms: C_27  and  C_29
REMARK   13  A    between atoms: C_27  and  C_30
REMARK                            x       y       z     vdW  Elec       q    Type
REMARK                         _______ _______ _______ _____ _____    ______ ____
ROOT
ATOM      1  C   UNL     1      -1.248  -2.095   0.003  0.00  0.00    +0.095 A 
ATOM      2  C   UNL     1      -1.290  -2.848  -1.236  0.00  0.00    +0.005 A 
ATOM      3  C   UNL     1      -1.340  -4.200  -1.127  0.00  0.00    +0.056 A 
ATOM      4  S   UNL     1      -1.333  -4.469   0.633  0.00  0.00    -0.080 S 
ATOM      5  C   UNL     1      -1.259  -2.829   1.181  0.00  0.00    +0.086 A 
ENDROOT
BRANCH   2   6
ATOM      6  C   UNL     1      -1.277  -2.175  -2.557  0.00  0.00    -0.017 A 
ATOM      7  C   UNL     1      -2.168  -1.136  -2.821  0.00  0.00    +0.009 A 
ATOM      8  C   UNL     1      -2.150  -0.510  -4.051  0.00  0.00    +0.005 A 
ATOM      9  C   UNL     1      -1.255  -0.918  -5.024  0.00  0.00    -0.042 A 
ATOM     10  C   UNL     1      -0.372  -1.952  -4.769  0.00  0.00    +0.005 A 
ATOM     11  C   UNL     1      -0.378  -2.582  -3.542  0.00  0.00    +0.009 A 
BRANCH   9  12
ATOM     12  C   UNL     1      -1.244  -0.235  -6.367  0.00  0.00    -0.013 C 
ATOM     13  C   UNL     1      -1.545  -1.259  -7.463  0.00  0.00    +0.015 C 
ATOM     14  C   UNL     1      -2.309   0.863  -6.389  0.00  0.00    +0.015 C 
ATOM     15  C   UNL     1       0.133   0.385  -6.612  0.00  0.00    +0.015 C 
ENDBRANCH   9  12
ENDBRANCH   2   6
BRANCH   5  16
ATOM     16  N   UNL     1      -1.222  -2.360   2.485  0.00  0.00    -0.281 N 
ATOM     17  C   UNL     1      -1.241  -3.230   3.514  0.00  0.00    +0.201 C 
ATOM     18  O   UNL     1      -1.290  -4.423   3.300  0.00  0.00    -0.278 OA
ATOM     19  H   UNL     1      -1.183  -1.406   2.656  0.00  0.00    +0.155 HD
BRANCH  17  20
ATOM     20  C   UNL     1      -1.200  -2.720   4.932  0.00  0.00    +0.019 C 
BRANCH  20  27
ATOM     21  C   UNL     1      -2.511  -4.572   5.778  0.00  0.00    -0.078 C 
ATOM     22  C   UNL     1      -2.453  -5.829   6.649  0.00  0.00    -0.016 C 
ATOM     23  C   UNL     1      -2.165  -5.427   8.098  0.00  0.00    -0.018 C 
ATOM     24  C   UNL     1      -0.851  -4.642   8.151  0.00  0.00    -0.016 C 
ATOM     25  C   UNL     1      -0.956  -3.420   7.237  0.00  0.00    -0.078 C 
ATOM     26  C   UNL     1      -2.045  -6.683   8.963  0.00  0.00    +0.007 C 
ATOM     27  N   UNL     1      -1.209  -3.875   5.853  0.00  0.00    +0.385 N 
ATOM     28  H   UNL     1      -0.466  -4.528   5.576  0.00  0.00    -0.081 HD
ENDBRANCH  20  27
ENDBRANCH  17  20
ENDBRANCH   5  16
BRANCH   1  29
ATOM     29  C   UNL     1      -1.191  -0.633   0.010  0.00  0.00    +0.342 C 
ATOM     30  O   UNL     1      -2.220   0.016   0.023  0.00  0.00    -0.245 OA
BRANCH  29  31
ATOM     31  O   UNL     1       0.002  -0.004   0.002  0.00  0.00    -0.461 OA
BRANCH  31  33
ATOM     32  C   UNL     1       1.418   1.977  -0.001  0.00  0.00    +0.048 C 
ATOM     33  C   UNL     1      -0.018   1.448   0.010  0.00  0.00    +0.229 C 
ENDBRANCH  31  33
ENDBRANCH  29  31
ENDBRANCH   1  29
TORSDOF 8
