REMARK  Name = ZINC34830605
REMARK  8 active torsions:
REMARK  status: ('A' for Active; 'I' for Inactive)
REMARK    1  A    between atoms: C_1  and  C_2
REMARK    2  A    between atoms: C_5  and  C_8
REMARK    3  A    between atoms: N_17  and  C_18
REMARK    4  A    between atoms: C_18  and  C_19
REMARK    5  A    between atoms: C_19  and  C_20
REMARK    6  A    between atoms: N_25  and  S_30
REMARK    7  A    between atoms: C_26  and  C_29
REMARK    8  A    between atoms: S_30  and  C_33
REMARK                            x       y       z     vdW  Elec       q    Type
REMARK                         _______ _______ _______ _____ _____    ______ ____
ROOT
ATOM      1  C   UNL     1       3.248  -4.733   1.895  0.00  0.00    +0.077 C 
ENDROOT
BRANCH   1   2
ATOM      2  C   UNL     1       4.658  -4.298   1.589  0.00  0.00    +0.214 C 
ATOM      3  O   UNL     1       4.904  -3.728   0.547  0.00  0.00    -0.276 OA
ATOM      4  N   UNL     1       5.645  -4.543   2.472  0.00  0.00    -0.299 N 
ATOM      5  C   UNL     1       5.363  -5.238   3.736  0.00  0.00    +0.125 C 
ATOM      6  C   UNL     1       5.855  -4.365   4.897  0.00  0.00    +0.129 C 
ATOM      7  N   UNL     1       7.234  -3.941   4.614  0.00  0.00    -0.171 NA
ATOM      8  C   UNL     1       7.516  -3.245   3.351  0.00  0.00    +0.094 C 
ATOM      9  C   UNL     1       7.025  -4.124   2.187  0.00  0.00    +0.128 C 
ATOM     10  C   UNL     1       6.787  -1.901   3.331  0.00  0.00    +0.027 C 
BRANCH   7  11
ATOM     11  S   UNL     1       8.447  -4.242   5.700  0.00  0.00    +0.061 S 
ATOM     12  O   UNL     1       9.464  -3.281   5.450  0.00  0.00    -0.153 OA
ATOM     13  O   UNL     1       7.828  -4.382   6.972  0.00  0.00    -0.153 OA
BRANCH  11  14
ATOM     14  C   UNL     1       9.130  -5.815   5.296  0.00  0.00    +0.105 A 
ATOM     15  C   UNL     1       8.609  -6.962   5.865  0.00  0.00    +0.028 A 
ATOM     16  C   UNL     1       9.145  -8.196   5.547  0.00  0.00    +0.002 A 
ATOM     17  C   UNL     1      10.202  -8.283   4.661  0.00  0.00    +0.000 A 
ATOM     18  C   UNL     1      10.723  -7.136   4.092  0.00  0.00    +0.002 A 
ATOM     19  C   UNL     1      10.184  -5.902   4.406  0.00  0.00    +0.028 A 
ENDBRANCH  11  14
ENDBRANCH   7  11
ENDBRANCH   1   2
BRANCH   1  20
ATOM     20  C   UNL     1       2.329  -4.338   0.737  0.00  0.00    -0.068 C 
BRANCH  20  29
ATOM     21  C   UNL     1       0.059  -4.275  -0.021  0.00  0.00    -0.006 C 
ATOM     22  C   UNL     1      -1.346  -4.806   0.240  0.00  0.00    -0.047 A 
ATOM     23  C   UNL     1      -2.502  -4.255  -0.307  0.00  0.00    +0.010 A 
ATOM     24  C   UNL     1      -3.711  -4.792  -0.017  0.00  0.00    +0.045 A 
ATOM     25  S   UNL     1      -3.266  -6.138   1.072  0.00  0.00    -0.101 S 
ATOM     26  C   UNL     1      -1.514  -5.885   1.056  0.00  0.00    -0.010 A 
ATOM     27  C   UNL     1      -0.434  -6.647   1.752  0.00  0.00    +0.024 C 
ATOM     28  C   UNL     1       0.907  -6.228   1.125  0.00  0.00    -0.072 C 
ATOM     29  N   UNL     1       0.955  -4.762   1.035  0.00  0.00    +0.388 N 
ATOM     30  H   UNL     1       0.671  -4.367   1.919  0.00  0.00    -0.080 HD
BRANCH  21  35
ATOM     31  C   UNL     1      -0.018   1.503   0.010  0.00  0.00    +0.044 C 
ATOM     32  C   UNL     1       0.002  -0.004   0.002  0.00  0.00    -0.050 A 
ATOM     33  C   UNL     1       0.006  -0.689  -1.199  0.00  0.00    +0.003 A 
ATOM     34  C   UNL     1       0.025  -2.071  -1.206  0.00  0.00    +0.002 A 
ATOM     35  C   UNL     1       0.040  -2.768  -0.013  0.00  0.00    -0.057 A 
ATOM     36  C   UNL     1       0.037  -2.084   1.188  0.00  0.00    +0.002 A 
ATOM     37  C   UNL     1       0.023  -0.702   1.195  0.00  0.00    +0.003 A 
ENDBRANCH  21  35
ENDBRANCH  20  29
ENDBRANCH   1  20
TORSDOF 6
