REMARK  Name = ZINC06077677
REMARK  11 active torsions:
REMARK  status: ('A' for Active; 'I' for Inactive)
REMARK    1  A    between atoms: C_1  and  C_2
REMARK    2  A    between atoms: C_2  and  C_3
REMARK    3  A    between atoms: C_3  and  C_4
REMARK    4  A    between atoms: C_3  and  C_5
REMARK    5  A    between atoms: C_3  and  N_6
REMARK    6  A    between atoms: C_7  and  C_11
REMARK    7  A    between atoms: C_11  and  C_13
REMARK    8  A    between atoms: C_11  and  N_71
REMARK    9  A    between atoms: C_17  and  C_26
REMARK   10  A    between atoms: C_18  and  C_25
REMARK   11  A    between atoms: N_29  and  C_32
REMARK                            x       y       z     vdW  Elec       q    Type
REMARK                         _______ _______ _______ _____ _____    ______ ____
ROOT
ATOM      1  C   UNL     1       0.744   5.783  -1.021  0.00  0.00    +0.039 C 
ENDROOT
BRANCH   1   2
ATOM      2  C   UNL     1       2.068   6.473  -1.223  0.00  0.00    +0.011 A 
ATOM      3  C   UNL     1       2.461   7.448  -0.366  0.00  0.00    +0.017 A 
ATOM      4  C   UNL     1       3.753   8.098  -0.590  0.00  0.00    -0.001 A 
ATOM      5  C   UNL     1       4.211   9.110   0.260  0.00  0.00    +0.013 A 
ATOM      6  C   UNL     1       5.422   9.697   0.024  0.00  0.00    -0.047 A 
ATOM      7  C   UNL     1       6.202   9.298  -1.053  0.00  0.00    -0.046 A 
ATOM      8  C   UNL     1       5.771   8.303  -1.904  0.00  0.00    +0.030 A 
ATOM      9  C   UNL     1       4.541   7.691  -1.683  0.00  0.00    +0.049 A 
ATOM     10  N   UNL     1       4.085   6.694  -2.518  0.00  0.00    -0.322 N 
ATOM     11  H   UNL     1       4.644   6.409  -3.297  0.00  0.00    +0.169 HD
ATOM     12  C   UNL     1       2.899   6.099  -2.301  0.00  0.00    +0.251 A 
ATOM     13  O   UNL     1       2.530   5.217  -3.057  0.00  0.00    -0.268 OA
ATOM     14  C   UNL     1       7.534   9.960  -1.295  0.00  0.00    +0.044 C 
ATOM     15  C   UNL     1       5.915  10.787   0.940  0.00  0.00    +0.044 C 
ENDBRANCH   1   2
BRANCH   1  21
ATOM     16  C   UNL     1       1.841   3.988   0.178  0.00  0.00    -0.058 C 
ATOM     17  C   UNL     1       2.099   2.480   0.177  0.00  0.00    +0.086 C 
ATOM     18  N   UNL     1       0.819   1.766   0.285  0.00  0.00    -0.331 N 
ATOM     19  C   UNL     1      -0.068   2.110  -0.836  0.00  0.00    +0.086 C 
ATOM     20  C   UNL     1      -0.325   3.619  -0.835  0.00  0.00    -0.058 C 
ATOM     21  N   UNL     1       0.967   4.323  -0.966  0.00  0.00    +0.391 N 
ATOM     22  H   UNL     1       1.425   4.022  -1.835  0.00  0.00    -0.080 HD
BRANCH  18  23
ATOM     23  C   UNL     1       1.020   0.385   0.359  0.00  0.00    +0.065 A 
ATOM     24  C   UNL     1       1.657  -0.283  -0.678  0.00  0.00    +0.026 A 
ATOM     25  C   UNL     1       1.857  -1.648  -0.599  0.00  0.00    +0.002 A 
ATOM     26  C   UNL     1       1.416  -2.351   0.506  0.00  0.00    +0.003 A 
ATOM     27  C   UNL     1       0.777  -1.692   1.540  0.00  0.00    +0.040 A 
ATOM     28  C   UNL     1       0.577  -0.325   1.470  0.00  0.00    +0.144 A 
ATOM     29  F   UNL     1      -0.049   0.319   2.480  0.00  0.00    -0.204 F 
ENDBRANCH  18  23
ENDBRANCH   1  21
BRANCH   1  31
ATOM     30  N   UNL     1      -1.272   6.865  -2.147  0.00  0.00    -0.225 N 
ATOM     31  C   UNL     1      -0.168   6.097  -2.179  0.00  0.00    +0.143 A 
ATOM     32  N   UNL     1      -0.036   5.678  -3.414  0.00  0.00    -0.115 NA
ATOM     33  N   UNL     1      -1.013   6.158  -4.103  0.00  0.00    -0.023 NA
ATOM     34  N   UNL     1      -1.760   6.878  -3.342  0.00  0.00    -0.043 NA
BRANCH  30  35
ATOM     35  C   UNL     1      -1.817   7.558  -0.977  0.00  0.00    +0.061 C 
ATOM     36  C   UNL     1      -2.227   6.529   0.079  0.00  0.00    +0.036 C 
ATOM     37  C   UNL     1      -0.753   8.490  -0.395  0.00  0.00    +0.036 C 
BRANCH  35  39
ATOM     38  C   UNL     1      -3.609   9.101  -0.171  0.00  0.00    +0.006 C 
ATOM     39  C   UNL     1      -3.040   8.377  -1.393  0.00  0.00    +0.026 C 
ENDBRANCH  35  39
ENDBRANCH  30  35
ENDBRANCH   1  31
TORSDOF 6
