REMARK  Name = ZINC06149332
REMARK  14 active torsions:
REMARK  status: ('A' for Active; 'I' for Inactive)
REMARK    1  A    between atoms: C_1  and  C_2
REMARK    2  A    between atoms: C_2  and  C_3
REMARK    3  A    between atoms: C_3  and  C_4
REMARK    4  A    between atoms: C_3  and  C_5
REMARK    5  A    between atoms: C_3  and  N_6
REMARK    6  A    between atoms: C_7  and  C_11
REMARK    7  A    between atoms: C_11  and  C_13
REMARK    8  A    between atoms: C_11  and  N_72
REMARK    9  A    between atoms: C_16  and  C_26
REMARK   10  A    between atoms: C_18  and  C_25
REMARK   11  A    between atoms: C_27  and  C_28
REMARK   12  A    between atoms: C_27  and  N_72
REMARK   13  A    between atoms: C_34  and  C_35
REMARK   14  A    between atoms: C_34  and  N_72
REMARK                            x       y       z     vdW  Elec       q    Type
REMARK                         _______ _______ _______ _____ _____    ______ ____
ROOT
ATOM      1  C   UNL     1       4.400  -2.366  -0.855  0.00  0.00    +0.040 C 
ENDROOT
BRANCH   1   2
ATOM      2  C   UNL     1       3.242  -1.491  -1.261  0.00  0.00    +0.011 A 
ATOM      3  C   UNL     1       3.472  -0.233  -1.710  0.00  0.00    +0.018 A 
ATOM      4  C   UNL     1       2.325   0.593  -2.095  0.00  0.00    +0.002 A 
ATOM      5  C   UNL     1       2.499   1.899  -2.565  0.00  0.00    -0.041 A 
ATOM      6  C   UNL     1       1.409   2.642  -2.918  0.00  0.00    +0.007 A 
ATOM      7  C   UNL     1       0.130   2.113  -2.815  0.00  0.00    -0.048 A 
ATOM      8  C   UNL     1      -0.065   0.829  -2.354  0.00  0.00    +0.029 A 
ATOM      9  C   UNL     1       1.030   0.053  -1.989  0.00  0.00    +0.050 A 
ATOM     10  N   UNL     1       0.864  -1.235  -1.526  0.00  0.00    -0.322 N 
ATOM     11  H   UNL     1      -0.057  -1.617  -1.451  0.00  0.00    +0.169 HD
ATOM     12  C   UNL     1       1.923  -1.985  -1.173  0.00  0.00    +0.251 A 
ATOM     13  O   UNL     1       1.738  -3.119  -0.767  0.00  0.00    -0.268 OA
ATOM     14  C   UNL     1      -1.058   2.950  -3.216  0.00  0.00    +0.044 C 
ATOM     15  C   UNL     1       3.884   2.483  -2.680  0.00  0.00    +0.044 C 
ENDBRANCH   1   2
BRANCH   1  17
ATOM     16  N   UNL     1       5.033  -2.125   1.604  0.00  0.00    -0.225 N 
ATOM     17  C   UNL     1       4.303  -2.676   0.617  0.00  0.00    +0.143 A 
ATOM     18  N   UNL     1       3.487  -3.530   1.185  0.00  0.00    -0.115 NA
ATOM     19  N   UNL     1       3.710  -3.511   2.454  0.00  0.00    -0.023 NA
ATOM     20  N   UNL     1       4.642  -2.661   2.711  0.00  0.00    -0.043 NA
BRANCH  16  21
ATOM     21  C   UNL     1       6.077  -1.108   1.451  0.00  0.00    +0.061 C 
ATOM     22  C   UNL     1       7.231  -1.682   0.626  0.00  0.00    +0.036 C 
ATOM     23  C   UNL     1       5.497   0.113   0.735  0.00  0.00    +0.036 C 
BRANCH  21  25
ATOM     24  C   UNL     1       7.681   0.368   2.670  0.00  0.00    +0.006 C 
ATOM     25  C   UNL     1       6.592  -0.694   2.830  0.00  0.00    +0.026 C 
ENDBRANCH  21  25
ENDBRANCH  16  21
ENDBRANCH   1  17
BRANCH   1  26
ATOM     26  N   UNL     1       4.338  -3.634  -1.613  0.00  0.00    +0.395 N 
ATOM     27  H   UNL     1       3.533  -4.180  -1.284  0.00  0.00    -0.079 HD
BRANCH  26  28
ATOM     28  C   UNL     1       4.171  -3.352  -3.054  0.00  0.00    -0.041 C 
BRANCH  28  29
ATOM     29  C   UNL     1       3.890  -4.646  -3.773  0.00  0.00    -0.064 A 
ATOM     30  C   UNL     1       4.934  -5.389  -4.291  0.00  0.00    +0.002 A 
ATOM     31  C   UNL     1       4.677  -6.580  -4.946  0.00  0.00    +0.000 A 
ATOM     32  C   UNL     1       3.376  -7.021  -5.093  0.00  0.00    +0.000 A 
ATOM     33  C   UNL     1       2.331  -6.275  -4.579  0.00  0.00    +0.000 A 
ATOM     34  C   UNL     1       2.588  -5.088  -3.920  0.00  0.00    +0.002 A 
ENDBRANCH  28  29
ENDBRANCH  26  28
BRANCH  26  35
ATOM     35  C   UNL     1       5.572  -4.416  -1.391  0.00  0.00    -0.034 C 
BRANCH  35  36
ATOM     36  C   UNL     1       5.399  -5.242  -0.142  0.00  0.00    -0.027 A 
ATOM     37  C   UNL     1       4.776  -6.436   0.012  0.00  0.00    +0.009 A 
ATOM     38  C   UNL     1       4.740  -7.016   1.266  0.00  0.00    +0.008 A 
ATOM     39  C   UNL     1       5.329  -6.374   2.305  0.00  0.00    +0.045 A 
ATOM     40  S   UNL     1       5.967  -4.905   1.516  0.00  0.00    -0.103 S 
ENDBRANCH  35  36
ENDBRANCH  26  35
ENDBRANCH   1  26
TORSDOF 9
