REMARK  Name = ZINC02222756
REMARK  13 active torsions:
REMARK  status: ('A' for Active; 'I' for Inactive)
REMARK    1  A    between atoms: C_1  and  C_2
REMARK    2  A    between atoms: C_3  and  O_28
REMARK    3  A    between atoms: C_10  and  S_12
REMARK    4  A    between atoms: S_12  and  C_13
REMARK    5  A    between atoms: C_15  and  C_24
REMARK    6  A    between atoms: C_16  and  O_23
REMARK    7  A    between atoms: C_17  and  C_19
REMARK    8  A    between atoms: C_19  and  C_20
REMARK    9  A    between atoms: C_19  and  C_21
REMARK   10  A    between atoms: C_19  and  C_22
REMARK   11  A    between atoms: C_24  and  C_25
REMARK   12  A    between atoms: C_24  and  C_26
REMARK   13  A    between atoms: C_24  and  C_27
REMARK                            x       y       z     vdW  Elec       q    Type
REMARK                         _______ _______ _______ _____ _____    ______ ____
ROOT
ATOM      1  C   UNL     1      -2.563   1.669  -1.177  0.00  0.00    +0.011 A 
ATOM      2  C   UNL     1      -2.937   1.020  -0.007  0.00  0.00    +0.022 A 
ATOM      3  C   UNL     1      -4.266   0.721   0.221  0.00  0.00    +0.001 A 
ATOM      4  C   UNL     1      -5.225   1.059  -0.722  0.00  0.00    +0.124 A 
ATOM      5  C   UNL     1      -4.852   1.702  -1.893  0.00  0.00    +0.001 A 
ATOM      6  C   UNL     1      -3.525   2.007  -2.121  0.00  0.00    +0.022 A 
ENDROOT
BRANCH   5   7
ATOM      7  C   UNL     1      -5.896   2.069  -2.916  0.00  0.00    -0.009 C 
ATOM      8  C   UNL     1      -5.224   2.763  -4.103  0.00  0.00    +0.015 C 
ATOM      9  C   UNL     1      -6.603   0.801  -3.400  0.00  0.00    +0.015 C 
ATOM     10  C   UNL     1      -6.919   3.015  -2.285  0.00  0.00    +0.015 C 
ENDBRANCH   5   7
BRANCH   3  11
ATOM     11  C   UNL     1      -4.673   0.022   1.493  0.00  0.00    -0.009 C 
ATOM     12  C   UNL     1      -3.434  -0.235   2.353  0.00  0.00    +0.015 C 
ATOM     13  C   UNL     1      -5.657   0.902   2.266  0.00  0.00    +0.015 C 
ATOM     14  C   UNL     1      -5.341  -1.311   1.150  0.00  0.00    +0.015 C 
ENDBRANCH   3  11
BRANCH   4  15
ATOM     15  O   UNL     1      -6.533   0.759  -0.498  0.00  0.00    -0.506 OA
ATOM     16  H   UNL     1      -6.799  -0.110  -0.828  0.00  0.00    +0.292 HD
ENDBRANCH   4  15
BRANCH   1  17
ATOM     17  S   UNL     1      -0.869   2.058  -1.466  0.00  0.00    -0.089 S 
BRANCH  17  27
ATOM     18  C   UNL     1       4.183   4.393   0.497  0.00  0.00    +0.069 C 
ATOM     19  C   UNL     1       3.457   3.112   0.176  0.00  0.00    +0.080 A 
ATOM     20  C   UNL     1       2.074   3.057   0.299  0.00  0.00    +0.145 A 
ATOM     21  C   UNL     1       1.426   1.870  -0.002  0.00  0.00    +0.041 A 
ATOM     22  C   UNL     1       2.183   0.782  -0.413  0.00  0.00    +0.006 A 
ATOM     23  C   UNL     1       3.552   0.911  -0.511  0.00  0.00    +0.117 A 
ATOM     24  N   UNL     1       4.141   2.056  -0.218  0.00  0.00    -0.256 NA
ATOM     25  C   UNL     1       1.226  -0.357  -0.669  0.00  0.00    +0.199 C 
ATOM     26  O   UNL     1       0.002  -0.004   0.002  0.00  0.00    -0.356 OA
ATOM     27  C   UNL     1      -0.018   1.436   0.010  0.00  0.00    +0.215 C 
BRANCH  20  28
ATOM     28  O   UNL     1       1.371   4.146   0.706  0.00  0.00    -0.505 OA
ATOM     29  H   UNL     1       1.082   4.720  -0.017  0.00  0.00    +0.292 HD
ENDBRANCH  20  28
ENDBRANCH  17  27
ENDBRANCH   1  17
TORSDOF 6
