REMARK  Name = ZINC09787005
REMARK  5 active torsions:
REMARK  status: ('A' for Active; 'I' for Inactive)
REMARK    1  A    between atoms: C_1  and  S_2
REMARK    2  A    between atoms: S_2  and  C_5
REMARK    3  A    between atoms: C_8  and  C_11
REMARK    4  A    between atoms: C_14  and  N_17
REMARK    5  A    between atoms: C_18  and  C_20
REMARK                            x       y       z     vdW  Elec       q    Type
REMARK                         _______ _______ _______ _____ _____    ______ ____
ROOT
ATOM      1  C   UNL     1       1.061  -9.099   0.220  0.00  0.00    +0.002 A 
ATOM      2  C   UNL     1       2.295  -8.451   0.219  0.00  0.00    +0.012 A 
ATOM      3  C   UNL     1       2.350  -7.076   0.134  0.00  0.00    +0.024 A 
ATOM      4  C   UNL     1       1.176  -6.336   0.050  0.00  0.00    +0.034 A 
ATOM      5  C   UNL     1      -0.056  -6.980   0.057  0.00  0.00    +0.024 A 
ATOM      6  C   UNL     1      -0.116  -8.355   0.135  0.00  0.00    +0.012 A 
ENDROOT
BRANCH   1  10
ATOM      7  C   UNL     1       0.984 -13.265   0.479  0.00  0.00    +0.198 A 
ATOM      8  C   UNL     1      -0.239 -12.614   0.399  0.00  0.00    +0.051 A 
ATOM      9  C   UNL     1      -0.237 -11.231   0.312  0.00  0.00    +0.033 A 
ATOM     10  C   UNL     1       0.999 -10.578   0.311  0.00  0.00    +0.093 A 
ATOM     11  N   UNL     1       2.117 -11.289   0.387  0.00  0.00    -0.147 NA
ATOM     12  N   UNL     1       2.105 -12.570   0.472  0.00  0.00    -0.130 NA
BRANCH   7  14
ATOM     13  C   UNL     1       1.110 -15.597  -1.129  0.00  0.00    +0.202 C 
ATOM     14  S   UNL     1       1.039 -15.023   0.591  0.00  0.00    +0.013 S 
ATOM     15  O   UNL     1       2.264 -15.306   1.252  0.00  0.00    -0.168 OA
ATOM     16  O   UNL     1      -0.203 -15.388   1.178  0.00  0.00    -0.168 OA
ENDBRANCH   7  14
ENDBRANCH   1  10
BRANCH   4  17
ATOM     17  N   UNL     1       1.234  -4.943  -0.036  0.00  0.00    -0.281 N 
ATOM     18  C   UNL     1       0.310  -4.273  -0.751  0.00  0.00    +0.255 C 
ATOM     19  O   UNL     1      -0.518  -4.884  -1.400  0.00  0.00    -0.270 OA
ATOM     20  H   UNL     1       1.940  -4.458   0.420  0.00  0.00    +0.155 HD
BRANCH  18  21
ATOM     21  C   UNL     1       0.301  -2.800  -0.747  0.00  0.00    +0.122 A 
ATOM     22  C   UNL     1       1.237  -2.092  -0.013  0.00  0.00    +0.031 A 
ATOM     23  C   UNL     1       1.192  -0.675  -0.038  0.00  0.00    +0.019 A 
ATOM     24  C   UNL     1       2.125   0.073   0.695  0.00  0.00    +0.026 A 
ATOM     25  C   UNL     1       2.076   1.438   0.667  0.00  0.00    +0.019 A 
ATOM     26  C   UNL     1       1.107   2.091  -0.084  0.00  0.00    +0.019 A 
ATOM     27  C   UNL     1       0.180   1.375  -0.811  0.00  0.00    +0.048 A 
ATOM     28  C   UNL     1       0.210  -0.015  -0.798  0.00  0.00    +0.139 A 
ATOM     29  O   UNL     1      -0.699  -0.714  -1.512  0.00  0.00    -0.422 OA
ATOM     30  C   UNL     1      -0.700  -2.057  -1.522  0.00  0.00    +0.350 A 
ATOM     31  O   UNL     1      -1.532  -2.659  -2.174  0.00  0.00    -0.244 OA
ATOM     32 BR   UNL     1       3.335   2.444   1.656  0.00  0.00    -0.050 Br
ENDBRANCH  18  21
ENDBRANCH   4  17
TORSDOF 4
