REMARK  Name = ZINC35656703
REMARK  10 active torsions:
REMARK  status: ('A' for Active; 'I' for Inactive)
REMARK    1  A    between atoms: C_1  and  C_2
REMARK    2  A    between atoms: C_2  and  O_3
REMARK    3  A    between atoms: O_3  and  C_4
REMARK    4  A    between atoms: C_6  and  C_15
REMARK    5  A    between atoms: C_9  and  O_10
REMARK    6  A    between atoms: O_10  and  C_11
REMARK    7  A    between atoms: C_11  and  C_12
REMARK    8  A    between atoms: N_19  and  C_32
REMARK    9  A    between atoms: N_21  and  C_22
REMARK   10  A    between atoms: C_25  and  C_28
REMARK                            x       y       z     vdW  Elec       q    Type
REMARK                         _______ _______ _______ _____ _____    ______ ____
ROOT
ATOM      1  C   UNL     1       2.029  -5.379   0.879  0.00  0.00    +0.028 C 
ATOM      2  C   UNL     1       1.548  -6.618   0.600  0.00  0.00    +0.078 C 
ATOM      3  C   UNL     1       1.098  -7.677   1.523  0.00  0.00    +0.259 C 
ATOM      4  O   UNL     1       1.119  -7.521   2.730  0.00  0.00    -0.269 OA
ATOM      5  N   UNL     1       0.671  -8.804   0.979  0.00  0.00    -0.249 N 
ATOM      6  C   UNL     1       0.654  -8.962  -0.388  0.00  0.00    +0.168 C 
ATOM      7  N   UNL     1       0.263 -10.008  -1.086  0.00  0.00    -0.226 NA
ATOM      8  S   UNL     1       1.283  -7.401  -0.984  0.00  0.00    -0.049 S 
ATOM      9  C   UNL     1       0.210  -9.896   1.841  0.00  0.00    +0.140 C 
ENDROOT
BRANCH   1  12
ATOM     10  C   UNL     1       3.206  -2.378  -1.038  0.00  0.00    +0.164 A 
ATOM     11  C   UNL     1       2.693  -3.159  -0.021  0.00  0.00    +0.057 A 
ATOM     12  C   UNL     1       2.573  -4.543  -0.198  0.00  0.00    -0.019 A 
ATOM     13  C   UNL     1       2.974  -5.127  -1.406  0.00  0.00    +0.027 A 
ATOM     14  C   UNL     1       3.485  -4.339  -2.415  0.00  0.00    +0.064 A 
ATOM     15  C   UNL     1       3.598  -2.966  -2.240  0.00  0.00    +0.176 A 
ATOM     16 BR   UNL     1       4.027  -5.129  -4.046  0.00  0.00    -0.046 Br
BRANCH  10  17
ATOM     17  O   UNL     1       3.324  -1.034  -0.869  0.00  0.00    -0.489 OA
BRANCH  17  19
ATOM     18  C   UNL     1       3.110   1.018   0.391  0.00  0.00    +0.048 C 
ATOM     19  C   UNL     1       2.903  -0.498   0.387  0.00  0.00    +0.226 C 
ENDBRANCH  17  19
ENDBRANCH  10  17
BRANCH  15  20
ATOM     20  O   UNL     1       4.097  -2.194  -3.240  0.00  0.00    -0.483 OA
BRANCH  20  21
ATOM     21  C   UNL     1       5.511  -1.986  -3.256  0.00  0.00    +0.256 C 
BRANCH  21  22
ATOM     22  C   UNL     1       5.877  -1.113  -4.428  0.00  0.00    +0.006 C 
ATOM     23  C   UNL     1       6.719  -0.121  -4.268  0.00  0.00    +0.007 C 
ENDBRANCH  21  22
ENDBRANCH  20  21
ENDBRANCH  15  20
ENDBRANCH   1  12
BRANCH   7  24
ATOM     24  C   UNL     1      -0.068 -11.166  -0.451  0.00  0.00    +0.067 A 
ATOM     25  C   UNL     1      -1.389 -11.387  -0.041  0.00  0.00    +0.028 A 
ATOM     26  C   UNL     1      -1.721 -12.547   0.595  0.00  0.00    +0.017 A 
ATOM     27  C   UNL     1      -0.740 -13.518   0.838  0.00  0.00    +0.063 A 
ATOM     28  C   UNL     1       0.582 -13.296   0.428  0.00  0.00    +0.017 A 
ATOM     29  C   UNL     1       0.912 -12.139  -0.213  0.00  0.00    +0.028 A 
BRANCH  27  30
ATOM     30  C   UNL     1      -1.097 -14.767   1.524  0.00  0.00    +0.387 C 
ATOM     31  O   UNL     1      -2.251 -14.960   1.883  0.00  0.00    -0.241 OA
ATOM     32  O   UNL     1      -0.240 -15.615   1.736  0.00  0.00    -0.241 OA
ENDBRANCH  27  30
ENDBRANCH   7  24
TORSDOF 8
