REMARK  Name = ZINC39324892
REMARK  8 active torsions:
REMARK  status: ('A' for Active; 'I' for Inactive)
REMARK    1  A    between atoms: C_1  and  O_2
REMARK    2  A    between atoms: O_2  and  C_3
REMARK    3  A    between atoms: C_10  and  C_15
REMARK    4  A    between atoms: C_15  and  N_16
REMARK    5  A    between atoms: N_16  and  C_17
REMARK    6  A    between atoms: N_16  and  S_24
REMARK    7  A    between atoms: C_17  and  C_18
REMARK    8  A    between atoms: S_24  and  C_27
REMARK                            x       y       z     vdW  Elec       q    Type
REMARK                         _______ _______ _______ _____ _____    ______ ____
ROOT
ATOM      1  N   UNL     1       3.873  -6.194   4.117  0.00  0.00    -0.171 NA
ENDROOT
BRANCH   1   2
ATOM      2  S   UNL     1       5.097  -5.488   4.980  0.00  0.00    +0.063 S 
ATOM      3  O   UNL     1       4.599  -4.242   5.447  0.00  0.00    -0.153 OA
ATOM      4  O   UNL     1       5.602  -6.484   5.858  0.00  0.00    -0.153 OA
BRANCH   2   5
ATOM      5  C   UNL     1       6.390  -5.118   3.841  0.00  0.00    +0.134 A 
ATOM      6  C   UNL     1       6.684  -3.830   3.548  0.00  0.00    +0.031 A 
ATOM      7  C   UNL     1       7.701  -3.500   2.652  0.00  0.00    +0.004 A 
ATOM      8  C   UNL     1       8.438  -4.454   2.037  0.00  0.00    +0.031 A 
ATOM      9  C   UNL     1       8.186  -5.828   2.296  0.00  0.00    +0.102 A 
ATOM     10  C   UNL     1       7.127  -6.173   3.237  0.00  0.00    +0.126 A 
ATOM     11  N   UNL     1       6.984  -7.488   3.407  0.00  0.00    -0.189 NA
ATOM     12  S   UNL     1       8.094  -8.171   2.464  0.00  0.00    +0.117 S 
ATOM     13  N   UNL     1       8.804  -6.895   1.788  0.00  0.00    -0.191 NA
ENDBRANCH   2   5
ENDBRANCH   1   2
BRANCH   1  14
ATOM     14  C   UNL     1       3.267  -5.483   2.989  0.00  0.00    +0.126 C 
BRANCH  14  22
ATOM     15  C   UNL     1      -0.637  -1.595   1.058  0.00  0.00    +0.121 A 
ATOM     16  C   UNL     1      -0.616  -0.901   2.274  0.00  0.00    +0.047 A 
ATOM     17  C   UNL     1      -0.037  -1.406   3.394  0.00  0.00    +0.027 A 
ATOM     18  C   UNL     1       0.578  -2.671   3.374  0.00  0.00    +0.041 A 
ATOM     19  N   UNL     1       1.143  -3.154   4.481  0.00  0.00    -0.284 N 
ATOM     20  C   UNL     1       1.737  -4.334   4.533  0.00  0.00    +0.225 C 
ATOM     21  O   UNL     1       2.235  -4.722   5.573  0.00  0.00    -0.275 OA
ATOM     22  C   UNL     1       1.795  -5.200   3.295  0.00  0.00    +0.114 C 
ATOM     23  C   UNL     1       1.154  -4.656   2.033  0.00  0.00    -0.003 C 
ATOM     24  C   UNL     1       0.572  -3.426   2.108  0.00  0.00    -0.004 A 
ATOM     25  C   UNL     1      -0.074  -2.829   0.939  0.00  0.00    +0.055 A 
ATOM     26  H   UNL     1       1.117  -2.614   5.286  0.00  0.00    +0.155 HD
BRANCH  15  28
ATOM     27  C   UNL     1      -1.809   0.268   0.159  0.00  0.00    +0.277 C 
ATOM     28  O   UNL     1      -1.235  -1.028  -0.023  0.00  0.00    -0.495 OA
ENDBRANCH  15  28
ENDBRANCH  14  22
ENDBRANCH   1  14
BRANCH   1  29
ATOM     29  C   UNL     1       3.395  -7.530   4.483  0.00  0.00    +0.144 C 
BRANCH  29  30
ATOM     30  C   UNL     1       4.099  -8.563   3.641  0.00  0.00    -0.032 A 
ATOM     31  C   UNL     1       3.561  -8.950   2.427  0.00  0.00    +0.005 A 
ATOM     32  C   UNL     1       4.207  -9.897   1.655  0.00  0.00    +0.000 A 
ATOM     33  C   UNL     1       5.391 -10.458   2.096  0.00  0.00    +0.000 A 
ATOM     34  C   UNL     1       5.929 -10.071   3.309  0.00  0.00    +0.000 A 
ATOM     35  C   UNL     1       5.286  -9.120   4.079  0.00  0.00    +0.005 A 
ENDBRANCH  29  30
ENDBRANCH   1  29
TORSDOF 7
