REMARK  Name = ZINC02704080
REMARK  5 active torsions:
REMARK  status: ('A' for Active; 'I' for Inactive)
REMARK    1  A    between atoms: C_1  and  C_2
REMARK    2  A    between atoms: N_15  and  C_25
REMARK    3  A    between atoms: C_16  and  C_18
REMARK    4  A    between atoms: C_21  and  O_24
REMARK    5  A    between atoms: C_25  and  C_26
REMARK                            x       y       z     vdW  Elec       q    Type
REMARK                         _______ _______ _______ _____ _____    ______ ____
ROOT
ATOM      1  C   UNL     1       1.646  -2.912  12.153  0.00  0.00    +0.044 C 
ATOM      2  C   UNL     1       1.473  -3.115  10.670  0.00  0.00    -0.050 A 
ATOM      3  C   UNL     1       0.306  -3.687  10.183  0.00  0.00    +0.007 A 
ATOM      4  C   UNL     1       0.126  -3.882   8.831  0.00  0.00    +0.047 A 
ATOM      5  C   UNL     1       1.123  -3.501   7.937  0.00  0.00    +0.139 A 
ATOM      6  C   UNL     1       2.301  -2.922   8.439  0.00  0.00    +0.065 A 
ATOM      7  C   UNL     1       2.466  -2.733   9.810  0.00  0.00    +0.018 A 
ATOM      8  C   UNL     1       3.346  -2.525   7.475  0.00  0.00    +0.199 A 
ATOM      9  O   UNL     1       4.392  -2.018   7.839  0.00  0.00    -0.287 OA
ATOM     10  C   UNL     1       3.062  -2.771   6.058  0.00  0.00    +0.072 A 
ATOM     11  C   UNL     1       1.886  -3.338   5.695  0.00  0.00    +0.199 A 
ATOM     12  O   UNL     1       0.963  -3.684   6.614  0.00  0.00    -0.450 OA
ATOM     13  C   UNL     1       1.867  -3.469   4.216  0.00  0.00    +0.283 C 
ATOM     14  O   UNL     1       0.952  -3.940   3.571  0.00  0.00    -0.267 OA
ATOM     15  N   UNL     1       3.010  -2.990   3.693  0.00  0.00    -0.279 N 
ATOM     16  C   UNL     1       3.852  -2.521   4.800  0.00  0.00    +0.145 C 
ENDROOT
BRANCH  16  17
ATOM     17  C   UNL     1       5.144  -3.296   4.833  0.00  0.00    -0.022 A 
ATOM     18  C   UNL     1       5.140  -4.657   4.590  0.00  0.00    +0.009 A 
ATOM     19  C   UNL     1       6.324  -5.368   4.614  0.00  0.00    +0.046 A 
ATOM     20  C   UNL     1       7.517  -4.717   4.893  0.00  0.00    +0.117 A 
ATOM     21  C   UNL     1       7.518  -3.352   5.142  0.00  0.00    +0.046 A 
ATOM     22  C   UNL     1       6.332  -2.645   5.111  0.00  0.00    +0.009 A 
BRANCH  20  23
ATOM     23  O   UNL     1       8.682  -5.416   4.924  0.00  0.00    -0.507 OA
ATOM     24  H   UNL     1       8.903  -5.775   5.794  0.00  0.00    +0.292 HD
ENDBRANCH  20  23
ENDBRANCH  16  17
BRANCH  15  25
ATOM     25  C   UNL     1       3.355  -2.950   2.270  0.00  0.00    +0.144 C 
BRANCH  25  26
ATOM     26  C   UNL     1       2.886  -1.647   1.676  0.00  0.00    -0.026 A 
ATOM     27  C   UNL     1       3.724  -0.547   1.675  0.00  0.00    +0.009 A 
ATOM     28  C   UNL     1       3.298   0.650   1.131  0.00  0.00    +0.050 A 
ATOM     29  C   UNL     1       2.028   0.751   0.586  0.00  0.00    +0.166 A 
ATOM     30  C   UNL     1       1.183  -0.356   0.589  0.00  0.00    +0.167 A 
ATOM     31  C   UNL     1       1.617  -1.553   1.135  0.00  0.00    +0.054 A 
ATOM     32  O   UNL     1       0.002  -0.004   0.002  0.00  0.00    -0.453 OA
ATOM     33  C   UNL     1      -0.018   1.436   0.010  0.00  0.00    +0.466 C 
ATOM     34  O   UNL     1       1.376   1.797  -0.001  0.00  0.00    -0.453 OA
ENDBRANCH  25  26
ENDBRANCH  15  25
TORSDOF 4
