REMARK  Name = ZINC16476492
REMARK  13 active torsions:
REMARK  status: ('A' for Active; 'I' for Inactive)
REMARK    1  A    between atoms: C_1  and  C_2
REMARK    2  A    between atoms: C_2  and  O_3
REMARK    3  A    between atoms: O_3  and  C_4
REMARK    4  A    between atoms: C_4  and  C_6
REMARK    5  A    between atoms: C_8  and  C_27
REMARK    6  A    between atoms: C_10  and  N_11
REMARK    7  A    between atoms: C_12  and  C_14
REMARK    8  A    between atoms: C_14  and  C_16
REMARK    9  A    between atoms: C_14  and  N_62
REMARK   10  A    between atoms: C_19  and  C_22
REMARK   11  A    between atoms: C_22  and  O_24
REMARK   12  A    between atoms: O_24  and  C_25
REMARK   13  A    between atoms: C_25  and  C_26
REMARK                            x       y       z     vdW  Elec       q    Type
REMARK                         _______ _______ _______ _____ _____    ______ ____
ROOT
ATOM      1  N   UNL     1      -1.347   5.804   8.559  0.00  0.00    -0.281 N 
ATOM      2  C   UNL     1      -0.975   5.103   7.470  0.00  0.00    +0.204 C 
ATOM      3  O   UNL     1      -0.528   5.680   6.501  0.00  0.00    -0.277 OA
ATOM      4  H   UNL     1      -1.705   5.343   9.334  0.00  0.00    +0.155 HD
ENDROOT
BRANCH   1   9
ATOM      5  C   UNL     1      -1.545   8.076   9.592  0.00  0.00    +0.088 A 
ATOM      6  C   UNL     1      -1.320   9.433   9.360  0.00  0.00    +0.033 A 
ATOM      7  C   UNL     1      -0.799   9.790   8.155  0.00  0.00    +0.022 A 
ATOM      8  S   UNL     1      -0.608   8.223   7.328  0.00  0.00    -0.073 S 
ATOM      9  C   UNL     1      -1.220   7.183   8.572  0.00  0.00    +0.086 A 
BRANCH   7  10
ATOM     10  C   UNL     1      -0.469  11.142   7.657  0.00  0.00    -0.011 A 
ATOM     11  C   UNL     1      -0.693  12.260   8.462  0.00  0.00    +0.009 A 
ATOM     12  C   UNL     1      -0.377  13.519   7.994  0.00  0.00    +0.001 A 
ATOM     13  C   UNL     1       0.150  13.675   6.724  0.00  0.00    +0.000 A 
ATOM     14  C   UNL     1       0.370  12.572   5.919  0.00  0.00    +0.001 A 
ATOM     15  C   UNL     1       0.064  11.307   6.377  0.00  0.00    +0.009 A 
ENDBRANCH   7  10
BRANCH   5  16
ATOM     16  C   UNL     1      -2.104   7.606  10.863  0.00  0.00    +0.342 C 
ATOM     17  O   UNL     1      -2.291   6.417  11.042  0.00  0.00    -0.245 OA
BRANCH  16  18
ATOM     18  O   UNL     1      -2.410   8.491  11.833  0.00  0.00    -0.461 OA
BRANCH  18  20
ATOM     19  C   UNL     1      -3.243   9.099  14.039  0.00  0.00    +0.048 C 
ATOM     20  C   UNL     1      -2.960   7.954  13.065  0.00  0.00    +0.229 C 
ENDBRANCH  18  20
ENDBRANCH  16  18
ENDBRANCH   5  16
ENDBRANCH   1   9
BRANCH   2  21
ATOM     21  C   UNL     1      -1.114   3.603   7.455  0.00  0.00    +0.016 C 
ATOM     22  C   UNL     1      -2.583   3.225   7.654  0.00  0.00    -0.004 C 
BRANCH  21  28
ATOM     23  C   UNL     1      -0.653   1.611   6.158  0.00  0.00    -0.077 C 
ATOM     24  C   UNL     1      -0.023   1.103   4.859  0.00  0.00    -0.004 C 
ATOM     25  C   UNL     1      -0.817   1.643   3.667  0.00  0.00    +0.094 C 
ATOM     26  C   UNL     1      -0.834   3.173   3.724  0.00  0.00    -0.004 C 
ATOM     27  C   UNL     1      -1.439   3.622   5.056  0.00  0.00    -0.077 C 
ATOM     28  N   UNL     1      -0.615   3.089   6.163  0.00  0.00    +0.387 N 
ATOM     29  H   UNL     1       0.355   3.398   6.033  0.00  0.00    -0.081 HD
BRANCH  25  30
ATOM     30  C   UNL     1      -0.166   1.194   2.384  0.00  0.00    +0.310 C 
ATOM     31  O   UNL     1       0.829   0.510   2.418  0.00  0.00    -0.251 OA
BRANCH  30  32
ATOM     32  O   UNL     1      -0.692   1.554   1.203  0.00  0.00    -0.465 OA
BRANCH  32  33
ATOM     33  C   UNL     1      -0.013   1.086   0.008  0.00  0.00    +0.229 C 
ATOM     34  C   UNL     1      -0.753   1.593  -1.232  0.00  0.00    +0.048 C 
ENDBRANCH  32  33
ENDBRANCH  30  32
ENDBRANCH  25  30
ENDBRANCH  21  28
ENDBRANCH   2  21
TORSDOF 10
