REMARK  Name = ZINC13024130
REMARK  16 active torsions:
REMARK  status: ('A' for Active; 'I' for Inactive)
REMARK    1  A    between atoms: C_1  and  C_2
REMARK    2  A    between atoms: C_2  and  C_3
REMARK    3  A    between atoms: C_3  and  C_4
REMARK    4  A    between atoms: C_3  and  C_5
REMARK    5  A    between atoms: C_3  and  N_6
REMARK    6  A    between atoms: C_7  and  C_9
REMARK    7  A    between atoms: C_9  and  C_11
REMARK    8  A    between atoms: C_9  and  N_21
REMARK    9  A    between atoms: C_14  and  O_19
REMARK   10  A    between atoms: C_15  and  O_17
REMARK   11  A    between atoms: O_17  and  C_18
REMARK   12  A    between atoms: O_19  and  C_20
REMARK   13  A    between atoms: N_21  and  C_22
REMARK   14  A    between atoms: C_22  and  C_23
REMARK   15  A    between atoms: C_29  and  C_31
REMARK   16  A    between atoms: C_31  and  N_32
REMARK                            x       y       z     vdW  Elec       q    Type
REMARK                         _______ _______ _______ _____ _____    ______ ____
ROOT
ATOM      1  C   UNL     1      -5.883   3.314   1.598  0.00  0.00    +0.193 C 
ENDROOT
BRANCH   1   2
ATOM      2  C   UNL     1      -5.005   2.722   0.527  0.00  0.00    -0.015 A 
ATOM      3  C   UNL     1      -5.038   3.237  -0.756  0.00  0.00    +0.010 A 
ATOM      4  C   UNL     1      -4.234   2.698  -1.742  0.00  0.00    +0.050 A 
ATOM      5  C   UNL     1      -3.392   1.638  -1.447  0.00  0.00    +0.162 A 
ATOM      6  C   UNL     1      -3.358   1.119  -0.156  0.00  0.00    +0.162 A 
ATOM      7  C   UNL     1      -4.162   1.668   0.829  0.00  0.00    +0.055 A 
BRANCH   6   8
ATOM      8  O   UNL     1      -2.533   0.079   0.139  0.00  0.00    -0.491 OA
ATOM      9  C   UNL     1      -2.550  -0.402   1.484  0.00  0.00    +0.277 C 
ENDBRANCH   6   8
BRANCH   5  10
ATOM     10  O   UNL     1      -2.600   1.106  -2.416  0.00  0.00    -0.491 OA
ATOM     11  C   UNL     1      -2.688   1.689  -3.718  0.00  0.00    +0.277 C 
ENDBRANCH   5  10
ENDBRANCH   1   2
BRANCH   1  13
ATOM     12  N   UNL     1      -7.755   1.849   2.284  0.00  0.00    -0.308 N 
ATOM     13  C   UNL     1      -7.288   2.792   1.441  0.00  0.00    +0.239 C 
ATOM     14  O   UNL     1      -7.999   3.221   0.557  0.00  0.00    -0.273 OA
ATOM     15  H   UNL     1      -7.209   1.550   3.027  0.00  0.00    +0.149 HD
BRANCH  12  16
ATOM     16  C   UNL     1      -9.087   1.276   2.076  0.00  0.00    +0.029 C 
ATOM     17  C   UNL     1     -10.143   2.373   2.225  0.00  0.00    +0.031 C 
ATOM     18  C   UNL     1      -9.170   0.676   0.671  0.00  0.00    +0.031 C 
BRANCH  16  20
ATOM     19  C   UNL     1     -10.729  -0.418   2.897  0.00  0.00    +0.006 C 
ATOM     20  C   UNL     1      -9.338   0.181   3.114  0.00  0.00    +0.022 C 
ENDBRANCH  16  20
ENDBRANCH  12  16
ENDBRANCH   1  13
BRANCH   1  21
ATOM     21  N   UNL     1      -5.887   4.774   1.475  0.00  0.00    -0.280 N 
ATOM     22  C   UNL     1      -5.257   5.530   2.395  0.00  0.00    +0.238 C 
ATOM     23  O   UNL     1      -4.614   5.001   3.277  0.00  0.00    -0.274 OA
BRANCH  21  24
ATOM     24  C   UNL     1      -6.577   5.412   0.351  0.00  0.00    +0.144 C 
BRANCH  24  25
ATOM     25  C   UNL     1      -7.678   6.298   0.874  0.00  0.00    -0.030 A 
ATOM     26  C   UNL     1      -8.169   6.107   2.152  0.00  0.00    +0.005 A 
ATOM     27  C   UNL     1      -9.176   6.923   2.634  0.00  0.00    +0.000 A 
ATOM     28  C   UNL     1      -9.697   7.923   1.834  0.00  0.00    +0.000 A 
ATOM     29  C   UNL     1      -9.209   8.110   0.554  0.00  0.00    +0.000 A 
ATOM     30  C   UNL     1      -8.199   7.297   0.074  0.00  0.00    +0.005 A 
ENDBRANCH  24  25
ENDBRANCH  21  24
BRANCH  22  31
ATOM     31  C   UNL     1      -5.350   7.032   2.329  0.00  0.00    +0.241 C 
BRANCH  31  32
ATOM     32  N   UNL     1      -4.509   7.621   3.373  0.00  0.00    -0.235 N 
ATOM     33  C   UNL     1      -4.888   7.930   4.658  0.00  0.00    +0.090 A 
ATOM     34  C   UNL     1      -6.077   7.809   5.370  0.00  0.00    +0.029 A 
ATOM     35  C   UNL     1      -6.135   8.223   6.671  0.00  0.00    +0.002 A 
ATOM     36  C   UNL     1      -5.013   8.756   7.294  0.00  0.00    +0.002 A 
ATOM     37  C   UNL     1      -3.834   8.881   6.619  0.00  0.00    +0.032 A 
ATOM     38  C   UNL     1      -3.750   8.468   5.282  0.00  0.00    +0.113 A 
ATOM     39  N   UNL     1      -2.749   8.466   4.379  0.00  0.00    -0.129 NA
ATOM     40  N   UNL     1      -3.158   7.981   3.260  0.00  0.00    -0.064 NA
ENDBRANCH  31  32
ENDBRANCH  22  31
ENDBRANCH   1  21
TORSDOF 11
