REMARK  Name = ZINC08594489
REMARK  11 active torsions:
REMARK  status: ('A' for Active; 'I' for Inactive)
REMARK    1  A    between atoms: C_1  and  C_2
REMARK    2  A    between atoms: C_2  and  N_3
REMARK    3  A    between atoms: N_3  and  C_4
REMARK    4  A    between atoms: N_3  and  C_6
REMARK    5  A    between atoms: C_4  and  C_5
REMARK    6  A    between atoms: C_6  and  C_7
REMARK    7  A    between atoms: C_7  and  N_8
REMARK    8  A    between atoms: C_9  and  C_11
REMARK    9  A    between atoms: C_21  and  C_24
REMARK   10  A    between atoms: C_25  and  C_35
REMARK   11  A    between atoms: N_26  and  C_28
REMARK                            x       y       z     vdW  Elec       q    Type
REMARK                         _______ _______ _______ _____ _____    ______ ____
ROOT
ATOM      1  C   UNL     1      -3.300  -5.833  -1.371  0.00  0.00    +0.092 C 
ATOM      2  C   UNL     1      -2.554  -6.253  -2.639  0.00  0.00    +0.016 C 
ATOM      3  C   UNL     1      -2.758  -7.750  -2.881  0.00  0.00    +0.020 C 
ATOM      4  C   UNL     1      -4.250  -8.032  -3.083  0.00  0.00    +0.106 C 
ATOM      5  N   UNL     1      -4.991  -7.500  -1.931  0.00  0.00    -0.311 N 
ATOM      6  C   UNL     1      -4.798  -6.093  -1.554  0.00  0.00    +0.119 C 
ATOM      7  C   UNL     1      -5.856  -8.311  -1.213  0.00  0.00    +0.172 A 
ATOM      8  C   UNL     1      -6.050  -9.714  -1.578  0.00  0.00    +0.137 A 
ATOM      9  C   UNL     1      -6.995 -10.484  -0.745  0.00  0.00    +0.049 A 
ATOM     10  C   UNL     1      -7.619  -9.796   0.318  0.00  0.00    +0.072 A 
ATOM     11  N   UNL     1      -7.342  -8.533   0.519  0.00  0.00    -0.152 NA
ATOM     12  N   UNL     1      -6.526  -7.840  -0.178  0.00  0.00    -0.132 NA
ATOM     13  C   UNL     1      -8.597 -10.510   1.215  0.00  0.00    +0.068 C 
ATOM     14  C   UNL     1      -7.018 -11.760  -1.263  0.00  0.00    +0.051 A 
ATOM     15  N   UNL     1      -6.178 -11.794  -2.313  0.00  0.00    -0.236 N 
ATOM     16  N   UNL     1      -5.591 -10.534  -2.494  0.00  0.00    -0.163 NA
ATOM     17  C   UNL     1      -7.839 -12.913  -0.746  0.00  0.00    +0.066 C 
ENDROOT
BRANCH  15  18
ATOM     18  C   UNL     1      -5.926 -12.921  -3.106  0.00  0.00    +0.066 A 
ATOM     19  C   UNL     1      -6.973 -13.746  -3.495  0.00  0.00    +0.029 A 
ATOM     20  C   UNL     1      -6.722 -14.856  -4.277  0.00  0.00    +0.022 A 
ATOM     21  C   UNL     1      -5.429 -15.147  -4.672  0.00  0.00    +0.041 A 
ATOM     22  C   UNL     1      -4.383 -14.327  -4.285  0.00  0.00    +0.022 A 
ATOM     23  C   UNL     1      -4.629 -13.212  -3.509  0.00  0.00    +0.029 A 
ATOM     24 CL   UNL     1      -5.117 -16.544  -5.654  0.00  0.00    -0.084 Cl
ENDBRANCH  15  18
BRANCH   1  26
ATOM     25  N   UNL     1      -1.821  -3.901  -0.924  0.00  0.00    -0.317 N 
ATOM     26  C   UNL     1      -3.072  -4.366  -1.115  0.00  0.00    +0.218 C 
ATOM     27  O   UNL     1      -4.014  -3.602  -1.082  0.00  0.00    -0.275 OA
ATOM     28  H   UNL     1      -1.068  -4.512  -0.951  0.00  0.00    +0.149 HD
BRANCH  25  29
ATOM     29  C   UNL     1      -1.600  -2.474  -0.676  0.00  0.00    +0.085 C 
BRANCH  29  30
ATOM     30  C   UNL     1      -0.103  -2.215  -0.494  0.00  0.00    -0.060 C 
BRANCH  30  31
ATOM     31  N   UNL     1       0.119  -0.784  -0.245  0.00  0.00    +0.380 N 
ATOM     32  H   UNL     1      -0.295  -0.245  -0.991  0.00  0.00    -0.082 HD
BRANCH  31  34
ATOM     33  C   UNL     1      -0.393   1.106   1.225  0.00  0.00    -0.017 C 
ATOM     34  C   UNL     1      -0.498  -0.408   1.033  0.00  0.00    -0.082 C 
ENDBRANCH  31  34
BRANCH  31  35
ATOM     35  C   UNL     1       1.562  -0.515  -0.190  0.00  0.00    -0.082 C 
ATOM     36  C   UNL     1       2.182  -0.769  -1.565  0.00  0.00    -0.017 C 
ENDBRANCH  31  35
ENDBRANCH  30  31
ENDBRANCH  29  30
ENDBRANCH  25  29
ENDBRANCH   1  26
TORSDOF 7
