REMARK  Name = ZINC50916241
REMARK  5 active torsions:
REMARK  status: ('A' for Active; 'I' for Inactive)
REMARK    1  A    between atoms: C_1  and  C_2
REMARK    2  A    between atoms: C_7  and  N_12
REMARK    3  A    between atoms: C_9  and  C_11
REMARK    4  A    between atoms: C_13  and  C_15
REMARK    5  A    between atoms: C_15  and  C_16
REMARK                            x       y       z     vdW  Elec       q    Type
REMARK                         _______ _______ _______ _____ _____    ______ ____
ROOT
ATOM      1  C   UNL     1      -0.019   1.526   0.010  0.00  0.00    +0.008 C 
ATOM      2  C   UNL     1       0.002  -0.004   0.002  0.00  0.00    -0.009 C 
ATOM      3  C   UNL     1      -1.433  -0.534   0.013  0.00  0.00    +0.003 C 
ATOM      4  C   UNL     1      -1.413  -2.063   0.004  0.00  0.00    +0.002 C 
ATOM      5  C   UNL     1      -0.673  -2.570   1.244  0.00  0.00    +0.022 C 
ATOM      6  C   UNL     1       0.763  -2.041   1.233  0.00  0.00    +0.076 C 
ATOM      7  C   UNL     1       0.742  -0.511   1.242  0.00  0.00    +0.009 C 
ATOM      8  C   UNL     1       0.026  -0.018   2.500  0.00  0.00    +0.009 C 
ENDROOT
BRANCH   6   9
ATOM      9  N   UNL     1       1.471  -2.526   2.420  0.00  0.00    -0.312 N 
ATOM     10  C   UNL     1       2.056  -3.740   2.406  0.00  0.00    +0.224 C 
ATOM     11  O   UNL     1       1.996  -4.431   1.411  0.00  0.00    -0.275 OA
ATOM     12  H   UNL     1       1.520  -1.974   3.216  0.00  0.00    +0.149 HD
BRANCH  10  13
ATOM     13  C   UNL     1       2.785  -4.239   3.627  0.00  0.00    +0.220 C 
BRANCH  13  14
ATOM     14  C   UNL     1       3.344  -5.612   3.353  0.00  0.00    +0.365 C 
ATOM     15  O   UNL     1       3.166  -6.136   2.266  0.00  0.00    -0.246 OA
ATOM     16  O   UNL     1       3.973  -6.198   4.217  0.00  0.00    -0.246 OA
ENDBRANCH  13  14
ENDBRANCH  10  13
ENDBRANCH   6   9
TORSDOF 3
