REMARK  Name = ZINC23660796
REMARK  9 active torsions:
REMARK  status: ('A' for Active; 'I' for Inactive)
REMARK    1  A    between atoms: C_1  and  O_2
REMARK    2  A    between atoms: O_2  and  C_3
REMARK    3  A    between atoms: C_6  and  S_22
REMARK    4  A    between atoms: C_8  and  C_9
REMARK    5  A    between atoms: N_11  and  C_12
REMARK    6  A    between atoms: C_17  and  C_18
REMARK    7  A    between atoms: C_18  and  O_20
REMARK    8  A    between atoms: O_20  and  C_21
REMARK    9  A    between atoms: S_22  and  N_25
REMARK                            x       y       z     vdW  Elec       q    Type
REMARK                         _______ _______ _______ _____ _____    ______ ____
ROOT
ATOM      1  C   UNL     1       4.291   3.011  -0.005  0.00  0.00    +0.132 A 
ATOM      2  C   UNL     1       3.632   2.768   1.191  0.00  0.00    +0.048 A 
ATOM      3  C   UNL     1       2.322   2.333   1.184  0.00  0.00    +0.032 A 
ATOM      4  C   UNL     1       1.659   2.125  -0.015  0.00  0.00    +0.110 A 
ATOM      5  C   UNL     1       2.298   2.361  -1.212  0.00  0.00    +0.045 A 
ATOM      6  C   UNL     1       3.622   2.807  -1.220  0.00  0.00    +0.080 A 
ENDROOT
BRANCH   6   7
ATOM      7  C   UNL     1       4.312   3.061  -2.498  0.00  0.00    +0.252 C 
ATOM      8  O   UNL     1       5.465   3.450  -2.500  0.00  0.00    -0.270 OA
ATOM      9  N   UNL     1       3.666   2.864  -3.664  0.00  0.00    -0.281 N 
ATOM     10  H   UNL     1       2.649   2.443  -3.665  0.00  0.00    +0.155 HD
BRANCH   9  11
ATOM     11  C   UNL     1       4.284   3.191  -4.867  0.00  0.00    +0.048 A 
ATOM     12  C   UNL     1       5.653   3.016  -5.018  0.00  0.00    +0.024 A 
ATOM     13  C   UNL     1       6.264   3.338  -6.213  0.00  0.00    +0.002 A 
ATOM     14  C   UNL     1       5.520   3.846  -7.267  0.00  0.00    +0.001 A 
ATOM     15  C   UNL     1       4.162   4.032  -7.133  0.00  0.00    +0.017 A 
ATOM     16  C   UNL     1       3.528   3.706  -5.931  0.00  0.00    +0.080 A 
BRANCH  16  17
ATOM     17  C   UNL     1       2.075   3.903  -5.782  0.00  0.00    +0.341 C 
ATOM     18  O   UNL     1       1.544   3.712  -4.706  0.00  0.00    -0.245 OA
BRANCH  17  19
ATOM     19  O   UNL     1       1.336   4.294  -6.838  0.00  0.00    -0.464 OA
ATOM     20  C   UNL     1      -0.089   4.468  -6.618  0.00  0.00    +0.280 C 
ENDBRANCH  17  19
ENDBRANCH  16  17
ENDBRANCH   9  11
ENDBRANCH   6   7
BRANCH   4  21
ATOM     21  S   UNL     1      -0.011   1.562  -0.008  0.00  0.00    +0.075 S 
ATOM     22  O   UNL     1      -0.583   1.972  -1.242  0.00  0.00    -0.150 OA
ATOM     23  O   UNL     1      -0.560   1.936   1.248  0.00  0.00    -0.150 OA
BRANCH  21  24
ATOM     24  N   UNL     1       0.030  -0.093  -0.032  0.00  0.00    -0.202 N 
ATOM     25  C   UNL     1       0.062  -0.950   1.157  0.00  0.00    +0.136 C 
ATOM     26  C   UNL     1       0.092  -2.389   0.616  0.00  0.00    +0.058 C 
ATOM     27  C   UNL     1       0.075  -2.229  -0.888  0.00  0.00    -0.023 A 
ATOM     28  C   UNL     1       0.034  -0.876  -1.188  0.00  0.00    +0.054 A 
ATOM     29  C   UNL     1       0.005  -0.479  -2.526  0.00  0.00    +0.025 A 
ATOM     30  C   UNL     1       0.014  -1.422  -3.531  0.00  0.00    +0.002 A 
ATOM     31  C   UNL     1       0.052  -2.769  -3.222  0.00  0.00    +0.000 A 
ATOM     32  C   UNL     1       0.090  -3.170  -1.899  0.00  0.00    +0.005 A 
ENDBRANCH  21  24
ENDBRANCH   4  21
BRANCH   1  34
ATOM     33  C   UNL     1       6.193   3.629   1.277  0.00  0.00    +0.277 C 
ATOM     34  O   UNL     1       5.576   3.444   0.001  0.00  0.00    -0.494 OA
ENDBRANCH   1  34
TORSDOF 7
