REMARK  Name = ZINC25111495
REMARK  9 active torsions:
REMARK  status: ('A' for Active; 'I' for Inactive)
REMARK    1  A    between atoms: C_1  and  C_2
REMARK    2  A    between atoms: C_2  and  O_3
REMARK    3  A    between atoms: O_3  and  C_4
REMARK    4  A    between atoms: C_4  and  C_6
REMARK    5  A    between atoms: C_7  and  C_19
REMARK    6  A    between atoms: C_12  and  C_14
REMARK    7  A    between atoms: C_19  and  O_20
REMARK    8  A    between atoms: O_20  and  C_21
REMARK    9  A    between atoms: C_21  and  C_23
REMARK                            x       y       z     vdW  Elec       q    Type
REMARK                         _______ _______ _______ _____ _____    ______ ____
ROOT
ATOM      1  C   UNL     1      -5.002   2.974  -2.494  0.00  0.00    +0.082 C 
ATOM      2  C   UNL     1      -4.078   2.035  -2.792  0.00  0.00    +0.061 C 
ATOM      3  N   UNL     1      -4.438   0.735  -3.006  0.00  0.00    -0.269 N 
ATOM      4  C   UNL     1      -5.701   0.295  -2.946  0.00  0.00    +0.304 C 
ATOM      5  O   UNL     1      -5.924  -0.882  -3.151  0.00  0.00    -0.252 OA
ATOM      6  N   UNL     1      -6.734   1.114  -2.663  0.00  0.00    -0.288 N 
ATOM      7  C   UNL     1      -6.451   2.538  -2.416  0.00  0.00    +0.150 C 
ATOM      8  H   UNL     1      -3.671  -0.016  -3.243  0.00  0.00    +0.156 HD
ATOM      9  H   UNL     1      -7.768   0.742  -2.616  0.00  0.00    +0.151 HD
ENDROOT
BRANCH   7  10
ATOM     10  C   UNL     1      -7.239   3.348  -3.414  0.00  0.00    +0.015 A 
ATOM     11  C   UNL     1      -7.910   4.511  -3.229  0.00  0.00    +0.013 A 
ATOM     12  C   UNL     1      -8.567   5.083  -4.302  0.00  0.00    +0.008 A 
ATOM     13  C   UNL     1      -8.530   4.459  -5.504  0.00  0.00    +0.045 A 
ATOM     14  S   UNL     1      -7.537   3.020  -5.143  0.00  0.00    -0.099 S 
ENDBRANCH   7  10
BRANCH   1  15
ATOM     15  C   UNL     1      -4.630   4.320  -2.267  0.00  0.00    +0.339 C 
ATOM     16  O   UNL     1      -4.547   4.744  -1.129  0.00  0.00    -0.245 OA
BRANCH  15  17
ATOM     17  O   UNL     1      -4.367   5.133  -3.311  0.00  0.00    -0.462 OA
BRANCH  17  19
ATOM     18  C   UNL     1      -3.740   7.243  -4.309  0.00  0.00    +0.048 C 
ATOM     19  C   UNL     1      -3.997   6.479  -3.008  0.00  0.00    +0.229 C 
ENDBRANCH  17  19
ENDBRANCH  15  17
ENDBRANCH   1  15
BRANCH   2  20
ATOM     20  C   UNL     1      -2.626   2.427  -2.884  0.00  0.00    +0.283 C 
BRANCH  20  21
ATOM     21  O   UNL     1      -1.878   1.764  -1.831  0.00  0.00    -0.456 OA
BRANCH  21  22
ATOM     22  C   UNL     1      -0.560   2.009  -1.773  0.00  0.00    +0.349 C 
ATOM     23  O   UNL     1      -0.047   2.752  -2.576  0.00  0.00    -0.247 OA
BRANCH  22  24
ATOM     24  C   UNL     1       0.282   1.356  -0.707  0.00  0.00    +0.286 C 
ATOM     25  C   UNL     1       0.315  -0.179  -0.898  0.00  0.00    +0.095 C 
ATOM     26  C   UNL     1       1.736  -0.515  -0.488  0.00  0.00    -0.000 A 
ATOM     27  C   UNL     1       2.346  -1.704  -0.157  0.00  0.00    +0.027 A 
ATOM     28  C   UNL     1       3.685  -1.721   0.193  0.00  0.00    +0.041 A 
ATOM     29  C   UNL     1       4.405  -0.539   0.208  0.00  0.00    +0.023 A 
ATOM     30  C   UNL     1       3.796   0.652  -0.127  0.00  0.00    +0.047 A 
ATOM     31  C   UNL     1       2.450   0.676  -0.483  0.00  0.00    +0.125 A 
ATOM     32  O   UNL     1       1.664   1.725  -0.852  0.00  0.00    -0.477 OA
ATOM     33 CL   UNL     1       4.458  -3.218   0.612  0.00  0.00    -0.084 Cl
ENDBRANCH  22  24
ENDBRANCH  21  22
ENDBRANCH  20  21
ENDBRANCH   2  20
TORSDOF 8
