REMARK  Name = ZINC46920910
REMARK  8 active torsions:
REMARK  status: ('A' for Active; 'I' for Inactive)
REMARK    1  A    between atoms: C_2  and  C_3
REMARK    2  A    between atoms: C_3  and  N_4
REMARK    3  A    between atoms: C_10  and  C_16
REMARK    4  A    between atoms: N_18  and  C_19
REMARK    5  A    between atoms: C_19  and  C_20
REMARK    6  A    between atoms: C_23  and  C_26
REMARK    7  A    between atoms: N_28  and  C_29
REMARK    8  A    between atoms: C_29  and  C_30
REMARK                            x       y       z     vdW  Elec       q    Type
REMARK                         _______ _______ _______ _____ _____    ______ ____
ROOT
ATOM      1  C   UNL     1      -1.785  -5.126  -6.562  0.00  0.00    +0.244 C 
ATOM      2  O   UNL     1      -1.339  -6.241  -6.374  0.00  0.00    -0.270 OA
ATOM      3  N   UNL     1      -2.272  -4.791  -7.774  0.00  0.00    -0.307 N 
ATOM      4  H   UNL     1      -2.628  -3.901  -7.924  0.00  0.00    +0.149 HD
ENDROOT
BRANCH   1  11
ATOM      5  N   UNL     1      -1.318  -1.700  -1.126  0.00  0.00    -0.283 N 
ATOM      6  C   UNL     1      -1.823  -1.291  -2.313  0.00  0.00    +0.263 A 
ATOM      7  O   UNL     1      -2.260  -0.164  -2.458  0.00  0.00    -0.267 OA
ATOM      8  C   UNL     1      -1.825  -2.258  -3.422  0.00  0.00    +0.065 A 
ATOM      9  C   UNL     1      -2.324  -1.927  -4.681  0.00  0.00    +0.016 A 
ATOM     10  C   UNL     1      -2.308  -2.853  -5.684  0.00  0.00    +0.014 A 
ATOM     11  C   UNL     1      -1.793  -4.136  -5.461  0.00  0.00    +0.039 A 
ATOM     12  C   UNL     1      -1.290  -4.488  -4.215  0.00  0.00    +0.041 A 
ATOM     13  C   UNL     1      -1.301  -3.548  -3.180  0.00  0.00    +0.080 A 
ATOM     14  N   UNL     1      -0.821  -3.846  -1.950  0.00  0.00    -0.222 NA
ATOM     15  C   UNL     1      -0.826  -2.965  -0.980  0.00  0.00    +0.183 A 
ATOM     16  S   UNL     1      -0.173  -3.438   0.587  0.00  0.00    -0.011 SA
BRANCH   5  17
ATOM     17  C   UNL     1      -1.293  -0.775   0.010  0.00  0.00    +0.154 C 
BRANCH  17  19
ATOM     18  C   UNL     1      -0.016   1.306   0.009  0.00  0.00    +0.005 C 
ATOM     19  C   UNL     1       0.002  -0.004   0.002  0.00  0.00    -0.013 C 
ENDBRANCH  17  19
ENDBRANCH   5  17
ENDBRANCH   1  11
BRANCH   3  20
ATOM     20  C   UNL     1      -2.264  -5.770  -8.863  0.00  0.00    +0.139 C 
BRANCH  20  21
ATOM     21  C   UNL     1      -2.859  -5.150 -10.101  0.00  0.00    -0.030 A 
ATOM     22  C   UNL     1      -4.220  -5.240 -10.331  0.00  0.00    +0.006 A 
ATOM     23  C   UNL     1      -4.771  -4.674 -11.462  0.00  0.00    +0.013 A 
ATOM     24  C   UNL     1      -3.951  -4.009 -12.375  0.00  0.00    +0.037 A 
ATOM     25  C   UNL     1      -2.579  -3.921 -12.137  0.00  0.00    +0.013 A 
ATOM     26  C   UNL     1      -2.042  -4.487 -10.999  0.00  0.00    +0.006 A 
BRANCH  24  27
ATOM     27  C   UNL     1      -4.535  -3.400 -13.590  0.00  0.00    +0.244 C 
ATOM     28  O   UNL     1      -5.731  -3.479 -13.795  0.00  0.00    -0.270 OA
ATOM     29  N   UNL     1      -3.741  -2.759 -14.470  0.00  0.00    -0.303 N 
ATOM     30  H   UNL     1      -2.787  -2.696 -14.306  0.00  0.00    +0.150 HD
BRANCH  29  31
ATOM     31  C   UNL     1      -4.319  -2.156 -15.674  0.00  0.00    +0.200 C 
BRANCH  31  32
ATOM     32  C   UNL     1      -3.227  -1.506 -16.484  0.00  0.00    +0.228 C 
ATOM     33  O   UNL     1      -2.079  -1.542 -16.094  0.00  0.00    -0.274 OA
ATOM     34  N   UNL     1      -3.526  -0.883 -17.641  0.00  0.00    -0.328 N 
ATOM     35  H   UNL     1      -4.444  -0.854 -17.953  0.00  0.00    +0.145 HD
ATOM     36  H   UNL     1      -2.824  -0.465 -18.163  0.00  0.00    +0.145 HD
ENDBRANCH  31  32
ENDBRANCH  29  31
ENDBRANCH  24  27
ENDBRANCH  20  21
ENDBRANCH   3  20
TORSDOF 8
