REMARK  Name = ZINC20548728
REMARK  8 active torsions:
REMARK  status: ('A' for Active; 'I' for Inactive)
REMARK    1  A    between atoms: C_1  and  O_2
REMARK    2  A    between atoms: O_2  and  C_3
REMARK    3  A    between atoms: C_3  and  C_4
REMARK    4  A    between atoms: C_4  and  N_5
REMARK    5  A    between atoms: C_10  and  C_28
REMARK    6  A    between atoms: C_28  and  C_29
REMARK    7  A    between atoms: C_29  and  S_30
REMARK    8  A    between atoms: S_30  and  C_31
REMARK                            x       y       z     vdW  Elec       q    Type
REMARK                         _______ _______ _______ _____ _____    ______ ____
ROOT
ATOM      1  N   UNL     1       1.401  -2.532  -0.162  0.00  0.00    -0.239 N 
ATOM      2  C   UNL     1       0.855  -2.664  -1.376  0.00  0.00    +0.227 C 
ATOM      3  O   UNL     1      -0.309  -2.456  -1.647  0.00  0.00    -0.275 OA
ATOM      4  C   UNL     1       1.913  -3.114  -2.358  0.00  0.00    +0.107 C 
ATOM      5  C   UNL     1       1.607  -4.559  -2.807  0.00  0.00    +0.068 C 
ATOM      6  N   UNL     1       2.911  -5.268  -2.723  0.00  0.00    -0.295 NA
ATOM      7  C   UNL     1       3.539  -4.725  -1.504  0.00  0.00    +0.136 C 
ATOM      8  C   UNL     1       3.193  -3.216  -1.482  0.00  0.00    +0.122 C 
ATOM      9  C   UNL     1       2.708  -2.812  -0.108  0.00  0.00    +0.228 C 
ATOM     10  O   UNL     1       3.396  -2.755   0.889  0.00  0.00    -0.275 OA
ATOM     11  C   UNL     1       3.049  -5.431  -0.272  0.00  0.00    +0.005 A 
ATOM     12  C   UNL     1       1.804  -5.601   0.292  0.00  0.00    +0.027 A 
ATOM     13  C   UNL     1       1.667  -6.325   1.464  0.00  0.00    +0.041 A 
ATOM     14  C   UNL     1       2.784  -6.876   2.067  0.00  0.00    +0.022 A 
ATOM     15  C   UNL     1       4.032  -6.706   1.507  0.00  0.00    +0.025 A 
ATOM     16  C   UNL     1       4.179  -5.980   0.327  0.00  0.00    +0.039 A 
ATOM     17  N   UNL     1       5.319  -5.675  -0.421  0.00  0.00    -0.283 N 
ATOM     18  C   UNL     1       5.028  -4.940  -1.512  0.00  0.00    +0.243 C 
ATOM     19  O   UNL     1       5.814  -4.532  -2.341  0.00  0.00    -0.273 OA
ATOM     20 CL   UNL     1       0.098  -6.541   2.175  0.00  0.00    -0.084 Cl
ATOM     21  H   UNL     1       2.776  -6.265  -2.647  0.00  0.00    +0.123 HD
ATOM     22  H   UNL     1       6.215  -5.958  -0.182  0.00  0.00    +0.155 HD
ENDROOT
BRANCH   1  23
ATOM     23  C   UNL     1       0.633  -2.108   1.011  0.00  0.00    +0.144 C 
BRANCH  23  24
ATOM     24  C   UNL     1       0.673  -0.582   1.123  0.00  0.00    +0.179 C 
BRANCH  24  26
ATOM     25  C   UNL     1      -0.017   1.425   0.010  0.00  0.00    +0.194 C 
ATOM     26  O   UNL     1       0.002  -0.004   0.002  0.00  0.00    -0.381 OA
ENDBRANCH  24  26
ENDBRANCH  23  24
ENDBRANCH   1  23
BRANCH   5  27
ATOM     27  C   UNL     1       1.083  -4.570  -4.244  0.00  0.00    +0.030 C 
BRANCH  27  28
ATOM     28  C   UNL     1       0.669  -5.993  -4.625  0.00  0.00    +0.070 C 
BRANCH  28  29
ATOM     29  S   UNL     1       0.048  -6.006  -6.330  0.00  0.00    -0.164 S 
ATOM     30  C   UNL     1      -0.394  -7.741  -6.622  0.00  0.00    +0.084 C 
ENDBRANCH  28  29
ENDBRANCH  27  28
ENDBRANCH   5  27
TORSDOF 6
