REMARK  Name = ZINC49501462
REMARK  3 active torsions:
REMARK  status: ('A' for Active; 'I' for Inactive)
REMARK    1  A    between atoms: C_9  and  O_11
REMARK    2  A    between atoms: O_11  and  C_12
REMARK    3  A    between atoms: C_12  and  C_14
REMARK                            x       y       z     vdW  Elec       q    Type
REMARK                         _______ _______ _______ _____ _____    ______ ____
ROOT
ATOM      1  O   UNL     1       1.212  -2.046  -0.021  0.00  0.00    -0.422 OA
ENDROOT
BRANCH   1  10
ATOM      2  C   UNL     1       1.254   1.409  -1.179  0.00  0.00    +0.006 A 
ATOM      3  C   UNL     1       1.181   2.102   0.008  0.00  0.00    +0.028 A 
ATOM      4  C   UNL     1       1.117   1.411   1.215  0.00  0.00    +0.069 A 
ATOM      5  C   UNL     1       1.127   0.004   1.215  0.00  0.00    +0.062 A 
ATOM      6  C   UNL     1       1.053  -0.408   2.567  0.00  0.00    +0.146 A 
ATOM      7  N   UNL     1       1.002   0.650   3.323  0.00  0.00    -0.181 NA
ATOM      8  N   UNL     1       1.039   1.802   2.527  0.00  0.00    -0.277 N 
ATOM      9  H   UNL     1       1.015   2.717   2.849  0.00  0.00    +0.189 HD
ATOM     10  C   UNL     1       1.201  -0.688  -0.005  0.00  0.00    +0.143 A 
ATOM     11  C   UNL     1       1.264   0.020  -1.188  0.00  0.00    +0.047 A 
ENDBRANCH   1  10
BRANCH   1  12
ATOM     12  C   UNL     1       0.033  -2.689   0.091  0.00  0.00    +0.346 C 
ATOM     13  O   UNL     1      -1.005  -2.058   0.103  0.00  0.00    -0.244 OA
BRANCH  12  14
ATOM     14  C   UNL     1       0.003  -4.158   0.198  0.00  0.00    +0.076 A 
ATOM     15  C   UNL     1       1.210  -4.899   0.190  0.00  0.00    +0.022 A 
ATOM     16  C   UNL     1       1.153  -6.254   0.291  0.00  0.00    +0.071 A 
ATOM     17  C   UNL     1      -0.099  -6.888   0.401  0.00  0.00    +0.249 A 
ATOM     18  O   UNL     1      -0.156  -8.103   0.492  0.00  0.00    -0.268 OA
ATOM     19  N   UNL     1      -1.234  -6.165   0.406  0.00  0.00    -0.328 N 
ATOM     20  H   UNL     1      -2.088  -6.618   0.482  0.00  0.00    +0.168 HD
ATOM     21  C   UNL     1      -1.202  -4.823   0.312  0.00  0.00    +0.101 A 
ENDBRANCH  12  14
ENDBRANCH   1  12
TORSDOF 3
