REMARK  Name = ZINC39579153
REMARK  5 active torsions:
REMARK  status: ('A' for Active; 'I' for Inactive)
REMARK    1  A    between atoms: C_4  and  C_7
REMARK    2  A    between atoms: C_8  and  C_9
REMARK    3  A    between atoms: N_10  and  N_11
REMARK    4  A    between atoms: C_12  and  C_14
REMARK    5  A    between atoms: C_17  and  C_20
REMARK                            x       y       z     vdW  Elec       q    Type
REMARK                         _______ _______ _______ _____ _____    ______ ____
ROOT
ATOM      1  N   UNL     1       6.099  -4.775   0.351  0.00  0.00    -0.205 N 
ATOM      2  C   UNL     1       6.199  -6.118   0.420  0.00  0.00    +0.263 C 
ATOM      3  O   UNL     1       5.199  -6.803   0.391  0.00  0.00    -0.271 OA
ATOM      4  H   UNL     1       6.898  -4.227   0.374  0.00  0.00    +0.177 HD
ENDROOT
BRANCH   2   5
ATOM      5  C   UNL     1       7.555  -6.766   0.534  0.00  0.00    +0.240 C 
ATOM      6  C   UNL     1       8.033  -6.760   1.975  0.00  0.00    +0.041 C 
ATOM      7  C   UNL     1       8.156  -8.068   2.280  0.00  0.00    +0.092 C 
ATOM      8  N   UNL     1       7.815  -8.837   1.213  0.00  0.00    -0.153 NA
ATOM      9  N   UNL     1       7.474  -8.200   0.210  0.00  0.00    -0.170 NA
BRANCH   7  10
ATOM     10  C   UNL     1       8.601  -8.592   3.592  0.00  0.00    +0.010 A 
ATOM     11  C   UNL     1       7.933  -8.235   4.751  0.00  0.00    +0.011 A 
ATOM     12  C   UNL     1       8.345  -8.723   5.986  0.00  0.00    +0.001 A 
ATOM     13  C   UNL     1       9.413  -9.561   6.092  0.00  0.00    +0.008 A 
ATOM     14  C   UNL     1      10.120  -9.949   4.941  0.00  0.00    -0.017 A 
ATOM     15  C   UNL     1       9.710  -9.467   3.674  0.00  0.00    -0.009 A 
ATOM     16  C   UNL     1      10.413  -9.860   2.526  0.00  0.00    +0.009 A 
ATOM     17  C   UNL     1      11.476 -10.704   2.642  0.00  0.00    +0.001 A 
ATOM     18  C   UNL     1      11.877 -11.185   3.887  0.00  0.00    +0.001 A 
ATOM     19  C   UNL     1      11.226 -10.813   5.024  0.00  0.00    +0.008 A 
ENDBRANCH   7  10
ENDBRANCH   2   5
BRANCH   1  21
ATOM     20  C   UNL     1       4.741  -2.876   0.178  0.00  0.00    +0.145 C 
ATOM     21  N   UNL     1       4.839  -4.172   0.245  0.00  0.00    -0.187 NA
BRANCH  20  23
ATOM     22  C   UNL     1       3.325  -0.902  -0.002  0.00  0.00    +0.024 C 
ATOM     23  C   UNL     1       3.427  -2.246   0.067  0.00  0.00    +0.038 C 
ATOM     24 BR   UNL     1       1.867  -3.315   0.022  0.00  0.00    -0.049 Br
BRANCH  22  28
ATOM     25  C   UNL     1      -0.488   0.949   0.144  0.00  0.00    +0.000 A 
ATOM     26  C   UNL     1      -0.253  -0.203   0.876  0.00  0.00    +0.001 A 
ATOM     27  C   UNL     1       0.984  -0.810   0.833  0.00  0.00    +0.008 A 
ATOM     28  C   UNL     1       2.002  -0.260   0.048  0.00  0.00    -0.024 A 
ATOM     29  C   UNL     1       1.757   0.903  -0.688  0.00  0.00    +0.008 A 
ATOM     30  C   UNL     1       0.514   1.499  -0.635  0.00  0.00    +0.001 A 
ENDBRANCH  22  28
ENDBRANCH  20  23
ENDBRANCH   1  21
TORSDOF 5
