REMARK  Name = ZINC01330016
REMARK  7 active torsions:
REMARK  status: ('A' for Active; 'I' for Inactive)
REMARK    1  A    between atoms: C_7  and  C_11
REMARK    2  A    between atoms: C_11  and  C_12
REMARK    3  A    between atoms: N_14  and  C_15
REMARK    4  A    between atoms: N_14  and  C_24
REMARK    5  A    between atoms: C_24  and  C_26
REMARK    6  A    between atoms: C_24  and  C_33
REMARK    7  A    between atoms: N_35  and  C_36
REMARK                            x       y       z     vdW  Elec       q    Type
REMARK                         _______ _______ _______ _____ _____    ______ ____
ROOT
ATOM      1  C   UNL     1       0.261   1.609  -0.315  0.00  0.00    +0.225 C 
ATOM      2  O   UNL     1       0.139   0.403  -0.285  0.00  0.00    -0.275 OA
ATOM      3  N   UNL     1       1.469   2.170  -0.113  0.00  0.00    -0.255 N 
ENDROOT
BRANCH   3   4
ATOM      4  C   UNL     1       1.633   3.553  -0.261  0.00  0.00    +0.041 A 
ATOM      5  C   UNL     1       2.476   4.051  -1.246  0.00  0.00    +0.027 A 
ATOM      6  C   UNL     1       2.638   5.416  -1.393  0.00  0.00    +0.051 A 
ATOM      7  C   UNL     1       1.961   6.290  -0.558  0.00  0.00    +0.166 A 
ATOM      8  C   UNL     1       1.115   5.794   0.430  0.00  0.00    +0.168 A 
ATOM      9  C   UNL     1       0.949   4.426   0.573  0.00  0.00    +0.073 A 
ATOM     10  O   UNL     1       0.573   6.846   1.110  0.00  0.00    -0.453 OA
ATOM     11  C   UNL     1       0.776   7.995   0.266  0.00  0.00    +0.466 C 
ATOM     12  O   UNL     1       1.948   7.655  -0.498  0.00  0.00    -0.453 OA
ENDBRANCH   3   4
BRANCH   1  13
ATOM     13  C   UNL     1      -0.939   2.481  -0.585  0.00  0.00    +0.133 C 
BRANCH  13  20
ATOM     14  C   UNL     1      -3.934   0.689   2.545  0.00  0.00    +0.001 A 
ATOM     15  C   UNL     1      -4.943  -0.062   1.958  0.00  0.00    +0.002 A 
ATOM     16  C   UNL     1      -4.997  -0.222   0.591  0.00  0.00    +0.026 A 
ATOM     17  C   UNL     1      -4.031   0.374  -0.212  0.00  0.00    +0.047 A 
ATOM     18  C   UNL     1      -3.010   1.135   0.386  0.00  0.00    +0.003 A 
ATOM     19  C   UNL     1      -2.974   1.283   1.774  0.00  0.00    +0.010 A 
ATOM     20  C   UNL     1      -2.168   1.618  -0.711  0.00  0.00    -0.014 A 
ATOM     21  C   UNL     1      -2.704   1.152  -1.850  0.00  0.00    +0.087 A 
ATOM     22  N   UNL     1      -3.814   0.403  -1.572  0.00  0.00    -0.360 N 
ATOM     23  H   UNL     1      -4.368  -0.040  -2.234  0.00  0.00    +0.165 HD
ENDBRANCH  13  20
ENDBRANCH   1  13
BRANCH   3  24
ATOM     24  C   UNL     1       2.612   1.333   0.261  0.00  0.00    +0.200 C 
BRANCH  24  25
ATOM     25  C   UNL     1       3.081   0.556  -0.942  0.00  0.00    +0.017 A 
ATOM     26  C   UNL     1       2.769   0.997  -2.215  0.00  0.00    +0.009 A 
ATOM     27  C   UNL     1       3.200   0.285  -3.318  0.00  0.00    +0.001 A 
ATOM     28  C   UNL     1       3.942  -0.869  -3.151  0.00  0.00    +0.003 A 
ATOM     29  C   UNL     1       4.255  -1.313  -1.880  0.00  0.00    +0.039 A 
ATOM     30  C   UNL     1       3.829  -0.597  -0.774  0.00  0.00    +0.129 A 
ATOM     31  F   UNL     1       4.138  -1.026   0.469  0.00  0.00    -0.205 F 
ENDBRANCH  24  25
BRANCH  24  32
ATOM     32  C   UNL     1       3.732   2.207   0.762  0.00  0.00    +0.239 C 
ATOM     33  O   UNL     1       3.541   3.390   0.950  0.00  0.00    -0.273 OA
ATOM     34  N   UNL     1       4.947   1.674   1.002  0.00  0.00    -0.311 N 
ATOM     35  H   UNL     1       5.100   0.728   0.852  0.00  0.00    +0.149 HD
BRANCH  34  36
ATOM     36  C   UNL     1       6.036   2.524   1.489  0.00  0.00    +0.073 C 
ATOM     37  C   UNL     1       6.728   3.197   0.302  0.00  0.00    +0.022 C 
ATOM     38  C   UNL     1       7.866   4.085   0.811  0.00  0.00    +0.002 C 
ATOM     39  C   UNL     1       8.879   3.228   1.573  0.00  0.00    +0.000 C 
ATOM     40  C   UNL     1       8.187   2.555   2.760  0.00  0.00    +0.002 C 
ATOM     41  C   UNL     1       7.049   1.668   2.252  0.00  0.00    +0.022 C 
ENDBRANCH  34  36
ENDBRANCH  24  32
ENDBRANCH   3  24
TORSDOF 7
