REMARK  Name = ZINC35287675
REMARK  3 active torsions:
REMARK  status: ('A' for Active; 'I' for Inactive)
REMARK    1  A    between atoms: C_1  and  C_2
REMARK    2  A    between atoms: C_2  and  O_18
REMARK    3  A    between atoms: N_6  and  C_10
REMARK                            x       y       z     vdW  Elec       q    Type
REMARK                         _______ _______ _______ _____ _____    ______ ____
ROOT
ATOM      1  C   UNL     1       1.013   1.131   0.510  0.00  0.00    +0.066 C 
ATOM      2  C   UNL     1       0.286  -0.165   0.144  0.00  0.00    +0.165 C 
ATOM      3  C   UNL     1      -1.218   0.100   0.060  0.00  0.00    +0.202 C 
ATOM      4  C   UNL     1      -1.769   0.275   1.453  0.00  0.00    +0.259 C 
ATOM      5  O   UNL     1      -2.680   1.050   1.652  0.00  0.00    -0.272 OA
ATOM      6  N   UNL     1      -1.249  -0.429   2.475  0.00  0.00    -0.192 N 
ATOM      7  C   UNL     1      -0.183  -1.226   2.293  0.00  0.00    +0.315 C 
ATOM      8  O   UNL     1       0.127  -2.010   3.169  0.00  0.00    -0.252 OA
ATOM      9  N   UNL     1       0.549  -1.177   1.168  0.00  0.00    -0.269 N 
ATOM     10 BR   UNL     1      -2.106  -1.422  -0.811  0.00  0.00    -0.057 Br
ATOM     11 BR   UNL     1      -1.541   1.735  -0.983  0.00  0.00    -0.057 Br
ATOM     12  H   UNL     1       1.261  -1.821   1.032  0.00  0.00    +0.153 HD
ENDROOT
BRANCH   6  13
ATOM     13  C   UNL     1      -1.828  -0.330   3.748  0.00  0.00    +0.045 A 
ATOM     14  C   UNL     1      -1.358   0.610   4.654  0.00  0.00    +0.024 A 
ATOM     15  C   UNL     1      -1.931   0.706   5.907  0.00  0.00    +0.002 A 
ATOM     16  C   UNL     1      -2.972  -0.134   6.259  0.00  0.00    +0.000 A 
ATOM     17  C   UNL     1      -3.442  -1.071   5.358  0.00  0.00    +0.002 A 
ATOM     18  C   UNL     1      -2.877  -1.168   4.102  0.00  0.00    +0.024 A 
ENDBRANCH   6  13
BRANCH   2  19
ATOM     19  O   UNL     1       0.758  -0.633  -1.121  0.00  0.00    -0.369 OA
ATOM     20  H   UNL     1       1.707  -0.822  -1.141  0.00  0.00    +0.212 HD
ENDBRANCH   2  19
TORSDOF 2
