REMARK  Name = ZINC59023815
REMARK  11 active torsions:
REMARK  status: ('A' for Active; 'I' for Inactive)
REMARK    1  A    between atoms: C_1  and  C_2
REMARK    2  A    between atoms: C_2  and  O_3
REMARK    3  A    between atoms: O_3  and  C_4
REMARK    4  A    between atoms: C_4  and  C_6
REMARK    5  A    between atoms: C_10  and  N_11
REMARK    6  A    between atoms: C_12  and  C_14
REMARK    7  A    between atoms: C_14  and  S_15
REMARK    8  A    between atoms: S_15  and  C_16
REMARK    9  A    between atoms: N_21  and  N_22
REMARK   10  A    between atoms: C_23  and  C_24
REMARK   11  A    between atoms: C_23  and  C_25
REMARK                            x       y       z     vdW  Elec       q    Type
REMARK                         _______ _______ _______ _____ _____    ______ ____
ROOT
ATOM      1  C   UNL     1      -5.940   1.076   6.213  0.00  0.00    +0.173 C 
ENDROOT
BRANCH   1   3
ATOM      2  N   UNL     1      -6.466   2.350   4.159  0.00  0.00    -0.279 N 
ATOM      3  C   UNL     1      -6.820   1.384   5.029  0.00  0.00    +0.228 C 
ATOM      4  O   UNL     1      -7.847   0.762   4.859  0.00  0.00    -0.275 OA
ATOM      5  H   UNL     1      -5.644   2.848   4.295  0.00  0.00    +0.155 HD
BRANCH   2  10
ATOM      6  C   UNL     1      -7.073   3.585   2.082  0.00  0.00    +0.091 A 
ATOM      7  C   UNL     1      -8.077   3.679   1.036  0.00  0.00    -0.021 A 
ATOM      8  C   UNL     1      -9.101   2.811   1.174  0.00  0.00    -0.004 A 
ATOM      9  S   UNL     1      -8.728   1.906   2.647  0.00  0.00    -0.077 S 
ATOM     10  C   UNL     1      -7.275   2.634   3.070  0.00  0.00    +0.086 A 
ATOM     11  C   UNL     1     -10.284   2.664   0.267  0.00  0.00    +0.043 C 
ATOM     12  C   UNL     1     -10.355   3.902  -0.638  0.00  0.00    +0.005 C 
ATOM     13  C   UNL     1      -8.966   4.165  -1.228  0.00  0.00    +0.005 C 
ATOM     14  C   UNL     1      -8.019   4.655  -0.130  0.00  0.00    +0.037 C 
BRANCH   6  15
ATOM     15  C   UNL     1      -5.894   4.453   2.088  0.00  0.00    +0.342 C 
ATOM     16  O   UNL     1      -4.878   4.104   1.516  0.00  0.00    -0.245 OA
BRANCH  15  17
ATOM     17  O   UNL     1      -5.933   5.640   2.728  0.00  0.00    -0.461 OA
BRANCH  17  19
ATOM     18  C   UNL     1      -4.981   7.735   3.466  0.00  0.00    +0.048 C 
ATOM     19  C   UNL     1      -4.747   6.436   2.693  0.00  0.00    +0.229 C 
ENDBRANCH  17  19
ENDBRANCH  15  17
ENDBRANCH   6  15
ENDBRANCH   2  10
ENDBRANCH   1   3
BRANCH   1  20
ATOM     20  S   UNL     1      -6.682  -0.263   7.186  0.00  0.00    -0.075 S 
BRANCH  20  21
ATOM     21  C   UNL     1      -5.550  -0.502   8.515  0.00  0.00    +0.211 A 
ATOM     22  N   UNL     1      -5.682  -1.402   9.495  0.00  0.00    -0.186 NA
ATOM     23  C   UNL     1      -4.659  -1.311  10.320  0.00  0.00    +0.232 A 
ATOM     24  N   UNL     1      -3.845  -0.333   9.868  0.00  0.00    -0.245 N 
ATOM     25  N   UNL     1      -4.438   0.170   8.700  0.00  0.00    -0.144 NA
ATOM     26  N   UNL     1      -4.455  -2.082  11.450  0.00  0.00    -0.205 N 
ATOM     27  H   UNL     1      -3.668  -1.940  11.998  0.00  0.00    +0.177 HD
ATOM     28  H   UNL     1      -3.013  -0.039  10.270  0.00  0.00    +0.192 HD
BRANCH  26  29
ATOM     29  N   UNL     1      -5.387  -3.067  11.803  0.00  0.00    -0.184 NA
ATOM     30  C   UNL     1      -5.257  -3.711  12.924  0.00  0.00    +0.063 C 
ATOM     31  C   UNL     1      -6.142  -4.895  13.219  0.00  0.00    +0.068 C 
BRANCH  30  32
ATOM     32  C   UNL     1      -4.245  -3.284  13.907  0.00  0.00    +0.000 A 
ATOM     33  C   UNL     1      -3.955  -1.926  14.098  0.00  0.00    +0.029 A 
ATOM     34  C   UNL     1      -3.001  -1.572  15.028  0.00  0.00    +0.111 A 
ATOM     35  N   UNL     1      -2.366  -2.490  15.732  0.00  0.00    -0.263 NA
ATOM     36  C   UNL     1      -2.609  -3.779  15.584  0.00  0.00    +0.111 A 
ATOM     37  C   UNL     1      -3.551  -4.223  14.681  0.00  0.00    +0.029 A 
ENDBRANCH  30  32
ENDBRANCH  26  29
ENDBRANCH  20  21
ENDBRANCH   1  20
TORSDOF 9
