REMARK  Name = ZINC64703020
REMARK  7 active torsions:
REMARK  status: ('A' for Active; 'I' for Inactive)
REMARK    1  A    between atoms: C_1  and  C_2
REMARK    2  A    between atoms: C_2  and  C_3
REMARK    3  A    between atoms: C_6  and  C_9
REMARK    4  A    between atoms: C_17  and  S_21
REMARK    5  A    between atoms: S_21  and  C_22
REMARK    6  A    between atoms: C_22  and  C_23
REMARK    7  A    between atoms: N_25  and  C_26
REMARK                            x       y       z     vdW  Elec       q    Type
REMARK                         _______ _______ _______ _____ _____    ______ ____
ROOT
ATOM      1  C   UNL     1       3.459  -1.612   3.746  0.00  0.00    +0.047 C 
ATOM      2  C   UNL     1       2.657  -1.702   4.833  0.00  0.00    +0.027 C 
ATOM      3  C   UNL     1       3.573  -2.169   5.931  0.00  0.00    +0.193 C 
ATOM      4  C   UNL     1       3.021  -3.196   6.872  0.00  0.00    +0.276 C 
ATOM      5  O   UNL     1       1.846  -3.241   7.149  0.00  0.00    -0.270 OA
ATOM      6  N   UNL     1       3.914  -4.075   7.394  0.00  0.00    -0.081 NA
ATOM      7  N   UNL     1       5.098  -4.131   7.052  0.00  0.00    -0.163 NA
ATOM      8  C   UNL     1       5.682  -3.277   6.002  0.00  0.00    +0.272 C 
ATOM      9  N   UNL     1       4.613  -2.876   5.117  0.00  0.00    -0.178 NA
ATOM     10  N   UNL     1       4.772  -2.006   4.096  0.00  0.00    -0.274 N 
ATOM     11  H   UNL     1       5.605  -1.715   3.694  0.00  0.00    +0.167 HD
ENDROOT
BRANCH   1  15
ATOM     12  C   UNL     1       2.220  -0.360  -0.122  0.00  0.00    -0.048 A 
ATOM     13  C   UNL     1       3.538  -0.721   0.096  0.00  0.00    +0.004 A 
ATOM     14  C   UNL     1       3.946  -1.128   1.350  0.00  0.00    +0.010 A 
ATOM     15  C   UNL     1       3.027  -1.175   2.398  0.00  0.00    -0.003 A 
ATOM     16  C   UNL     1       1.701  -0.810   2.171  0.00  0.00    +0.010 A 
ATOM     17  C   UNL     1       1.306  -0.400   0.915  0.00  0.00    +0.004 A 
BRANCH  12  19
ATOM     18  C   UNL     1       1.957   1.599  -1.619  0.00  0.00    +0.009 C 
ATOM     19  C   UNL     1       1.782   0.085  -1.494  0.00  0.00    +0.032 C 
ENDBRANCH  12  19
ENDBRANCH   1  15
BRANCH   8  20
ATOM     20  S   UNL     1       6.426  -1.800   6.748  0.00  0.00    -0.107 S 
BRANCH  20  21
ATOM     21  C   UNL     1       7.966  -2.410   7.486  0.00  0.00    +0.168 C 
BRANCH  21  22
ATOM     22  C   UNL     1       8.632  -1.296   8.252  0.00  0.00    +0.227 C 
ATOM     23  O   UNL     1       8.118  -0.199   8.295  0.00  0.00    -0.275 OA
ATOM     24  N   UNL     1       9.799  -1.520   8.888  0.00  0.00    -0.285 N 
ATOM     25  H   UNL     1      10.248  -2.374   8.792  0.00  0.00    +0.155 HD
BRANCH  24  26
ATOM     26  C   UNL     1      10.363  -0.517   9.688  0.00  0.00    +0.037 A 
ATOM     27  C   UNL     1      11.743  -0.393   9.776  0.00  0.00    +0.027 A 
ATOM     28  C   UNL     1      12.300   0.594  10.565  0.00  0.00    +0.051 A 
ATOM     29  C   UNL     1      11.483   1.464  11.272  0.00  0.00    +0.162 A 
ATOM     30  C   UNL     1      10.101   1.344  11.185  0.00  0.00    +0.164 A 
ATOM     31  C   UNL     1       9.543   0.355  10.389  0.00  0.00    +0.072 A 
ATOM     32  O   UNL     1       9.284   2.193  11.865  0.00  0.00    -0.485 OA
ATOM     33  C   UNL     1       9.875   2.935  12.937  0.00  0.00    +0.270 C 
ATOM     34  C   UNL     1      11.207   3.516  12.443  0.00  0.00    +0.270 C 
ATOM     35  O   UNL     1      12.051   2.429  12.049  0.00  0.00    -0.485 OA
ENDBRANCH  24  26
ENDBRANCH  21  22
ENDBRANCH  20  21
ENDBRANCH   8  20
TORSDOF 6
