REMARK  Name = ZINC62868088
REMARK  3 active torsions:
REMARK  status: ('A' for Active; 'I' for Inactive)
REMARK    1  A    between atoms: C_1  and  C_2
REMARK    2  A    between atoms: C_2  and  C_17
REMARK    3  A    between atoms: C_8  and  C_10
REMARK                            x       y       z     vdW  Elec       q    Type
REMARK                         _______ _______ _______ _____ _____    ______ ____
ROOT
ATOM      1  C   UNL     1      -0.269   2.279   0.380  0.00  0.00    +0.024 C 
ATOM      2  C   UNL     1      -0.210   0.796   0.009  0.00  0.00    +0.085 C 
ATOM      3  C   UNL     1      -1.627   0.219  -0.018  0.00  0.00    +0.021 C 
ATOM      4  C   UNL     1      -2.282   0.405   1.352  0.00  0.00    +0.020 C 
ATOM      5  C   UNL     1      -1.472  -0.354   2.408  0.00  0.00    +0.108 C 
ATOM      6  N   UNL     1      -0.073   0.093   2.342  0.00  0.00    -0.295 N 
ATOM      7  C   UNL     1       0.624   0.042   1.050  0.00  0.00    +0.126 C 
ATOM      8  C   UNL     1       0.557   0.541   3.445  0.00  0.00    +0.269 C 
ATOM      9  O   UNL     1      -0.067   0.714   4.474  0.00  0.00    -0.268 OA
ENDROOT
BRANCH   8  10
ATOM     10  C   UNL     1       2.008   0.822   3.405  0.00  0.00    +0.172 A 
ATOM     11  C   UNL     1       2.628   1.435   4.498  0.00  0.00    +0.209 A 
ATOM     12  C   UNL     1       3.997   1.691   4.441  0.00  0.00    +0.054 A 
ATOM     13  C   UNL     1       4.688   1.327   3.300  0.00  0.00    +0.023 A 
ATOM     14  C   UNL     1       4.006   0.722   2.253  0.00  0.00    +0.112 A 
ATOM     15  N   UNL     1       2.716   0.485   2.331  0.00  0.00    -0.247 NA
ATOM     16  O   UNL     1       1.909   1.774   5.597  0.00  0.00    -0.285 OA
ENDBRANCH   8  10
BRANCH   2  17
ATOM     17  C   UNL     1       0.423   0.642  -1.350  0.00  0.00    +0.363 C 
ATOM     18  O   UNL     1       1.560   1.039  -1.542  0.00  0.00    -0.246 OA
ATOM     19  O   UNL     1      -0.202   0.121  -2.258  0.00  0.00    -0.246 OA
ENDBRANCH   2  17
TORSDOF 2
