REMARK  Name = ZINC20532175
REMARK  13 active torsions:
REMARK  status: ('A' for Active; 'I' for Inactive)
REMARK    1  A    between atoms: C_1  and  C_2
REMARK    2  A    between atoms: C_5  and  O_34
REMARK    3  A    between atoms: C_6  and  N_8
REMARK    4  A    between atoms: N_11  and  C_12
REMARK    5  A    between atoms: C_12  and  C_14
REMARK    6  A    between atoms: C_12  and  C_19
REMARK    7  A    between atoms: C_14  and  C_15
REMARK    8  A    between atoms: C_15  and  C_16
REMARK    9  A    between atoms: C_16  and  C_17
REMARK   10  A    between atoms: C_16  and  C_18
REMARK   11  A    between atoms: C_23  and  N_24
REMARK   12  A    between atoms: N_30  and  C_33
REMARK   13  A    between atoms: O_34  and  C_35
REMARK                            x       y       z     vdW  Elec       q    Type
REMARK                         _______ _______ _______ _____ _____    ______ ____
ROOT
ATOM      1  C   UNL     1       3.451   7.020  -0.624  0.00  0.00    +0.108 C 
ENDROOT
BRANCH   1   2
ATOM      2  C   UNL     1       4.642   7.699  -1.249  0.00  0.00    +0.007 A 
ATOM      3  C   UNL     1       4.460   8.621  -2.277  0.00  0.00    -0.034 A 
ATOM      4  C   UNL     1       5.584   9.192  -2.793  0.00  0.00    -0.021 A 
ATOM      5  S   UNL     1       6.899   8.461  -1.859  0.00  0.00    -0.077 S 
ATOM      6  C   UNL     1       5.897   7.419  -0.808  0.00  0.00    +0.090 A 
ATOM      7  C   UNL     1       5.653  10.198  -3.895  0.00  0.00    -0.036 C 
ATOM      8  N   UNL     1       4.346  10.223  -4.579  0.00  0.00    +0.381 N 
ATOM      9  C   UNL     1       3.253  10.330  -3.602  0.00  0.00    -0.074 C 
ATOM     10  C   UNL     1       3.095   9.013  -2.837  0.00  0.00    +0.018 C 
ATOM     11  C   UNL     1       4.285  11.316  -5.559  0.00  0.00    -0.096 C 
ATOM     12  H   UNL     1       4.222   9.277  -5.126  0.00  0.00    -0.082 HD
BRANCH   6  13
ATOM     13  N   UNL     1       6.300   6.541   0.205  0.00  0.00    -0.317 N 
ATOM     14  C   UNL     1       5.468   5.869   1.054  0.00  0.00    +0.092 A 
ATOM     15  C   UNL     1       6.226   5.121   1.883  0.00  0.00    +0.019 A 
ATOM     16  C   UNL     1       7.574   5.346   1.541  0.00  0.00    +0.019 A 
ATOM     17  C   UNL     1       7.591   6.218   0.511  0.00  0.00    +0.092 A 
ENDBRANCH   6  13
ENDBRANCH   1   2
BRANCH   1  21
ATOM     18  N   UNL     1       2.895   3.394  -0.367  0.00  0.00    -0.266 N 
ATOM     19  C   UNL     1       2.666   4.720  -0.446  0.00  0.00    +0.304 C 
ATOM     20  O   UNL     1       1.525   5.141  -0.433  0.00  0.00    -0.252 OA
ATOM     21  N   UNL     1       3.700   5.579  -0.539  0.00  0.00    -0.292 N 
ATOM     22  H   UNL     1       3.925   3.019  -0.270  0.00  0.00    +0.156 HD
ATOM     23  H   UNL     1       4.732   5.197  -0.550  0.00  0.00    +0.151 HD
BRANCH  18  29
ATOM     24  C   UNL     1      -1.753   2.404  -1.630  0.00  0.00    +0.044 C 
ATOM     25  C   UNL     1      -0.442   1.987  -1.015  0.00  0.00    -0.048 A 
ATOM     26  C   UNL     1      -0.298   0.713  -0.497  0.00  0.00    +0.007 A 
ATOM     27  C   UNL     1       0.901   0.326   0.073  0.00  0.00    +0.048 A 
ATOM     28  C   UNL     1       1.965   1.212   0.117  0.00  0.00    +0.141 A 
ATOM     29  C   UNL     1       1.822   2.494  -0.409  0.00  0.00    +0.077 A 
ATOM     30  C   UNL     1       0.615   2.877  -0.975  0.00  0.00    +0.030 A 
BRANCH  28  31
ATOM     31  O   UNL     1       3.147   0.831   0.672  0.00  0.00    -0.493 OA
ATOM     32  C   UNL     1       3.221  -0.498   1.191  0.00  0.00    +0.277 C 
ENDBRANCH  28  31
ENDBRANCH  18  29
ENDBRANCH   1  21
BRANCH   1  33
ATOM     33  C   UNL     1       3.222   7.582   0.780  0.00  0.00    +0.027 C 
BRANCH  33  34
ATOM     34  C   UNL     1       1.942   6.984   1.367  0.00  0.00    +0.005 C 
BRANCH  34  35
ATOM     35  C   UNL     1       1.713   7.546   2.771  0.00  0.00    -0.017 C 
ATOM     36  C   UNL     1       1.453   9.051   2.682  0.00  0.00    +0.007 C 
ATOM     37  C   UNL     1       0.504   6.856   3.406  0.00  0.00    +0.007 C 
ENDBRANCH  34  35
ENDBRANCH  33  34
ENDBRANCH   1  33
TORSDOF 8
