REMARK  Name = ZINC20701621
REMARK  5 active torsions:
REMARK  status: ('A' for Active; 'I' for Inactive)
REMARK    1  A    between atoms: C_1  and  N_2
REMARK    2  A    between atoms: N_2  and  C_3
REMARK    3  A    between atoms: C_4  and  C_6
REMARK    4  A    between atoms: C_13  and  C_22
REMARK    5  A    between atoms: C_27  and  O_28
REMARK                            x       y       z     vdW  Elec       q    Type
REMARK                         _______ _______ _______ _____ _____    ______ ____
ROOT
ATOM      1  C   UNL     1       2.631   5.849   0.165  0.00  0.00    +0.058 A 
ATOM      2  C   UNL     1       1.892   6.679   1.005  0.00  0.00    +0.015 A 
ATOM      3  C   UNL     1       1.747   6.361   2.337  0.00  0.00    +0.001 A 
ATOM      4  C   UNL     1       2.333   5.210   2.839  0.00  0.00    +0.006 A 
ATOM      5  C   UNL     1       3.062   4.374   2.022  0.00  0.00    -0.019 A 
ATOM      6  C   UNL     1       3.236   4.679   0.668  0.00  0.00    +0.044 A 
ATOM      7  N   UNL     1       3.986   3.916  -0.211  0.00  0.00    -0.336 N 
ATOM      8  C   UNL     1       4.546   2.658   0.308  0.00  0.00    +0.109 C 
ATOM      9  C   UNL     1       5.003   2.927   1.727  0.00  0.00    +0.029 C 
ATOM     10  C   UNL     1       3.683   3.133   2.533  0.00  0.00    +0.049 C 
ATOM     11  C   UNL     1       4.122   2.977   3.942  0.00  0.00    -0.023 C 
ATOM     12  C   UNL     1       5.177   2.170   3.968  0.00  0.00    -0.030 C 
ATOM     13  C   UNL     1       5.548   1.750   2.544  0.00  0.00    +0.033 C 
ATOM     14  H   UNL     1       4.172   4.212  -1.254  0.00  0.00    +0.147 HD
ENDROOT
BRANCH   8  15
ATOM     15  C   UNL     1       3.488   1.585   0.304  0.00  0.00    +0.017 A 
ATOM     16  C   UNL     1       2.153   1.931   0.210  0.00  0.00    +0.029 A 
ATOM     17  C   UNL     1       1.181   0.947   0.207  0.00  0.00    +0.043 A 
ATOM     18  C   UNL     1       1.542  -0.386   0.298  0.00  0.00    +0.043 A 
ATOM     19  C   UNL     1       2.876  -0.736   0.393  0.00  0.00    +0.084 A 
ATOM     20  C   UNL     1       3.853   0.251   0.396  0.00  0.00    +0.140 A 
ATOM     21 CL   UNL     1       3.330  -2.408   0.507  0.00  0.00    -0.080 Cl
ATOM     22 CL   UNL     1      -0.494   1.383   0.081  0.00  0.00    -0.083 Cl
BRANCH  20  23
ATOM     23  O   UNL     1       5.165  -0.091   0.489  0.00  0.00    -0.505 OA
ATOM     24  H   UNL     1       5.454  -1.150   0.562  0.00  0.00    +0.292 HD
ENDBRANCH  20  23
ENDBRANCH   8  15
BRANCH   1  28
ATOM     25  C   UNL     1       1.831   6.746  -3.436  0.00  0.00    +0.132 C 
ATOM     26  N   UNL     1       1.694   6.497  -1.999  0.00  0.00    -0.304 N 
ATOM     27  C   UNL     1       0.376   6.574  -1.364  0.00  0.00    +0.132 C 
ATOM     28  C   UNL     1       2.780   6.196  -1.261  0.00  0.00    +0.248 C 
ATOM     29  O   UNL     1       3.885   6.210  -1.770  0.00  0.00    -0.270 OA
ENDBRANCH   1  28
TORSDOF 3
