REMARK  Name = ZINC05150545
REMARK  7 active torsions:
REMARK  status: ('A' for Active; 'I' for Inactive)
REMARK    1  A    between atoms: C_1  and  C_2
REMARK    2  A    between atoms: C_2  and  C_20
REMARK    3  A    between atoms: C_9  and  N_17
REMARK    4  A    between atoms: C_11  and  S_13
REMARK    5  A    between atoms: S_13  and  C_14
REMARK    6  A    between atoms: C_14  and  C_15
REMARK    7  A    between atoms: C_15  and  O_16
REMARK                            x       y       z     vdW  Elec       q    Type
REMARK                         _______ _______ _______ _____ _____    ______ ____
ROOT
ATOM      1  C   UNL     1       2.007   5.175  -1.508  0.00  0.00    +0.041 C 
ATOM      2  C   UNL     1       2.200   4.776  -0.043  0.00  0.00    +0.068 C 
ATOM      3  C   UNL     1       1.333   3.553   0.268  0.00  0.00    +0.071 C 
ATOM      4  C   UNL     1      -0.130   3.993   0.250  0.00  0.00    -0.020 A 
ATOM      5  C   UNL     1      -0.432   5.305   0.346  0.00  0.00    +0.021 A 
ATOM      6  S   UNL     1      -2.199   5.377   0.286  0.00  0.00    -0.071 S 
ATOM      7  C   UNL     1      -2.532   3.641   0.132  0.00  0.00    +0.115 A 
ATOM      8  C   UNL     1      -1.248   3.058   0.138  0.00  0.00    +0.051 A 
ATOM      9  C   UNL     1      -1.218   1.641   0.017  0.00  0.00    +0.129 A 
ATOM     10  N   UNL     1      -2.357   0.976  -0.081  0.00  0.00    -0.207 NA
ATOM     11  C   UNL     1      -3.535   1.588  -0.075  0.00  0.00    +0.191 A 
ATOM     12  N   UNL     1      -3.623   2.908   0.030  0.00  0.00    -0.215 NA
ATOM     13  C   UNL     1       0.546   6.432   0.476  0.00  0.00    +0.203 C 
ATOM     14  O   UNL     1       1.828   5.870   0.799  0.00  0.00    -0.368 OA
ATOM     15  C   UNL     1       3.670   4.427   0.198  0.00  0.00    +0.041 C 
ENDROOT
BRANCH   9  16
ATOM     16  N   UNL     1      -0.011   0.966   0.007  0.00  0.00    -0.343 N 
ATOM     17  H   UNL     1       0.016   0.023  -0.220  0.00  0.00    +0.144 HD
ATOM     18  H   UNL     1       0.809   1.436   0.224  0.00  0.00    +0.144 HD
ENDBRANCH   9  16
BRANCH  11  19
ATOM     19  S   UNL     1      -5.008   0.631  -0.210  0.00  0.00    -0.084 S 
BRANCH  19  20
ATOM     20  C   UNL     1      -4.295  -1.029  -0.320  0.00  0.00    +0.105 C 
BRANCH  20  21
ATOM     21  C   UNL     1      -5.418  -2.060  -0.448  0.00  0.00    +0.167 C 
BRANCH  21  22
ATOM     22  O   UNL     1      -4.855  -3.370  -0.534  0.00  0.00    -0.394 OA
ATOM     23  H   UNL     1      -5.511  -4.076  -0.618  0.00  0.00    +0.209 HD
ENDBRANCH  21  22
ENDBRANCH  20  21
ENDBRANCH  19  20
ENDBRANCH  11  19
TORSDOF 5
