REMARK  Name = ZINC03194765
REMARK  4 active torsions:
REMARK  status: ('A' for Active; 'I' for Inactive)
REMARK    1  A    between atoms: C_8  and  C_12
REMARK    2  A    between atoms: C_15  and  C_17
REMARK    3  A    between atoms: C_18  and  N_38
REMARK    4  A    between atoms: C_31  and  C_33
REMARK                            x       y       z     vdW  Elec       q    Type
REMARK                         _______ _______ _______ _____ _____    ______ ____
ROOT
ATOM      1  C   UNL     1      -1.216   2.981   0.132  0.00  0.00    +0.057 C 
ATOM      2  C   UNL     1      -1.217   1.677  -0.204  0.00  0.00    +0.191 C 
ATOM      3  O   UNL     1      -2.362   0.976  -0.315  0.00  0.00    -0.441 OA
ATOM      4  C   UNL     1      -3.489   1.436   0.259  0.00  0.00    +0.152 A 
ATOM      5  C   UNL     1      -4.617   0.526   0.513  0.00  0.00    +0.060 A 
ATOM      6  C   UNL     1      -4.545  -0.826   0.169  0.00  0.00    +0.015 A 
ATOM      7  C   UNL     1      -5.619  -1.650   0.420  0.00  0.00    +0.001 A 
ATOM      8  C   UNL     1      -6.767  -1.143   1.012  0.00  0.00    +0.004 A 
ATOM      9  C   UNL     1      -6.851   0.189   1.356  0.00  0.00    +0.047 A 
ATOM     10  C   UNL     1      -5.779   1.038   1.111  0.00  0.00    +0.143 A 
ATOM     11  O   UNL     1      -5.843   2.346   1.442  0.00  0.00    -0.422 OA
ATOM     12  C   UNL     1      -4.817   3.182   1.216  0.00  0.00    +0.345 A 
ATOM     13  O   UNL     1      -4.926   4.353   1.536  0.00  0.00    -0.245 OA
ATOM     14  C   UNL     1      -3.622   2.744   0.621  0.00  0.00    +0.095 A 
ATOM     15  C   UNL     1      -2.500   3.720   0.387  0.00  0.00    +0.133 C 
ENDROOT
BRANCH   1  19
ATOM     16  C   UNL     1       2.343   4.017   0.293  0.00  0.00    +0.086 A 
ATOM     17  C   UNL     1       2.146   5.354   0.513  0.00  0.00    +0.075 A 
ATOM     18  S   UNL     1       0.360   5.431   0.529  0.00  0.00    -0.075 S 
ATOM     19  C   UNL     1       0.057   3.693   0.246  0.00  0.00    +0.111 A 
ATOM     20  N   UNL     1       1.296   3.217   0.171  0.00  0.00    -0.239 NA
BRANCH  16  28
ATOM     21  C   UNL     1       8.520   3.926   0.268  0.00  0.00    +0.001 A 
ATOM     22  C   UNL     1       8.652   2.563   0.045  0.00  0.00    +0.004 A 
ATOM     23  C   UNL     1       7.538   1.761  -0.085  0.00  0.00    +0.047 A 
ATOM     24  C   UNL     1       6.267   2.317   0.008  0.00  0.00    +0.139 A 
ATOM     25  C   UNL     1       6.137   3.698   0.234  0.00  0.00    +0.018 A 
ATOM     26  C   UNL     1       7.281   4.495   0.363  0.00  0.00    +0.011 A 
ATOM     27  C   UNL     1       4.803   4.293   0.328  0.00  0.00    +0.028 A 
ATOM     28  C   UNL     1       3.716   3.469   0.201  0.00  0.00    +0.086 A 
ATOM     29  C   UNL     1       3.932   2.038  -0.033  0.00  0.00    +0.347 A 
ATOM     30  O   UNL     1       2.974   1.297  -0.152  0.00  0.00    -0.244 OA
ATOM     31  O   UNL     1       5.173   1.536  -0.117  0.00  0.00    -0.422 OA
ENDBRANCH  16  28
ENDBRANCH   1  19
BRANCH  15  32
ATOM     32  C   UNL     1      -2.828   4.581  -0.805  0.00  0.00    +0.117 A 
ATOM     33  C   UNL     1      -2.952   5.921  -0.798  0.00  0.00    +0.045 A 
ATOM     34  C   UNL     1      -3.263   6.311  -2.121  0.00  0.00    +0.041 A 
ATOM     35  C   UNL     1      -3.311   5.186  -2.857  0.00  0.00    +0.195 A 
ATOM     36  O   UNL     1      -3.041   4.142  -2.056  0.00  0.00    -0.467 OA
ENDBRANCH  15  32
BRANCH   2  37
ATOM     37  N   UNL     1      -0.014   1.042  -0.435  0.00  0.00    -0.329 N 
ATOM     38  H   UNL     1       0.774   1.561  -0.658  0.00  0.00    +0.145 HD
ATOM     39  H   UNL     1       0.044   0.075  -0.371  0.00  0.00    +0.145 HD
ENDBRANCH   2  37
TORSDOF 4
