REMARK  Name = ZINC44846504
REMARK  10 active torsions:
REMARK  status: ('A' for Active; 'I' for Inactive)
REMARK    1  A    between atoms: C_1  and  C_2
REMARK    2  A    between atoms: C_5  and  S_8
REMARK    3  A    between atoms: S_8  and  N_11
REMARK    4  A    between atoms: N_11  and  C_12
REMARK    5  A    between atoms: C_16  and  C_19
REMARK    6  A    between atoms: C_17  and  C_18
REMARK    7  A    between atoms: N_21  and  C_22
REMARK    8  A    between atoms: C_22  and  C_23
REMARK    9  A    between atoms: C_28  and  N_29
REMARK   10  A    between atoms: C_33  and  C_34
REMARK                            x       y       z     vdW  Elec       q    Type
REMARK                         _______ _______ _______ _____ _____    ______ ____
ROOT
ATOM      1  C   UNL     1       2.530  -4.891   1.122  0.00  0.00    +0.052 A 
ATOM      2  C   UNL     1       2.159  -4.855   2.462  0.00  0.00    +0.025 A 
ATOM      3  C   UNL     1       2.961  -4.217   3.389  0.00  0.00    +0.003 A 
ATOM      4  C   UNL     1       4.135  -3.610   2.991  0.00  0.00    +0.013 A 
ATOM      5  C   UNL     1       4.516  -3.639   1.648  0.00  0.00    +0.041 A 
ATOM      6  C   UNL     1       3.709  -4.288   0.713  0.00  0.00    -0.016 A 
ATOM      7  C   UNL     1       4.116  -4.330  -0.737  0.00  0.00    +0.046 C 
ENDROOT
BRANCH   5   8
ATOM      8  C   UNL     1       5.773  -2.989   1.219  0.00  0.00    +0.245 C 
ATOM      9  O   UNL     1       6.044  -2.912   0.037  0.00  0.00    -0.270 OA
ATOM     10  N   UNL     1       6.618  -2.482   2.139  0.00  0.00    -0.307 N 
ATOM     11  H   UNL     1       6.401  -2.544   3.083  0.00  0.00    +0.149 HD
BRANCH  10  12
ATOM     12  C   UNL     1       7.863  -1.838   1.714  0.00  0.00    +0.142 C 
BRANCH  12  13
ATOM     13  C   UNL     1       8.621  -1.361   2.926  0.00  0.00    -0.006 A 
ATOM     14  C   UNL     1       8.558  -0.034   3.303  0.00  0.00    +0.007 A 
ATOM     15  C   UNL     1       9.253   0.405   4.414  0.00  0.00    +0.000 A 
ATOM     16  C   UNL     1      10.014  -0.484   5.152  0.00  0.00    +0.002 A 
ATOM     17  C   UNL     1      10.080  -1.812   4.781  0.00  0.00    +0.026 A 
ATOM     18  C   UNL     1       9.378  -2.256   3.668  0.00  0.00    +0.052 A 
BRANCH  18  19
ATOM     19  N   UNL     1       9.440  -3.606   3.292  0.00  0.00    -0.305 N 
ATOM     20  C   UNL     1       8.958  -4.673   4.004  0.00  0.00    +0.110 A 
ATOM     21  C   UNL     1       9.226  -5.778   3.282  0.00  0.00    +0.102 A 
ATOM     22  N   UNL     1       9.853  -5.401   2.158  0.00  0.00    -0.350 N 
ATOM     23  C   UNL     1       9.982  -4.102   2.150  0.00  0.00    +0.088 A 
ATOM     24  C   UNL     1      10.628  -3.289   1.057  0.00  0.00    +0.084 C 
ATOM     25  H   UNL     1      10.160  -5.999   1.459  0.00  0.00    +0.166 HD
ENDBRANCH  18  19
ENDBRANCH  12  13
ENDBRANCH  10  12
ENDBRANCH   5   8
BRANCH   1  26
ATOM     26  N   UNL     1       1.716  -5.538   0.189  0.00  0.00    -0.216 N 
ATOM     27  H   UNL     1       2.116  -6.016  -0.554  0.00  0.00    +0.174 HD
BRANCH  26  28
ATOM     28  S   UNL     1       0.069  -5.489   0.353  0.00  0.00    +0.072 S 
ATOM     29  O   UNL     1      -0.222  -5.939   1.669  0.00  0.00    -0.150 OA
ATOM     30  O   UNL     1      -0.473  -6.115  -0.803  0.00  0.00    -0.150 OA
BRANCH  28  35
ATOM     31  C   UNL     1      -1.582   0.309   0.108  0.00  0.00    +0.044 C 
ATOM     32  C   UNL     1      -1.169  -1.139   0.170  0.00  0.00    -0.050 A 
ATOM     33  C   UNL     1      -1.100  -1.887  -0.991  0.00  0.00    +0.005 A 
ATOM     34  C   UNL     1      -0.722  -3.216  -0.935  0.00  0.00    +0.029 A 
ATOM     35  C   UNL     1      -0.412  -3.796   0.281  0.00  0.00    +0.109 A 
ATOM     36  C   UNL     1      -0.481  -3.047   1.442  0.00  0.00    +0.029 A 
ATOM     37  C   UNL     1      -0.855  -1.718   1.385  0.00  0.00    +0.005 A 
ENDBRANCH  28  35
ENDBRANCH  26  28
ENDBRANCH   1  26
TORSDOF 7
