REMARK  Name = ZINC39533660
REMARK  10 active torsions:
REMARK  status: ('A' for Active; 'I' for Inactive)
REMARK    1  A    between atoms: C_4  and  C_7
REMARK    2  A    between atoms: C_10  and  C_13
REMARK    3  A    between atoms: C_13  and  C_15
REMARK    4  A    between atoms: C_13  and  N_27
REMARK    5  A    between atoms: C_15  and  N_16
REMARK    6  A    between atoms: N_16  and  S_17
REMARK    7  A    between atoms: S_17  and  O_20
REMARK    8  A    between atoms: O_20  and  C_21
REMARK    9  A    between atoms: C_31  and  C_34
REMARK   10  A    between atoms: C_39  and  O_40
REMARK                            x       y       z     vdW  Elec       q    Type
REMARK                         _______ _______ _______ _____ _____    ______ ____
ROOT
ATOM      1  C   UNL     1       7.434  -2.768  -0.085  0.00  0.00    -0.060 C 
ENDROOT
BRANCH   1   2
ATOM      2  N   UNL     1       6.946  -3.866  -0.930  0.00  0.00    +0.381 N 
ATOM      3  C   UNL     1       7.928  -4.959  -0.928  0.00  0.00    -0.098 C 
ATOM      4  C   UNL     1       7.420  -6.103  -1.808  0.00  0.00    -0.101 C 
ATOM      5  N   UNL     1       7.230  -5.617  -3.181  0.00  0.00    +0.381 N 
ATOM      6  C   UNL     1       6.249  -4.524  -3.183  0.00  0.00    -0.054 C 
ATOM      7  C   UNL     1       6.757  -3.380  -2.303  0.00  0.00    -0.090 C 
ATOM      8  H   UNL     1       8.110  -5.279  -3.543  0.00  0.00    -0.085 HD
ATOM      9  H   UNL     1       6.895  -6.371  -3.762  0.00  0.00    -0.085 HD
ATOM     10  H   UNL     1       6.067  -4.204  -0.568  0.00  0.00    -0.081 HD
BRANCH   6  11
ATOM     11  C   UNL     1       6.054  -4.026  -4.592  0.00  0.00    -0.022 A 
ATOM     12  C   UNL     1       7.010  -4.286  -5.556  0.00  0.00    +0.005 A 
ATOM     13  C   UNL     1       6.832  -3.829  -6.848  0.00  0.00    +0.000 A 
ATOM     14  C   UNL     1       5.699  -3.110  -7.180  0.00  0.00    +0.004 A 
ATOM     15  C   UNL     1       4.740  -2.847  -6.221  0.00  0.00    +0.045 A 
ATOM     16  C   UNL     1       4.913  -3.310  -4.924  0.00  0.00    +0.118 A 
BRANCH  16  17
ATOM     17  O   UNL     1       3.970  -3.057  -3.980  0.00  0.00    -0.507 OA
ATOM     18  H   UNL     1       4.108  -2.231  -3.496  0.00  0.00    +0.292 HD
ENDBRANCH  16  17
ENDBRANCH   6  11
ENDBRANCH   1   2
BRANCH   1  22
ATOM     19  C   UNL     1       4.794   0.577  -0.430  0.00  0.00    -0.018 A 
ATOM     20  C   UNL     1       6.172   0.776  -0.377  0.00  0.00    +0.009 A 
ATOM     21  C   UNL     1       7.020  -0.307  -0.265  0.00  0.00    +0.002 A 
ATOM     22  C   UNL     1       6.504  -1.589  -0.206  0.00  0.00    -0.063 A 
ATOM     23  C   UNL     1       5.136  -1.793  -0.259  0.00  0.00    +0.002 A 
ATOM     24  C   UNL     1       4.279  -0.716  -0.364  0.00  0.00    +0.009 A 
BRANCH  19  28
ATOM     25  C   UNL     1       2.168   3.904  -0.773  0.00  0.00    +0.000 A 
ATOM     26  C   UNL     1       3.535   4.107  -0.726  0.00  0.00    +0.001 A 
ATOM     27  C   UNL     1       4.392   3.031  -0.615  0.00  0.00    +0.008 A 
ATOM     28  C   UNL     1       3.877   1.738  -0.549  0.00  0.00    -0.018 A 
ATOM     29  C   UNL     1       2.499   1.539  -0.597  0.00  0.00    +0.008 A 
ATOM     30  C   UNL     1       1.651   2.622  -0.708  0.00  0.00    +0.001 A 
ENDBRANCH  19  28
ENDBRANCH   1  22
BRANCH   1  31
ATOM     31  C   UNL     1       7.485  -3.230   1.373  0.00  0.00    -0.121 C 
BRANCH  31  32
ATOM     32  N   UNL     1       8.508  -4.268   1.521  0.00  0.00    +0.491 NA
BRANCH  32  33
ATOM     33  S   UNL     1       8.782  -4.955   3.003  0.00  0.00    +0.066 S 
ATOM     34  O   UNL     1       9.310  -3.930   3.834  0.00  0.00    -0.159 OA
ATOM     35  O   UNL     1       7.607  -5.679   3.339  0.00  0.00    -0.159 OA
BRANCH  33  36
ATOM     36  O   UNL     1       9.890  -5.983   2.824  0.00  0.00    -0.362 OA
BRANCH  36  37
ATOM     37  C   UNL     1      11.129  -5.442   2.685  0.00  0.00    +0.154 A 
ATOM     38  C   UNL     1      11.608  -5.117   1.424  0.00  0.00    +0.048 A 
ATOM     39  C   UNL     1      12.867  -4.567   1.285  0.00  0.00    +0.004 A 
ATOM     40  C   UNL     1      13.651  -4.341   2.401  0.00  0.00    +0.000 A 
ATOM     41  C   UNL     1      13.176  -4.664   3.659  0.00  0.00    +0.004 A 
ATOM     42  C   UNL     1      11.915  -5.208   3.804  0.00  0.00    +0.048 A 
ENDBRANCH  36  37
ENDBRANCH  33  36
ENDBRANCH  32  33
ENDBRANCH  31  32
ENDBRANCH   1  31
TORSDOF 10
