REMARK  Name = ZINC08962565
REMARK  8 active torsions:
REMARK  status: ('A' for Active; 'I' for Inactive)
REMARK    1  A    between atoms: C_1  and  O_2
REMARK    2  A    between atoms: O_2  and  C_3
REMARK    3  A    between atoms: C_10  and  C_12
REMARK    4  A    between atoms: C_12  and  N_14
REMARK    5  A    between atoms: N_16  and  C_28
REMARK    6  A    between atoms: C_20  and  S_24
REMARK    7  A    between atoms: S_24  and  N_27
REMARK    8  A    between atoms: C_28  and  C_29
REMARK                            x       y       z     vdW  Elec       q    Type
REMARK                         _______ _______ _______ _____ _____    ______ ____
ROOT
ATOM      1  N   UNL     1       1.402  -1.986  -0.021  0.00  0.00    -0.149 NA
ATOM      2  C   UNL     1       1.188  -0.676  -0.013  0.00  0.00    +0.167 A 
ATOM      3  N   UNL     1       0.002  -0.004   0.002  0.00  0.00    -0.317 N 
ATOM      4  C   UNL     1      -0.017   1.379   0.010  0.00  0.00    +0.058 A 
ATOM      5  C   UNL     1      -1.143   2.220   0.030  0.00  0.00    +0.029 A 
ATOM      6  C   UNL     1      -1.002   3.587   0.033  0.00  0.00    +0.030 A 
ATOM      7  C   UNL     1       0.248   4.181   0.024  0.00  0.00    +0.106 A 
ATOM      8  C   UNL     1       1.375   3.378   0.008  0.00  0.00    +0.045 A 
ATOM      9  C   UNL     1       1.236   2.011   0.001  0.00  0.00    +0.041 A 
ATOM     10  S   UNL     1       2.381   0.653  -0.017  0.00  0.00    -0.052 S 
ENDROOT
BRANCH   7  11
ATOM     11  S   UNL     1       0.403   5.936   0.034  0.00  0.00    +0.056 S 
ATOM     12  O   UNL     1      -0.797   6.446   0.599  0.00  0.00    -0.153 OA
ATOM     13  O   UNL     1       1.684   6.228   0.574  0.00  0.00    -0.153 OA
BRANCH  11  14
ATOM     14  N   UNL     1       0.430   6.434  -1.546  0.00  0.00    -0.204 NA
ATOM     15  H   UNL     1       0.366   5.782  -2.261  0.00  0.00    +0.144 HD
ATOM     16  H   UNL     1       0.511   7.377  -1.756  0.00  0.00    +0.144 HD
ENDBRANCH  11  14
ENDBRANCH   7  11
BRANCH   1  17
ATOM     17  C   UNL     1       2.654  -2.460  -0.036  0.00  0.00    +0.305 C 
ATOM     18  O   UNL     1       3.599  -1.688  -0.042  0.00  0.00    -0.265 OA
BRANCH  17  26
ATOM     19  C   UNL     1       1.918  -7.375  -0.053  0.00  0.00    +0.163 A 
ATOM     20  C   UNL     1       2.751  -8.479  -0.067  0.00  0.00    +0.049 A 
ATOM     21  C   UNL     1       4.130  -8.324  -0.079  0.00  0.00    +0.004 A 
ATOM     22  C   UNL     1       4.688  -7.077  -0.078  0.00  0.00    +0.012 A 
ATOM     23  C   UNL     1       3.865  -5.948  -0.064  0.00  0.00    +0.025 A 
ATOM     24  C   UNL     1       2.467  -6.094  -0.052  0.00  0.00    +0.177 A 
ATOM     25  O   UNL     1       1.928  -4.858  -0.041  0.00  0.00    -0.446 OA
ATOM     26  C   UNL     1       2.892  -3.914  -0.045  0.00  0.00    +0.193 A 
ATOM     27  C   UNL     1       4.113  -4.506  -0.066  0.00  0.00    +0.063 A 
BRANCH  19  29
ATOM     28  C   UNL     1       0.078  -8.882  -0.042  0.00  0.00    +0.277 C 
ATOM     29  O   UNL     1       0.568  -7.539  -0.040  0.00  0.00    -0.491 OA
ENDBRANCH  19  29
ENDBRANCH  17  26
ENDBRANCH   1  17
BRANCH   3  30
ATOM     30  C   UNL     1      -1.258  -0.750   0.011  0.00  0.00    +0.151 C 
BRANCH  30  31
ATOM     31  C   UNL     1      -1.071  -2.061  -0.709  0.00  0.00    -0.013 C 
ATOM     32  C   UNL     1      -1.367  -3.187  -0.107  0.00  0.00    +0.005 C 
ENDBRANCH  30  31
ENDBRANCH   3  30
TORSDOF 7
