REMARK  Name = ZINC23861465
REMARK  11 active torsions:
REMARK  status: ('A' for Active; 'I' for Inactive)
REMARK    1  A    between atoms: C_1  and  C_2
REMARK    2  A    between atoms: C_9  and  N_13
REMARK    3  A    between atoms: C_10  and  C_11
REMARK    4  A    between atoms: C_14  and  C_16
REMARK    5  A    between atoms: C_16  and  N_17
REMARK    6  A    between atoms: N_17  and  C_18
REMARK    7  A    between atoms: N_17  and  C_19
REMARK    8  A    between atoms: C_19  and  C_20
REMARK    9  A    between atoms: N_22  and  C_23
REMARK   10  A    between atoms: C_26  and  O_29
REMARK   11  A    between atoms: O_29  and  C_30
REMARK                            x       y       z     vdW  Elec       q    Type
REMARK                         _______ _______ _______ _____ _____    ______ ____
ROOT
ATOM      1  N   UNL     1       5.838   3.205  -0.033  0.00  0.00    +0.389 N 
ATOM      2  C   UNL     1       5.727   3.962  -1.287  0.00  0.00    -0.095 C 
ATOM      3  H   UNL     1       5.558   3.877   0.792  0.00  0.00    -0.081 HD
ENDROOT
BRANCH   1   4
ATOM      4  C   UNL     1       4.910   2.066  -0.022  0.00  0.00    +0.019 C 
BRANCH   4   6
ATOM      5  N   UNL     1       2.464   1.701   0.001  0.00  0.00    -0.281 N 
ATOM      6  C   UNL     1       3.491   2.573  -0.011  0.00  0.00    +0.201 C 
ATOM      7  O   UNL     1       3.274   3.767  -0.011  0.00  0.00    -0.278 OA
ATOM      8  H   UNL     1       2.661   0.619   0.001  0.00  0.00    +0.155 HD
BRANCH   5  16
ATOM      9  C   UNL     1      -4.747   4.735  -0.059  0.00  0.00    +0.008 C 
ATOM     10  C   UNL     1      -3.559   3.814  -0.347  0.00  0.00    -0.009 C 
ATOM     11  C   UNL     1      -3.682   2.539   0.493  0.00  0.00    +0.008 C 
ATOM     12  C   UNL     1      -2.645   1.512   0.035  0.00  0.00    +0.037 C 
ATOM     13  C   UNL     1      -1.271   2.172   0.027  0.00  0.00    -0.018 A 
ATOM     14  C   UNL     1      -1.146   3.518   0.029  0.00  0.00    -0.004 A 
ATOM     15  S   UNL     1       0.600   3.809   0.013  0.00  0.00    -0.077 S 
ATOM     16  C   UNL     1       1.157   2.168   0.011  0.00  0.00    +0.090 A 
ATOM     17  C   UNL     1      -0.020   1.435   0.023  0.00  0.00    +0.084 A 
ATOM     18  C   UNL     1      -2.252   4.528   0.036  0.00  0.00    +0.046 C 
BRANCH  17  19
ATOM     19  C   UNL     1      -0.002   0.003   0.026  0.00  0.00    +0.102 C 
ATOM     20  N   UNL     1       0.012  -1.133   0.028  0.00  0.00    -0.191 NA
ENDBRANCH  17  19
ENDBRANCH   5  16
ENDBRANCH   4   6
ENDBRANCH   1   4
BRANCH   1  21
ATOM     21  C   UNL     1       7.220   2.762   0.194  0.00  0.00    +0.019 C 
BRANCH  21  22
ATOM     22  C   UNL     1       8.102   3.962   0.420  0.00  0.00    +0.201 C 
ATOM     23  O   UNL     1       7.626   5.078   0.396  0.00  0.00    -0.278 OA
ATOM     24  N   UNL     1       9.419   3.797   0.651  0.00  0.00    -0.287 N 
ATOM     25  H   UNL     1       9.837   2.784   0.749  0.00  0.00    +0.155 HD
BRANCH  24  26
ATOM     26  C   UNL     1      10.256   4.914   0.765  0.00  0.00    +0.034 A 
ATOM     27  C   UNL     1      11.561   4.856   0.294  0.00  0.00    +0.027 A 
ATOM     28  C   UNL     1      12.384   5.959   0.403  0.00  0.00    +0.048 A 
ATOM     29  C   UNL     1      11.911   7.122   0.992  0.00  0.00    +0.130 A 
ATOM     30  C   UNL     1      10.609   7.180   1.468  0.00  0.00    +0.048 A 
ATOM     31  C   UNL     1       9.784   6.079   1.355  0.00  0.00    +0.027 A 
BRANCH  29  32
ATOM     32  O   UNL     1      12.724   8.207   1.104  0.00  0.00    -0.406 OA
BRANCH  32  33
ATOM     33  C   UNL     1      14.052   8.078   0.593  0.00  0.00    +0.575 C 
ATOM     34  F   UNL     1      13.999   7.786  -0.775  0.00  0.00    -0.133 F 
ATOM     35  F   UNL     1      14.746   9.277   0.788  0.00  0.00    -0.133 F 
ATOM     36  F   UNL     1      14.712   7.043   1.265  0.00  0.00    -0.133 F 
ENDBRANCH  32  33
ENDBRANCH  29  32
ENDBRANCH  24  26
ENDBRANCH  21  22
ENDBRANCH   1  21
TORSDOF 9
