REMARK  Name = ZINC09276361
REMARK  11 active torsions:
REMARK  status: ('A' for Active; 'I' for Inactive)
REMARK    1  A    between atoms: C_1  and  N_68
REMARK    2  A    between atoms: C_2  and  C_3
REMARK    3  A    between atoms: C_2  and  N_68
REMARK    4  A    between atoms: C_3  and  C_4
REMARK    5  A    between atoms: C_4  and  N_5
REMARK    6  A    between atoms: C_6  and  C_8
REMARK    7  A    between atoms: C_8  and  N_9
REMARK    8  A    between atoms: C_16  and  S_18
REMARK    9  A    between atoms: S_18  and  N_21
REMARK   10  A    between atoms: C_27  and  C_28
REMARK   11  A    between atoms: C_27  and  N_68
REMARK                            x       y       z     vdW  Elec       q    Type
REMARK                         _______ _______ _______ _____ _____    ______ ____
ROOT
ATOM      1  C   UNL     1      -0.018   1.503   0.010  0.00  0.00    +0.217 C 
ENDROOT
BRANCH   1   2
ATOM      2  N   UNL     1      -0.704   1.975   1.216  0.00  0.00    -0.338 N 
ATOM      3  C   UNL     1      -2.027   2.317   1.284  0.00  0.00    +0.087 A 
ATOM      4  C   UNL     1      -2.336   2.703   2.532  0.00  0.00    +0.027 A 
ATOM      5  C   UNL     1      -1.108   2.611   3.325  0.00  0.00    +0.002 A 
ATOM      6  C   UNL     1      -0.112   2.148   2.447  0.00  0.00    +0.050 A 
ATOM      7  C   UNL     1       1.182   1.959   2.922  0.00  0.00    +0.028 A 
ATOM      8  C   UNL     1       1.472   2.227   4.242  0.00  0.00    +0.030 A 
ATOM      9  C   UNL     1       0.486   2.684   5.105  0.00  0.00    +0.106 A 
ATOM     10  C   UNL     1      -0.792   2.876   4.659  0.00  0.00    +0.038 A 
BRANCH   9  11
ATOM     11  S   UNL     1       0.884   3.018   6.788  0.00  0.00    +0.061 S 
ATOM     12  O   UNL     1      -0.329   2.913   7.521  0.00  0.00    -0.153 OA
ATOM     13  O   UNL     1       2.031   2.239   7.097  0.00  0.00    -0.153 OA
BRANCH  11  14
ATOM     14  N   UNL     1       1.352   4.604   6.875  0.00  0.00    -0.177 NA
ATOM     15  C   UNL     1       2.763   4.979   6.705  0.00  0.00    +0.109 C 
ATOM     16  C   UNL     1       2.855   6.047   5.605  0.00  0.00    +0.017 C 
ATOM     17  C   UNL     1       1.933   7.216   5.958  0.00  0.00    +0.003 C 
ATOM     18  C   UNL     1       0.486   6.724   6.030  0.00  0.00    +0.017 C 
ATOM     19  C   UNL     1       0.366   5.663   7.129  0.00  0.00    +0.109 C 
ENDBRANCH  11  14
ENDBRANCH   9  11
ENDBRANCH   1   2
BRANCH   1  21
ATOM     20  N   UNL     1       0.585  -0.664  -1.018  0.00  0.00    -0.314 N 
ATOM     21  C   UNL     1       0.002  -0.004   0.002  0.00  0.00    +0.233 C 
ATOM     22  O   UNL     1      -0.506  -0.622   0.913  0.00  0.00    -0.274 OA
ATOM     23  H   UNL     1       0.992  -0.170  -1.747  0.00  0.00    +0.149 HD
BRANCH  20  24
ATOM     24  C   UNL     1       0.605  -2.129  -1.026  0.00  0.00    +0.102 C 
BRANCH  24  25
ATOM     25  C   UNL     1       1.321  -2.623  -2.285  0.00  0.00    +0.000 C 
BRANCH  25  26
ATOM     26  C   UNL     1       1.342  -4.153  -2.293  0.00  0.00    -0.077 C 
BRANCH  26  28
ATOM     27  C   UNL     1       3.451  -4.258  -3.477  0.00  0.00    -0.096 C 
ATOM     28  N   UNL     1       2.017  -4.613  -3.525  0.00  0.00    +0.381 N 
ATOM     29  H   UNL     1       1.586  -4.152  -4.334  0.00  0.00    -0.082 HD
BRANCH  28  30
ATOM     30  C   UNL     1       1.864  -6.077  -3.667  0.00  0.00    -0.043 C 
BRANCH  30  31
ATOM     31  C   UNL     1       2.365  -6.487  -5.028  0.00  0.00    -0.064 A 
ATOM     32  C   UNL     1       1.500  -6.505  -6.106  0.00  0.00    +0.002 A 
ATOM     33  C   UNL     1       1.960  -6.877  -7.355  0.00  0.00    +0.000 A 
ATOM     34  C   UNL     1       3.283  -7.241  -7.525  0.00  0.00    +0.000 A 
ATOM     35  C   UNL     1       4.146  -7.229  -6.445  0.00  0.00    +0.000 A 
ATOM     36  C   UNL     1       3.687  -6.852  -5.197  0.00  0.00    +0.002 A 
ENDBRANCH  30  31
ENDBRANCH  28  30
ENDBRANCH  26  28
ENDBRANCH  25  26
ENDBRANCH  24  25
ENDBRANCH  20  24
ENDBRANCH   1  21
TORSDOF 10
