REMARK  Name = ZINC06563422
REMARK  7 active torsions:
REMARK  status: ('A' for Active; 'I' for Inactive)
REMARK    1  A    between atoms: C_1  and  C_2
REMARK    2  A    between atoms: C_2  and  C_3
REMARK    3  A    between atoms: C_2  and  C_4
REMARK    4  A    between atoms: C_2  and  C_5
REMARK    5  A    between atoms: C_12  and  N_16
REMARK    6  A    between atoms: C_13  and  C_14
REMARK    7  A    between atoms: C_17  and  C_19
REMARK                            x       y       z     vdW  Elec       q    Type
REMARK                         _______ _______ _______ _____ _____    ______ ____
ROOT
ATOM      1  N   UNL     1      -0.219   8.149   0.047  0.00  0.00    -0.275 N 
ATOM      2  C   UNL     1      -1.349   7.415   0.053  0.00  0.00    +0.254 C 
ATOM      3  O   UNL     1      -2.433   7.967   0.066  0.00  0.00    -0.270 OA
ATOM      4  H   UNL     1       0.761   7.649   0.035  0.00  0.00    +0.156 HD
ENDROOT
BRANCH   2   5
ATOM      5  C   UNL     1      -1.272   5.946   0.045  0.00  0.00    +0.097 A 
ATOM      6  C   UNL     1      -0.048   5.305   0.030  0.00  0.00    +0.030 A 
ATOM      7  C   UNL     1      -0.033   3.841   0.023  0.00  0.00    +0.018 A 
ATOM      8  C   UNL     1       1.183   3.145   0.008  0.00  0.00    +0.011 A 
ATOM      9  C   UNL     1       1.183   1.779   0.000  0.00  0.00    +0.001 A 
ATOM     10  C   UNL     1      -0.013   1.076   0.008  0.00  0.00    +0.004 A 
ATOM     11  C   UNL     1      -1.220   1.742   0.017  0.00  0.00    +0.047 A 
ATOM     12  C   UNL     1      -1.246   3.132   0.031  0.00  0.00    +0.137 A 
ATOM     13  O   UNL     1      -2.429   3.785   0.045  0.00  0.00    -0.439 OA
ATOM     14  C   UNL     1      -2.499   5.130   0.052  0.00  0.00    +0.205 A 
ATOM     15  N   UNL     1      -3.665   5.717   0.066  0.00  0.00    -0.369 N 
ATOM     16  H   UNL     1      -4.584   5.113   0.071  0.00  0.00    +0.159 HD
ATOM     17  H   UNL     1      -3.728   6.815   0.072  0.00  0.00    +0.159 HD
ENDBRANCH   2   5
BRANCH   1  24
ATOM     18  C   UNL     1      -0.519  14.524  -0.300  0.00  0.00    -0.000 C 
ATOM     19  C   UNL     1       0.746  14.275   0.525  0.00  0.00    +0.009 C 
ATOM     20  C   UNL     1       1.427  12.988   0.056  0.00  0.00    +0.037 C 
ATOM     21  C   UNL     1       0.402  11.861   0.059  0.00  0.00    -0.018 A 
ATOM     22  C   UNL     1      -0.923  12.127   0.071  0.00  0.00    -0.004 A 
ATOM     23  S   UNL     1      -1.703  10.538   0.064  0.00  0.00    -0.077 S 
ATOM     24  C   UNL     1      -0.291   9.534   0.054  0.00  0.00    +0.090 A 
ATOM     25  C   UNL     1       0.749  10.451   0.050  0.00  0.00    +0.084 A 
ATOM     26  C   UNL     1      -1.574  13.476   0.082  0.00  0.00    +0.047 C 
BRANCH  18  28
ATOM     27  C   UNL     1       0.002  16.967  -0.368  0.00  0.00    +0.011 C 
ATOM     28  C   UNL     1      -1.058  15.925  -0.003  0.00  0.00    -0.035 C 
ATOM     29  C   UNL     1      -2.322  16.172  -0.828  0.00  0.00    +0.011 C 
ATOM     30  C   UNL     1      -1.391  16.038   1.486  0.00  0.00    +0.011 C 
ENDBRANCH  18  28
BRANCH  25  31
ATOM     31  C   UNL     1       2.116  10.024   0.035  0.00  0.00    +0.102 C 
ATOM     32  N   UNL     1       3.200   9.685   0.024  0.00  0.00    -0.191 NA
ENDBRANCH  25  31
ENDBRANCH   1  24
TORSDOF 4
