REMARK  Name = ZINC16636715
REMARK  11 active torsions:
REMARK  status: ('A' for Active; 'I' for Inactive)
REMARK    1  A    between atoms: C_1  and  C_2
REMARK    2  A    between atoms: C_6  and  N_9
REMARK    3  A    between atoms: C_7  and  C_8
REMARK    4  A    between atoms: C_10  and  C_12
REMARK    5  A    between atoms: C_12  and  N_57
REMARK    6  A    between atoms: C_13  and  N_57
REMARK    7  A    between atoms: C_14  and  C_16
REMARK    8  A    between atoms: C_14  and  C_17
REMARK    9  A    between atoms: C_14  and  N_57
REMARK   10  A    between atoms: N_19  and  C_20
REMARK   11  A    between atoms: C_20  and  C_26
REMARK                            x       y       z     vdW  Elec       q    Type
REMARK                         _______ _______ _______ _____ _____    ______ ____
ROOT
ATOM      1  C   UNL     1       0.032   4.376  -0.680  0.00  0.00    -0.094 C 
ATOM      2  N   UNL     1       0.774   3.532   0.280  0.00  0.00    +0.391 N 
ATOM      3  H   UNL     1       0.281   3.537   1.180  0.00  0.00    -0.080 HD
ENDROOT
BRANCH   2   4
ATOM      4  C   UNL     1       2.137   4.068   0.476  0.00  0.00    +0.016 C 
ATOM      5  C   UNL     1       3.019   3.747  -0.732  0.00  0.00    -0.004 C 
BRANCH   4   6
ATOM      6  C   UNL     1       2.731   3.442   1.712  0.00  0.00    +0.200 C 
ATOM      7  O   UNL     1       2.199   2.476   2.217  0.00  0.00    -0.278 OA
ATOM      8  N   UNL     1       3.852   3.955   2.255  0.00  0.00    -0.299 N 
ATOM      9  H   UNL     1       4.278   4.727   1.851  0.00  0.00    +0.150 HD
BRANCH   8  10
ATOM     10  C   UNL     1       4.429   3.346   3.456  0.00  0.00    +0.121 C 
ATOM     11  C   UNL     1       3.409   3.399   4.595  0.00  0.00    +0.041 C 
ATOM     12  C   UNL     1       4.011   2.763   5.850  0.00  0.00    +0.003 C 
ATOM     13  C   UNL     1       5.271   3.531   6.256  0.00  0.00    +0.000 C 
ATOM     14  C   UNL     1       6.291   3.478   5.117  0.00  0.00    +0.003 C 
ATOM     15  C   UNL     1       5.689   4.114   3.863  0.00  0.00    +0.041 C 
BRANCH  10  16
ATOM     16  C   UNL     1       4.779   1.944   3.176  0.00  0.00    +0.088 C 
ATOM     17  N   UNL     1       5.048   0.861   2.959  0.00  0.00    -0.194 NA
ENDBRANCH  10  16
ENDBRANCH   8  10
ENDBRANCH   4   6
ENDBRANCH   2   4
BRANCH   2  18
ATOM     18  C   UNL     1       0.845   2.143  -0.220  0.00  0.00    +0.020 C 
BRANCH  18  20
ATOM     19  N   UNL     1      -0.731   0.274  -0.598  0.00  0.00    -0.287 N 
ATOM     20  C   UNL     1      -0.539   1.548  -0.201  0.00  0.00    +0.201 C 
ATOM     21  O   UNL     1      -1.482   2.217   0.166  0.00  0.00    -0.278 OA
ATOM     22  H   UNL     1       0.008  -0.235  -0.967  0.00  0.00    +0.155 HD
BRANCH  19  28
ATOM     23  C   UNL     1      -3.921  -3.216  -1.943  0.00  0.00    +0.044 C 
ATOM     24  C   UNL     1      -3.568  -2.007  -1.117  0.00  0.00    -0.046 A 
ATOM     25  C   UNL     1      -4.494  -1.477  -0.236  0.00  0.00    +0.004 A 
ATOM     26  C   UNL     1      -4.173  -0.367   0.524  0.00  0.00    +0.002 A 
ATOM     27  C   UNL     1      -2.926   0.215   0.406  0.00  0.00    +0.023 A 
ATOM     28  C   UNL     1      -1.995  -0.314  -0.476  0.00  0.00    +0.036 A 
ATOM     29  C   UNL     1      -2.322  -1.425  -1.243  0.00  0.00    -0.026 A 
ATOM     30  C   UNL     1      -1.316  -1.999  -2.207  0.00  0.00    +0.046 C 
ENDBRANCH  19  28
ENDBRANCH  18  20
ENDBRANCH   2  18
TORSDOF 7
