REMARK  Name = ZINC33051367
REMARK  6 active torsions:
REMARK  status: ('A' for Active; 'I' for Inactive)
REMARK    1  A    between atoms: C_1  and  C_2
REMARK    2  A    between atoms: C_2  and  C_3
REMARK    3  A    between atoms: N_6  and  C_8
REMARK    4  A    between atoms: C_19  and  C_34
REMARK    5  A    between atoms: N_25  and  C_26
REMARK    6  A    between atoms: C_29  and  C_33
REMARK                            x       y       z     vdW  Elec       q    Type
REMARK                         _______ _______ _______ _____ _____    ______ ____
ROOT
ATOM      1  C   UNL     1      -4.327   5.525   0.917  0.00  0.00    +0.070 A 
ATOM      2  C   UNL     1      -4.878   4.633   0.003  0.00  0.00    +0.036 A 
ATOM      3  C   UNL     1      -3.862   3.860  -0.481  0.00  0.00    +0.146 A 
ATOM      4  N   UNL     1      -2.712   4.281   0.075  0.00  0.00    -0.215 N 
ATOM      5  N   UNL     1      -3.032   5.316   0.970  0.00  0.00    -0.169 NA
ATOM      6  N   UNL     1      -4.131   2.799  -1.354  0.00  0.00    -0.303 N 
ATOM      7  C   UNL     1      -3.511   2.421  -2.495  0.00  0.00    +0.093 A 
ATOM      8  C   UNL     1      -4.212   1.393  -3.027  0.00  0.00    +0.020 A 
ATOM      9  C   UNL     1      -5.289   1.117  -2.157  0.00  0.00    +0.025 A 
ATOM     10  C   UNL     1      -5.197   1.966  -1.121  0.00  0.00    +0.050 A 
ATOM     11  C   UNL     1      -6.054   2.052   0.108  0.00  0.00    +0.155 C 
ATOM     12  N   UNL     1      -6.920   3.254   0.087  0.00  0.00    -0.268 N 
ATOM     13  C   UNL     1      -6.304   4.494  -0.443  0.00  0.00    +0.151 C 
ATOM     14  C   UNL     1      -8.194   3.223   0.525  0.00  0.00    +0.308 C 
ATOM     15  O   UNL     1      -8.664   2.186   0.953  0.00  0.00    -0.252 OA
ATOM     16  N   UNL     1      -8.947   4.340   0.489  0.00  0.00    -0.268 N 
ATOM     17  H   UNL     1      -8.500   5.295   0.175  0.00  0.00    +0.156 HD
ENDROOT
BRANCH  16  18
ATOM     18  C   UNL     1     -10.298   4.286   0.852  0.00  0.00    +0.053 A 
ATOM     19  C   UNL     1     -10.717   3.410   1.844  0.00  0.00    +0.025 A 
ATOM     20  C   UNL     1     -12.051   3.359   2.200  0.00  0.00    +0.005 A 
ATOM     21  C   UNL     1     -12.969   4.179   1.570  0.00  0.00    -0.049 A 
ATOM     22  C   UNL     1     -12.555   5.053   0.582  0.00  0.00    +0.025 A 
ATOM     23  C   UNL     1     -11.221   5.113   0.224  0.00  0.00    +0.062 A 
ATOM     24 CL   UNL     1     -10.701   6.215  -1.012  0.00  0.00    -0.082 Cl
ATOM     25  C   UNL     1     -14.423   4.120   1.961  0.00  0.00    +0.044 C 
ENDBRANCH  16  18
BRANCH   4  26
ATOM     26  C   UNL     1      -1.430   3.777  -0.186  0.00  0.00    +0.068 A 
ATOM     27  C   UNL     1      -1.256   2.426  -0.453  0.00  0.00    +0.028 A 
ATOM     28  C   UNL     1       0.009   1.931  -0.705  0.00  0.00    +0.002 A 
ATOM     29  C   UNL     1       1.099   2.782  -0.702  0.00  0.00    +0.000 A 
ATOM     30  C   UNL     1       0.928   4.129  -0.442  0.00  0.00    +0.002 A 
ATOM     31  C   UNL     1      -0.334   4.629  -0.184  0.00  0.00    +0.028 A 
ENDBRANCH   4  26
BRANCH  11  32
ATOM     32  C   UNL     1      -5.166   2.106   1.324  0.00  0.00    -0.021 A 
ATOM     33  C   UNL     1      -3.928   1.491   1.304  0.00  0.00    +0.006 A 
ATOM     34  C   UNL     1      -3.112   1.544   2.418  0.00  0.00    +0.000 A 
ATOM     35  C   UNL     1      -3.537   2.205   3.555  0.00  0.00    +0.000 A 
ATOM     36  C   UNL     1      -4.777   2.816   3.577  0.00  0.00    +0.000 A 
ATOM     37  C   UNL     1      -5.591   2.767   2.462  0.00  0.00    +0.006 A 
ENDBRANCH  11  32
BRANCH   1  39
ATOM     38  C   UNL     1      -5.537   5.936   3.042  0.00  0.00    +0.010 C 
ATOM     39  C   UNL     1      -5.087   6.552   1.716  0.00  0.00    +0.054 C 
ENDBRANCH   1  39
TORSDOF 4
