REMARK  Name = ZINC39779545
REMARK  9 active torsions:
REMARK  status: ('A' for Active; 'I' for Inactive)
REMARK    1  A    between atoms: C_1  and  C_2
REMARK    2  A    between atoms: C_2  and  C_3
REMARK    3  A    between atoms: C_4  and  C_29
REMARK    4  A    between atoms: C_6  and  C_9
REMARK    5  A    between atoms: N_11  and  C_12
REMARK    6  A    between atoms: C_12  and  C_13
REMARK    7  A    between atoms: C_18  and  C_28
REMARK    8  A    between atoms: C_19  and  C_21
REMARK    9  A    between atoms: N_26  and  C_27
REMARK                            x       y       z     vdW  Elec       q    Type
REMARK                         _______ _______ _______ _____ _____    ______ ____
ROOT
ATOM      1  C   UNL     1       6.889  -2.111   5.153  0.00  0.00    +0.236 C 
ATOM      2  O   UNL     1       6.982  -0.904   5.228  0.00  0.00    -0.274 OA
ATOM      3  N   UNL     1       7.899  -2.892   5.585  0.00  0.00    -0.263 N 
ATOM      4  C   UNL     1       9.046  -2.316   6.114  0.00  0.00    +0.165 A 
ATOM      5  N   UNL     1       9.316  -1.037   6.277  0.00  0.00    -0.229 NA
ATOM      6  C   UNL     1      10.456  -0.640   6.798  0.00  0.00    +0.058 A 
ATOM      7  C   UNL     1      11.343  -1.623   7.161  0.00  0.00    +0.081 A 
ATOM      8  S   UNL     1      10.420  -3.083   6.709  0.00  0.00    -0.049 S 
ATOM      9  C   UNL     1      10.774   0.821   6.987  0.00  0.00    +0.067 C 
ATOM     10  H   UNL     1       7.825  -3.857   5.525  0.00  0.00    +0.157 HD
ENDROOT
BRANCH   7  11
ATOM     11  C   UNL     1      12.681  -1.506   7.761  0.00  0.00    +0.173 A 
ATOM     12  N   UNL     1      13.301  -0.391   8.080  0.00  0.00    -0.128 NA
ATOM     13  N   UNL     1      14.454  -0.658   8.582  0.00  0.00    -0.121 NA
ATOM     14  C   UNL     1      14.643  -1.957   8.617  0.00  0.00    +0.202 A 
ATOM     15  S   UNL     1      16.074  -2.788   9.221  0.00  0.00    -0.009 SA
ATOM     16  N   UNL     1      13.520  -2.545   8.101  0.00  0.00    -0.304 N 
ATOM     17  C   UNL     1      13.265  -3.978   7.942  0.00  0.00    +0.153 C 
ENDBRANCH   7  11
BRANCH   1  18
ATOM     18  C   UNL     1       5.645  -2.736   4.579  0.00  0.00    +0.200 C 
BRANCH  18  21
ATOM     19  C   UNL     1       3.515  -2.010   3.644  0.00  0.00    +0.227 C 
ATOM     20  O   UNL     1       3.222  -3.175   3.481  0.00  0.00    -0.275 OA
ATOM     21  N   UNL     1       4.705  -1.683   4.186  0.00  0.00    -0.306 N 
ATOM     22  H   UNL     1       4.939  -0.751   4.317  0.00  0.00    +0.149 HD
BRANCH  19  26
ATOM     23  C   UNL     1       0.731  -0.503   1.223  0.00  0.00    -0.015 C 
ATOM     24  C   UNL     1       0.198  -0.873   2.371  0.00  0.00    -0.062 C 
ATOM     25  C   UNL     1       1.077  -1.359   3.478  0.00  0.00    +0.055 C 
ATOM     26  C   UNL     1       2.548  -0.926   3.241  0.00  0.00    +0.141 C 
ATOM     27  S   UNL     1       2.491  -0.722   1.409  0.00  0.00    -0.117 S 
ATOM     28  C   UNL     1      -1.295  -0.806   2.567  0.00  0.00    +0.040 C 
BRANCH  23  30
ATOM     29  C   UNL     1      -0.019   1.526   0.010  0.00  0.00    +0.009 C 
ATOM     30  C   UNL     1       0.002  -0.004   0.002  0.00  0.00    +0.038 C 
ENDBRANCH  23  30
ENDBRANCH  19  26
ENDBRANCH  18  21
ENDBRANCH   1  18
TORSDOF 5
