REMARK  Name = ZINC04722376
REMARK  2 active torsions:
REMARK  status: ('A' for Active; 'I' for Inactive)
REMARK    1  A    between atoms: C_2  and  C_11
REMARK    2  A    between atoms: C_6  and  C_9
REMARK                            x       y       z     vdW  Elec       q    Type
REMARK                         _______ _______ _______ _____ _____    ______ ____
ROOT
ATOM      1  C   UNL     1      -0.013   1.086   0.008  0.00  0.00    +0.204 C 
ATOM      2  C   UNL     1      -0.732   1.581   1.266  0.00  0.00    +0.256 C 
ATOM      3  O   UNL     1      -2.104   1.173   1.212  0.00  0.00    -0.360 OA
ATOM      4  C   UNL     1      -2.798   1.648   0.055  0.00  0.00    +0.204 C 
ATOM      5  C   UNL     1      -2.077   1.153  -1.202  0.00  0.00    +0.256 C 
ATOM      6  O   UNL     1      -0.707   1.561  -1.149  0.00  0.00    -0.360 OA
ENDROOT
BRANCH   5   7
ATOM      7  C   UNL     1      -2.732   1.743  -2.425  0.00  0.00    +0.386 C 
ATOM      8  O   UNL     1      -2.119   2.513  -3.126  0.00  0.00    -0.243 OA
ATOM      9  O   UNL     1      -3.995   1.413  -2.736  0.00  0.00    -0.243 OA
ENDBRANCH   5   7
BRANCH   2  10
ATOM     10  C   UNL     1      -0.076   0.990   2.487  0.00  0.00    +0.386 C 
ATOM     11  O   UNL     1      -0.690   0.223   3.191  0.00  0.00    -0.243 OA
ATOM     12  O   UNL     1       1.190   1.315   2.793  0.00  0.00    -0.243 OA
ENDBRANCH   2  10
TORSDOF 2
