REMARK  Name = ZINC20214538
REMARK  12 active torsions:
REMARK  status: ('A' for Active; 'I' for Inactive)
REMARK    1  A    between atoms: C_1  and  C_2
REMARK    2  A    between atoms: C_2  and  O_3
REMARK    3  A    between atoms: O_3  and  C_4
REMARK    4  A    between atoms: C_4  and  C_6
REMARK    5  A    between atoms: C_7  and  C_24
REMARK    6  A    between atoms: C_12  and  C_14
REMARK    7  A    between atoms: C_17  and  O_20
REMARK    8  A    between atoms: O_20  and  C_21
REMARK    9  A    between atoms: C_21  and  C_22
REMARK   10  A    between atoms: C_21  and  C_23
REMARK   11  A    between atoms: C_24  and  N_25
REMARK   12  A    between atoms: C_28  and  N_31
REMARK                            x       y       z     vdW  Elec       q    Type
REMARK                         _______ _______ _______ _____ _____    ______ ____
ROOT
ATOM      1  C   UNL     1      -2.771   0.579   0.038  0.00  0.00    +0.079 C 
ATOM      2  C   UNL     1      -3.670   1.170  -0.778  0.00  0.00    +0.038 C 
ATOM      3  N   UNL     1      -3.369   1.436  -2.083  0.00  0.00    -0.271 N 
ATOM      4  C   UNL     1      -2.191   1.143  -2.648  0.00  0.00    +0.304 C 
ATOM      5  O   UNL     1      -2.015   1.419  -3.819  0.00  0.00    -0.252 OA
ATOM      6  N   UNL     1      -1.194   0.551  -1.962  0.00  0.00    -0.288 N 
ATOM      7  C   UNL     1      -1.418   0.222  -0.544  0.00  0.00    +0.144 C 
ATOM      8  H   UNL     1      -4.114   1.918  -2.732  0.00  0.00    +0.156 HD
ATOM      9  H   UNL     1      -0.230   0.314  -2.436  0.00  0.00    +0.151 HD
ENDROOT
BRANCH   7  10
ATOM     10  C   UNL     1      -0.362   0.926   0.269  0.00  0.00    -0.022 A 
ATOM     11  C   UNL     1      -0.035   2.240  -0.014  0.00  0.00    +0.009 A 
ATOM     12  C   UNL     1       0.928   2.889   0.733  0.00  0.00    +0.046 A 
ATOM     13  C   UNL     1       1.576   2.219   1.761  0.00  0.00    +0.121 A 
ATOM     14  C   UNL     1       1.250   0.900   2.039  0.00  0.00    +0.046 A 
ATOM     15  C   UNL     1       0.282   0.256   1.293  0.00  0.00    +0.009 A 
BRANCH  13  16
ATOM     16  O   UNL     1       2.527   2.854   2.494  0.00  0.00    -0.489 OA
BRANCH  16  17
ATOM     17  C   UNL     1       3.074   2.141   3.606  0.00  0.00    +0.167 C 
ATOM     18  C   UNL     1       4.227   1.257   3.127  0.00  0.00    +0.051 C 
ATOM     19  C   UNL     1       3.592   3.137   4.645  0.00  0.00    +0.051 C 
ENDBRANCH  16  17
ENDBRANCH  13  16
ENDBRANCH   7  10
BRANCH   1  20
ATOM     20  C   UNL     1      -3.081   0.302   1.390  0.00  0.00    +0.339 C 
ATOM     21  O   UNL     1      -4.122   0.708   1.871  0.00  0.00    -0.245 OA
BRANCH  20  22
ATOM     22  O   UNL     1      -2.222  -0.412   2.147  0.00  0.00    -0.462 OA
BRANCH  22  24
ATOM     23  C   UNL     1      -1.510  -1.472   4.199  0.00  0.00    +0.048 C 
ATOM     24  C   UNL     1      -2.599  -0.653   3.504  0.00  0.00    +0.229 C 
ENDBRANCH  22  24
ENDBRANCH  20  22
ENDBRANCH   1  20
BRANCH   2  25
ATOM     25  C   UNL     1      -5.027   1.542  -0.240  0.00  0.00    +0.135 C 
BRANCH  25  26
ATOM     26  N   UNL     1      -4.931   2.808   0.498  0.00  0.00    -0.297 NA
ATOM     27  C   UNL     1      -4.295   3.848  -0.321  0.00  0.00    +0.083 C 
ATOM     28  C   UNL     1      -4.080   5.105   0.525  0.00  0.00    +0.000 C 
ATOM     29  C   UNL     1      -5.431   5.598   1.050  0.00  0.00    -0.066 C 
ATOM     30  C   UNL     1      -6.094   4.480   1.859  0.00  0.00    +0.000 C 
ATOM     31  C   UNL     1      -6.251   3.241   0.975  0.00  0.00    +0.083 C 
BRANCH  29  32
ATOM     32  N   UNL     1      -5.225   6.771   1.910  0.00  0.00    +0.382 N 
ATOM     33  C   UNL     1      -6.489   7.206   2.518  0.00  0.00    -0.078 C 
ATOM     34  C   UNL     1      -6.215   8.333   3.517  0.00  0.00    -0.019 C 
ATOM     35  C   UNL     1      -5.548   9.503   2.788  0.00  0.00    -0.004 C 
ATOM     36  C   UNL     1      -4.259   9.012   2.123  0.00  0.00    -0.019 C 
ATOM     37  C   UNL     1      -4.590   7.865   1.165  0.00  0.00    -0.078 C 
ATOM     38  H   UNL     1      -4.545   6.480   2.724  0.00  0.00    -0.081 HD
ENDBRANCH  29  32
ENDBRANCH  25  26
ENDBRANCH   2  25
TORSDOF 9
