REMARK  Name = ZINC08453947
REMARK  6 active torsions:
REMARK  status: ('A' for Active; 'I' for Inactive)
REMARK    1  A    between atoms: C_4  and  N_7
REMARK    2  A    between atoms: C_8  and  O_9
REMARK    3  A    between atoms: C_10  and  C_11
REMARK    4  A    between atoms: N_12  and  C_13
REMARK    5  A    between atoms: C_22  and  C_24
REMARK    6  A    between atoms: C_26  and  N_32
REMARK                            x       y       z     vdW  Elec       q    Type
REMARK                         _______ _______ _______ _____ _____    ______ ____
ROOT
ATOM      1  N   UNL     1       3.601  -0.702  -0.107  0.00  0.00    -0.199 N 
ATOM      2  C   UNL     1       3.914  -1.767   0.660  0.00  0.00    +0.225 A 
ATOM      3  C   UNL     1       5.235  -2.106   0.389  0.00  0.00    +0.082 A 
ATOM      4  C   UNL     1       5.706  -1.149  -0.620  0.00  0.00    +0.107 A 
ATOM      5  N   UNL     1       4.704  -0.343  -0.886  0.00  0.00    -0.163 NA
ENDROOT
BRANCH   4   6
ATOM      6  C   UNL     1       7.057  -1.105  -1.228  0.00  0.00    +0.023 A 
ATOM      7  C   UNL     1       7.642  -2.272  -1.717  0.00  0.00    +0.045 A 
ATOM      8  C   UNL     1       8.899  -2.226  -2.283  0.00  0.00    +0.145 A 
ATOM      9  C   UNL     1       9.581  -1.024  -2.365  0.00  0.00    +0.073 A 
ATOM     10  C   UNL     1       9.006   0.138  -1.880  0.00  0.00    +0.043 A 
ATOM     11  C   UNL     1       7.745   0.105  -1.317  0.00  0.00    +0.052 A 
ATOM     12 CL   UNL     1       7.022   1.564  -0.716  0.00  0.00    -0.083 Cl
ATOM     13 CL   UNL     1      11.163  -0.973  -3.078  0.00  0.00    -0.081 Cl
BRANCH   8  14
ATOM     14  N   UNL     1       9.522  -3.465  -2.802  0.00  0.00    +0.058 N 
ATOM     15  O   UNL     1       8.928  -4.515  -2.731  0.00  0.00    -0.126 OA
ATOM     16  O   UNL     1      10.624  -3.425  -3.298  0.00  0.00    -0.126 OA
ENDBRANCH   8  14
ENDBRANCH   4   6
BRANCH   1  20
ATOM     17  C   UNL     1      -0.101   1.211  -0.162  0.00  0.00    +0.000 A 
ATOM     18  C   UNL     1       1.058   1.946  -0.333  0.00  0.00    +0.002 A 
ATOM     19  C   UNL     1       2.286   1.315  -0.316  0.00  0.00    +0.028 A 
ATOM     20  C   UNL     1       2.356  -0.059  -0.126  0.00  0.00    +0.069 A 
ATOM     21  C   UNL     1       1.191  -0.794   0.046  0.00  0.00    +0.028 A 
ATOM     22  C   UNL     1      -0.035  -0.157   0.027  0.00  0.00    +0.002 A 
ENDBRANCH   1  20
BRANCH   2  23
ATOM     23  O   UNL     1       3.092  -2.392   1.536  0.00  0.00    -0.492 OA
ATOM     24  H   UNL     1       2.582  -3.116   1.148  0.00  0.00    +0.294 HD
ENDBRANCH   2  23
BRANCH   3  25
ATOM     25  C   UNL     1       6.002  -3.201   0.989  0.00  0.00    +0.126 C 
ATOM     26  N   UNL     1       5.479  -3.917   1.948  0.00  0.00    -0.252 NA
BRANCH  26  27
ATOM     27  C   UNL     1       6.233  -4.867   2.582  0.00  0.00    +0.102 A 
ATOM     28  C   UNL     1       7.514  -4.555   3.040  0.00  0.00    +0.033 A 
ATOM     29  C   UNL     1       8.270  -5.516   3.679  0.00  0.00    +0.043 A 
ATOM     30  C   UNL     1       7.762  -6.791   3.868  0.00  0.00    +0.161 A 
ATOM     31  C   UNL     1       6.490  -7.110   3.416  0.00  0.00    +0.195 A 
ATOM     32  C   UNL     1       5.720  -6.153   2.779  0.00  0.00    +0.186 A 
ATOM     33  F   UNL     1       4.479  -6.461   2.344  0.00  0.00    -0.200 F 
ATOM     34  F   UNL     1       6.000  -8.355   3.602  0.00  0.00    -0.199 F 
ATOM     35  F   UNL     1       8.508  -7.727   4.494  0.00  0.00    -0.202 F 
ENDBRANCH  26  27
ENDBRANCH   3  25
TORSDOF 6
