REMARK  Name = ZINC08695331
REMARK  16 active torsions:
REMARK  status: ('A' for Active; 'I' for Inactive)
REMARK    1  A    between atoms: C_1  and  C_2
REMARK    2  A    between atoms: C_2  and  C_3
REMARK    3  A    between atoms: C_3  and  C_4
REMARK    4  A    between atoms: C_4  and  N_66
REMARK    5  A    between atoms: C_5  and  C_6
REMARK    6  A    between atoms: C_5  and  N_66
REMARK    7  A    between atoms: C_6  and  C_7
REMARK    8  A    between atoms: C_7  and  C_8
REMARK    9  A    between atoms: C_9  and  C_10
REMARK   10  A    between atoms: C_9  and  N_66
REMARK   11  A    between atoms: C_10  and  C_11
REMARK   12  A    between atoms: C_11  and  N_12
REMARK   13  A    between atoms: C_13  and  C_29
REMARK   14  A    between atoms: C_15  and  C_20
REMARK   15  A    between atoms: C_16  and  O_19
REMARK   16  A    between atoms: C_20  and  C_22
REMARK                            x       y       z     vdW  Elec       q    Type
REMARK                         _______ _______ _______ _____ _____    ______ ____
ROOT
ATOM      1  N   UNL     1      -8.303   0.056   5.984  0.00  0.00    -0.281 N 
ATOM      2  C   UNL     1      -8.918  -1.155   6.538  0.00  0.00    +0.180 C 
ATOM      3  C   UNL     1     -10.361  -1.138   6.090  0.00  0.00    +0.074 C 
ATOM      4  C   UNL     1     -10.528  -0.014   5.354  0.00  0.00    +0.188 C 
ATOM      5  C   UNL     1      -9.248   0.724   5.297  0.00  0.00    +0.282 C 
ATOM      6  O   UNL     1      -9.075   1.775   4.714  0.00  0.00    -0.267 OA
ENDROOT
BRANCH   2   7
ATOM      7  C   UNL     1      -8.841  -1.134   8.043  0.00  0.00    +0.130 A 
ATOM      8  C   UNL     1      -8.626  -2.200   8.835  0.00  0.00    +0.047 A 
ATOM      9  C   UNL     1      -8.631  -1.728  10.167  0.00  0.00    +0.041 A 
ATOM     10  C   UNL     1      -8.848  -0.402  10.110  0.00  0.00    +0.195 A 
ATOM     11  O   UNL     1      -8.969  -0.046   8.820  0.00  0.00    -0.466 OA
ENDBRANCH   2   7
BRANCH   4  12
ATOM     12  O   UNL     1     -11.683   0.374   4.767  0.00  0.00    -0.502 OA
ATOM     13  H   UNL     1     -11.538   1.237   4.284  0.00  0.00    +0.292 HD
ENDBRANCH   4  12
BRANCH   3  14
ATOM     14  C   UNL     1     -11.383  -2.143   6.395  0.00  0.00    +0.195 C 
ATOM     15  O   UNL     1     -12.325  -1.855   7.110  0.00  0.00    -0.287 OA
BRANCH  14  16
ATOM     16  C   UNL     1     -11.271  -3.506   5.835  0.00  0.00    +0.022 A 
ATOM     17  C   UNL     1     -10.224  -3.822   4.965  0.00  0.00    +0.013 A 
ATOM     18  C   UNL     1     -10.121  -5.096   4.449  0.00  0.00    +0.016 A 
ATOM     19  C   UNL     1     -11.060  -6.059   4.783  0.00  0.00    +0.018 A 
ATOM     20  C   UNL     1     -12.103  -5.750   5.640  0.00  0.00    +0.016 A 
ATOM     21  C   UNL     1     -12.214  -4.481   6.167  0.00  0.00    +0.013 A 
ATOM     22 BR   UNL     1     -10.916  -7.802   4.064  0.00  0.00    -0.050 Br
ENDBRANCH  14  16
ENDBRANCH   3  14
BRANCH   1  23
ATOM     23  C   UNL     1      -6.907   0.470   6.154  0.00  0.00    +0.107 C 
BRANCH  23  24
ATOM     24  C   UNL     1      -6.061  -0.115   5.021  0.00  0.00    +0.000 C 
BRANCH  24  25
ATOM     25  C   UNL     1      -4.604   0.317   5.199  0.00  0.00    -0.077 C 
BRANCH  25  26
ATOM     26  N   UNL     1      -3.830  -0.134   4.023  0.00  0.00    +0.380 N 
ATOM     27  H   UNL     1      -4.380   0.041   3.174  0.00  0.00    -0.082 HD
BRANCH  26  28
ATOM     28  C   UNL     1      -3.554  -1.583   4.126  0.00  0.00    -0.079 C 
BRANCH  28  29
ATOM     29  C   UNL     1      -2.953  -2.066   2.804  0.00  0.00    -0.019 C 
BRANCH  29  31
ATOM     30  C   UNL     1      -2.081  -4.052   1.564  0.00  0.00    +0.004 C 
ATOM     31  C   UNL     1      -2.682  -3.569   2.886  0.00  0.00    -0.005 C 
ENDBRANCH  29  31
ENDBRANCH  28  29
ENDBRANCH  26  28
BRANCH  26  32
ATOM     32  C   UNL     1      -2.560   0.617   3.936  0.00  0.00    -0.079 C 
BRANCH  32  33
ATOM     33  C   UNL     1      -2.874   2.082   3.626  0.00  0.00    -0.019 C 
BRANCH  33  34
ATOM     34  C   UNL     1      -1.567   2.851   3.419  0.00  0.00    -0.005 C 
ATOM     35  C   UNL     1      -1.880   4.316   3.109  0.00  0.00    +0.004 C 
ENDBRANCH  33  34
ENDBRANCH  32  33
ENDBRANCH  26  32
ENDBRANCH  25  26
ENDBRANCH  24  25
ENDBRANCH  23  24
ENDBRANCH   1  23
TORSDOF 14
