REMARK  Name = ZINC15002757
REMARK  7 active torsions:
REMARK  status: ('A' for Active; 'I' for Inactive)
REMARK    1  A    between atoms: C_1  and  C_2
REMARK    2  A    between atoms: C_10  and  C_11
REMARK    3  A    between atoms: C_16  and  N_71
REMARK    4  A    between atoms: C_22  and  O_25
REMARK    5  A    between atoms: N_26  and  C_27
REMARK    6  A    between atoms: C_27  and  C_28
REMARK    7  A    between atoms: C_28  and  C_29
REMARK                            x       y       z     vdW  Elec       q    Type
REMARK                         _______ _______ _______ _____ _____    ______ ____
ROOT
ATOM      1  C   UNL     1      -1.990   7.538  -5.816  0.00  0.00    +0.046 C 
ATOM      2  C   UNL     1      -0.935   7.040  -6.770  0.00  0.00    -0.019 A 
ATOM      3  C   UNL     1       0.230   6.437  -6.277  0.00  0.00    +0.051 A 
ATOM      4  C   UNL     1       0.625   6.207  -4.925  0.00  0.00    +0.130 A 
ATOM      5  N   UNL     1       1.785   5.621  -4.684  0.00  0.00    -0.220 NA
ATOM      6  C   UNL     1       2.600   5.242  -5.652  0.00  0.00    +0.224 A 
ATOM      7  N   UNL     1       2.295   5.431  -6.922  0.00  0.00    -0.228 NA
ATOM      8  C   UNL     1       1.159   6.008  -7.256  0.00  0.00    +0.114 A 
ATOM      9  S   UNL     1       0.372   6.446  -8.785  0.00  0.00    -0.064 S 
ATOM     10  C   UNL     1      -1.115   7.169  -8.113  0.00  0.00    +0.080 A 
ATOM     11  N   UNL     1      -0.197   6.586  -3.883  0.00  0.00    -0.328 N 
ATOM     12  H   UNL     1      -1.083   6.936  -4.066  0.00  0.00    +0.147 HD
ENDROOT
BRANCH  10  13
ATOM     13  C   UNL     1      -2.252   7.758  -8.832  0.00  0.00    +0.254 C 
ATOM     14  O   UNL     1      -3.377   7.656  -8.379  0.00  0.00    -0.269 OA
ATOM     15  N   UNL     1      -2.050   8.411  -9.993  0.00  0.00    -0.297 N 
ATOM     16  C   UNL     1      -0.687   8.673 -10.477  0.00  0.00    +0.106 C 
ATOM     17  C   UNL     1      -0.539  10.166 -10.762  0.00  0.00    +0.004 C 
ATOM     18  C   UNL     1      -1.644  10.613 -11.722  0.00  0.00    -0.066 C 
ATOM     19  C   UNL     1      -3.010  10.376 -11.075  0.00  0.00    +0.004 C 
ATOM     20  C   UNL     1      -3.187   8.880 -10.796  0.00  0.00    +0.106 C 
BRANCH  18  26
ATOM     21  C   UNL     1      -1.671  12.856 -10.812  0.00  0.00    -0.078 C 
ATOM     22  C   UNL     1      -1.643  14.340 -11.186  0.00  0.00    -0.016 C 
ATOM     23  C   UNL     1      -0.301  14.670 -11.845  0.00  0.00    +0.027 C 
ATOM     24  C   UNL     1      -0.110  13.775 -13.072  0.00  0.00    +0.098 C 
ATOM     25  C   UNL     1      -0.182  12.308 -12.644  0.00  0.00    -0.047 C 
ATOM     26  N   UNL     1      -1.507  12.049 -12.040  0.00  0.00    +0.383 N 
ATOM     27  H   UNL     1      -2.236  12.313 -12.712  0.00  0.00    -0.081 HD
BRANCH  24  28
ATOM     28  O   UNL     1       1.166  14.038 -13.660  0.00  0.00    -0.394 OA
ATOM     29  H   UNL     1       1.282  14.952 -13.956  0.00  0.00    +0.210 HD
ENDBRANCH  24  28
ENDBRANCH  18  26
ENDBRANCH  10  13
BRANCH  11  30
ATOM     30  C   UNL     1       0.269   6.460  -2.500  0.00  0.00    +0.107 C 
BRANCH  30  31
ATOM     31  C   UNL     1      -0.825   6.945  -1.547  0.00  0.00    +0.049 C 
BRANCH  31  32
ATOM     32  C   UNL     1      -0.346   6.815  -0.124  0.00  0.00    -0.072 C 
ATOM     33  C   UNL     1       0.187   7.854   0.434  0.00  0.00    -0.028 C 
ATOM     34  C   UNL     1       0.719   7.875   1.838  0.00  0.00    +0.027 C 
ATOM     35  C   UNL     1       0.176   6.683   2.628  0.00  0.00    +0.004 C 
ATOM     36  C   UNL     1       0.382   5.412   1.794  0.00  0.00    +0.005 C 
ATOM     37  C   UNL     1      -0.517   5.489   0.557  0.00  0.00    +0.030 C 
ENDBRANCH  31  32
ENDBRANCH  30  31
ENDBRANCH  11  30
TORSDOF 6
