REMARK  Name = ZINC63481236
REMARK  12 active torsions:
REMARK  status: ('A' for Active; 'I' for Inactive)
REMARK    1  A    between atoms: C_1  and  C_2
REMARK    2  A    between atoms: C_4  and  S_9
REMARK    3  A    between atoms: C_5  and  C_8
REMARK    4  A    between atoms: S_9  and  N_12
REMARK    5  A    between atoms: N_12  and  C_13
REMARK    6  A    between atoms: N_12  and  C_29
REMARK    7  A    between atoms: C_13  and  C_14
REMARK    8  A    between atoms: N_16  and  C_17
REMARK    9  A    between atoms: C_17  and  C_18
REMARK   10  A    between atoms: C_32  and  C_35
REMARK   11  A    between atoms: C_35  and  C_36
REMARK   12  A    between atoms: C_35  and  C_37
REMARK                            x       y       z     vdW  Elec       q    Type
REMARK                         _______ _______ _______ _____ _____    ______ ____
ROOT
ATOM      1  N   UNL     1       0.794   1.269  -3.294  0.00  0.00    -0.194 N 
ENDROOT
BRANCH   1   2
ATOM      2  C   UNL     1      -0.170   2.279  -3.256  0.00  0.00    +0.052 A 
ATOM      3  C   UNL     1       0.089   3.463  -2.577  0.00  0.00    +0.025 A 
ATOM      4  C   UNL     1      -0.866   4.460  -2.542  0.00  0.00    +0.006 A 
ATOM      5  C   UNL     1      -2.079   4.280  -3.180  0.00  0.00    -0.045 A 
ATOM      6  C   UNL     1      -2.340   3.103  -3.857  0.00  0.00    +0.006 A 
ATOM      7  C   UNL     1      -1.387   2.104  -3.901  0.00  0.00    +0.025 A 
BRANCH   5   8
ATOM      8  C   UNL     1      -3.120   5.370  -3.139  0.00  0.00    +0.013 C 
ATOM      9  C   UNL     1      -3.439   5.824  -4.564  0.00  0.00    +0.012 C 
ATOM     10  C   UNL     1      -4.391   4.836  -2.477  0.00  0.00    +0.012 C 
ENDBRANCH   5   8
ENDBRANCH   1   2
BRANCH   1  11
ATOM     11  S   UNL     1       0.417  -0.256  -2.769  0.00  0.00    +0.075 S 
ATOM     12  O   UNL     1       1.208  -1.156  -3.533  0.00  0.00    -0.150 OA
ATOM     13  O   UNL     1      -1.001  -0.332  -2.728  0.00  0.00    -0.150 OA
BRANCH  11  16
ATOM     14  C   UNL     1       0.337   1.746   0.054  0.00  0.00    +0.041 C 
ATOM     15  C   UNL     1       0.353   0.219   0.143  0.00  0.00    +0.176 C 
ATOM     16  C   UNL     1       0.976  -0.385  -1.103  0.00  0.00    +0.134 C 
ATOM     17  C   UNL     1       2.046  -1.038  -0.642  0.00  0.00    +0.085 C 
ATOM     18  N   UNL     1       2.147  -0.908   0.699  0.00  0.00    -0.157 NA
ATOM     19  N   UNL     1       1.252  -0.231   1.220  0.00  0.00    -0.178 NA
ATOM     20  C   UNL     1       3.010  -1.815  -1.502  0.00  0.00    +0.069 C 
ENDBRANCH  11  16
ENDBRANCH   1  11
BRANCH   1  21
ATOM     21  C   UNL     1       2.139   1.558  -3.799  0.00  0.00    +0.227 C 
BRANCH  21  22
ATOM     22  C   UNL     1       2.150   1.427  -5.300  0.00  0.00    +0.232 C 
ATOM     23  O   UNL     1       1.136   1.122  -5.890  0.00  0.00    -0.274 OA
ATOM     24  N   UNL     1       3.289   1.649  -5.987  0.00  0.00    -0.310 N 
ATOM     25  H   UNL     1       4.100   1.893  -5.515  0.00  0.00    +0.149 HD
BRANCH  24  26
ATOM     26  C   UNL     1       3.300   1.522  -7.447  0.00  0.00    +0.152 C 
BRANCH  26  27
ATOM     27  C   UNL     1       4.704   1.824  -7.974  0.00  0.00    +0.228 C 
ATOM     28  C   UNL     1       4.697   1.800  -9.508  0.00  0.00    +0.275 C 
ATOM     29  O   UNL     1       6.026   2.072  -9.967  0.00  0.00    -0.485 OA
ATOM     30  C   UNL     1       7.035   1.395  -9.354  0.00  0.00    +0.162 A 
ATOM     31  C   UNL     1       8.278   1.326  -9.966  0.00  0.00    +0.049 A 
ATOM     32  C   UNL     1       9.313   0.644  -9.355  0.00  0.00    +0.004 A 
ATOM     33  C   UNL     1       9.113   0.031  -8.132  0.00  0.00    +0.004 A 
ATOM     34  C   UNL     1       7.877   0.095  -7.518  0.00  0.00    +0.049 A 
ATOM     35  C   UNL     1       6.833   0.775  -8.127  0.00  0.00    +0.163 A 
ATOM     36  O   UNL     1       5.619   0.823  -7.513  0.00  0.00    -0.480 OA
ENDBRANCH  26  27
ENDBRANCH  24  26
ENDBRANCH  21  22
ENDBRANCH   1  21
TORSDOF 8
