REMARK  Name = ZINC40142052
REMARK  6 active torsions:
REMARK  status: ('A' for Active; 'I' for Inactive)
REMARK    1  A    between atoms: C_1  and  C_2
REMARK    2  A    between atoms: C_2  and  C_3
REMARK    3  A    between atoms: C_2  and  C_4
REMARK    4  A    between atoms: C_7  and  C_31
REMARK    5  A    between atoms: C_10  and  C_12
REMARK    6  A    between atoms: C_14  and  C_25
REMARK                            x       y       z     vdW  Elec       q    Type
REMARK                         _______ _______ _______ _____ _____    ______ ____
ROOT
ATOM      1  C   UNL     1      -0.259  -5.344  -0.048  0.00  0.00    +0.152 C 
ATOM      2  C   UNL     1       1.169  -4.870  -0.240  0.00  0.00    -0.014 C 
ATOM      3  C   UNL     1       2.083  -5.187   0.769  0.00  0.00    +0.002 A 
ATOM      4  C   UNL     1       3.432  -4.785   0.671  0.00  0.00    +0.030 A 
ATOM      5  C   UNL     1       4.302  -5.107   1.667  0.00  0.00    +0.042 A 
ATOM      6  C   UNL     1       3.887  -5.828   2.786  0.00  0.00    +0.022 A 
ATOM      7  C   UNL     1       2.599  -6.243   2.936  0.00  0.00    +0.025 A 
ATOM      8  C   UNL     1       1.646  -5.946   1.946  0.00  0.00    +0.041 A 
ATOM      9  N   UNL     1       0.381  -6.354   2.095  0.00  0.00    -0.284 N 
ATOM     10  C   UNL     1      -0.570  -6.116   1.214  0.00  0.00    +0.230 C 
ATOM     11  O   UNL     1      -1.700  -6.518   1.417  0.00  0.00    -0.274 OA
ATOM     12 CL   UNL     1       5.960  -4.610   1.542  0.00  0.00    -0.084 Cl
ATOM     13  H   UNL     1       0.151  -6.852   2.895  0.00  0.00    +0.155 HD
ENDROOT
BRANCH   1  19
ATOM     14  C   UNL     1      -1.611  -0.644  -0.130  0.00  0.00    +0.238 C 
ATOM     15  O   UNL     1      -2.578   0.088  -0.156  0.00  0.00    -0.274 OA
ATOM     16  N   UNL     1      -1.779  -1.982  -0.120  0.00  0.00    -0.185 N 
ATOM     17  C   UNL     1      -3.073  -2.684  -0.144  0.00  0.00    +0.139 C 
ATOM     18  C   UNL     1      -2.667  -4.172  -0.119  0.00  0.00    +0.083 C 
ATOM     19  C   UNL     1      -1.156  -4.134  -0.083  0.00  0.00    +0.055 C 
ATOM     20  N   UNL     1      -0.757  -2.928  -0.092  0.00  0.00    -0.185 NA
BRANCH  17  21
ATOM     21  C   UNL     1      -3.832  -2.357  -1.405  0.00  0.00    +0.010 A 
ATOM     22  C   UNL     1      -3.152  -1.935  -2.531  0.00  0.00    +0.008 A 
ATOM     23  C   UNL     1      -3.848  -1.635  -3.687  0.00  0.00    +0.000 A 
ATOM     24  C   UNL     1      -5.225  -1.758  -3.718  0.00  0.00    +0.003 A 
ATOM     25  C   UNL     1      -5.907  -2.180  -2.593  0.00  0.00    +0.039 A 
ATOM     26  C   UNL     1      -5.210  -2.486  -1.436  0.00  0.00    +0.128 A 
ATOM     27  F   UNL     1      -5.875  -2.904  -0.336  0.00  0.00    -0.205 F 
ENDBRANCH  17  21
BRANCH  14  29
ATOM     28  C   UNL     1      -0.312   1.468  -0.126  0.00  0.00    +0.017 C 
ATOM     29  C   UNL     1      -0.222  -0.059  -0.109  0.00  0.00    +0.071 C 
ATOM     30  C   UNL     1       0.503  -0.513   1.159  0.00  0.00    +0.017 C 
ENDBRANCH  14  29
ENDBRANCH   1  19
BRANCH   2  31
ATOM     31  C   UNL     1       1.559  -4.139  -1.390  0.00  0.00    -0.020 A 
ATOM     32  C   UNL     1       2.060  -2.833  -1.262  0.00  0.00    +0.008 A 
ATOM     33  C   UNL     1       2.436  -2.132  -2.386  0.00  0.00    +0.001 A 
ATOM     34  C   UNL     1       2.321  -2.710  -3.639  0.00  0.00    +0.000 A 
ATOM     35  C   UNL     1       1.828  -3.998  -3.777  0.00  0.00    +0.001 A 
ATOM     36  C   UNL     1       1.452  -4.718  -2.665  0.00  0.00    +0.008 A 
ENDBRANCH   2  31
TORSDOF 4
