REMARK  Name = ZINC61772966
REMARK  8 active torsions:
REMARK  status: ('A' for Active; 'I' for Inactive)
REMARK    1  A    between atoms: C_1  and  C_2
REMARK    2  A    between atoms: C_5  and  O_22
REMARK    3  A    between atoms: C_6  and  N_8
REMARK    4  A    between atoms: C_9  and  C_11
REMARK    5  A    between atoms: N_13  and  C_14
REMARK    6  A    between atoms: C_18  and  C_21
REMARK    7  A    between atoms: C_19  and  C_20
REMARK    8  A    between atoms: O_22  and  C_23
REMARK                            x       y       z     vdW  Elec       q    Type
REMARK                         _______ _______ _______ _____ _____    ______ ____
ROOT
ATOM      1  N   UNL     1       0.051  -2.794   2.397  0.00  0.00    -0.275 N 
ATOM      2  C   UNL     1       0.150  -2.130   3.565  0.00  0.00    +0.303 C 
ATOM      3  O   UNL     1       0.133  -0.916   3.577  0.00  0.00    -0.265 OA
ATOM      4  H   UNL     1      -0.001  -3.763   2.393  0.00  0.00    +0.155 HD
ENDROOT
BRANCH   1  10
ATOM      5  C   UNL     1      -1.308   1.189  -0.144  0.00  0.00    +0.044 C 
ATOM      6  C   UNL     1      -0.627  -0.154  -0.071  0.00  0.00    -0.048 A 
ATOM      7  C   UNL     1      -0.028  -0.685  -1.199  0.00  0.00    +0.007 A 
ATOM      8  C   UNL     1       0.598  -1.916  -1.139  0.00  0.00    +0.048 A 
ATOM      9  C   UNL     1       0.628  -2.622   0.053  0.00  0.00    +0.141 A 
ATOM     10  C   UNL     1       0.025  -2.087   1.190  0.00  0.00    +0.076 A 
ATOM     11  C   UNL     1      -0.597  -0.848   1.123  0.00  0.00    +0.030 A 
BRANCH   9  12
ATOM     12  O   UNL     1       1.243  -3.833   0.114  0.00  0.00    -0.493 OA
ATOM     13  C   UNL     1       1.839  -4.318  -1.091  0.00  0.00    +0.277 C 
ENDBRANCH   9  12
ENDBRANCH   1  10
BRANCH   2  14
ATOM     14  C   UNL     1       0.279  -2.886   4.846  0.00  0.00    +0.300 C 
ATOM     15  O   UNL     1       0.295  -4.100   4.835  0.00  0.00    -0.265 OA
ATOM     16  N   UNL     1       0.377  -2.222   6.015  0.00  0.00    -0.304 N 
ATOM     17  H   UNL     1       0.364  -1.252   6.024  0.00  0.00    +0.149 HD
BRANCH  16  18
ATOM     18  C   UNL     1       0.503  -2.965   7.271  0.00  0.00    +0.076 C 
ATOM     19  C   UNL     1       1.974  -3.311   7.513  0.00  0.00    +0.022 C 
ATOM     20  C   UNL     1       2.794  -2.022   7.598  0.00  0.00    +0.002 C 
ATOM     21  C   UNL     1       2.276  -1.163   8.752  0.00  0.00    +0.003 C 
ATOM     22  C   UNL     1       0.805  -0.817   8.511  0.00  0.00    -0.009 C 
ATOM     23  C   UNL     1      -0.015  -2.105   8.426  0.00  0.00    +0.009 C 
ATOM     24  C   UNL     1      -1.486  -1.759   8.184  0.00  0.00    +0.009 C 
ATOM     25  C   UNL     1       0.287   0.043   9.665  0.00  0.00    +0.008 C 
ENDBRANCH  16  18
ENDBRANCH   2  14
TORSDOF 4
