REMARK  Name = ZINC40317032
REMARK  13 active torsions:
REMARK  status: ('A' for Active; 'I' for Inactive)
REMARK    1  A    between atoms: C_1  and  C_2
REMARK    2  A    between atoms: C_2  and  C_3
REMARK    3  A    between atoms: C_2  and  C_4
REMARK    4  A    between atoms: C_7  and  C_10
REMARK    5  A    between atoms: C_10  and  N_11
REMARK    6  A    between atoms: N_11  and  C_12
REMARK    7  A    between atoms: N_11  and  C_18
REMARK    8  A    between atoms: C_12  and  C_13
REMARK    9  A    between atoms: C_18  and  C_19
REMARK   10  A    between atoms: C_19  and  C_21
REMARK   11  A    between atoms: C_19  and  O_30
REMARK   12  A    between atoms: C_21  and  O_22
REMARK   13  A    between atoms: O_22  and  C_23
REMARK                            x       y       z     vdW  Elec       q    Type
REMARK                         _______ _______ _______ _____ _____    ______ ____
ROOT
ATOM      1  N   UNL     1      -6.010  -1.193  -0.898  0.00  0.00    +0.389 N 
ATOM      2  H   UNL     1      -6.004  -1.149  -1.906  0.00  0.00    -0.081 HD
ENDROOT
BRANCH   1   3
ATOM      3  C   UNL     1      -4.753  -1.792  -0.427  0.00  0.00    -0.042 C 
BRANCH   3   7
ATOM      4  C   UNL     1      -4.144  -5.546  -2.372  0.00  0.00    -0.045 A 
ATOM      5  C   UNL     1      -3.762  -4.373  -2.997  0.00  0.00    +0.004 A 
ATOM      6  C   UNL     1      -3.959  -3.158  -2.368  0.00  0.00    +0.002 A 
ATOM      7  C   UNL     1      -4.539  -3.116  -1.113  0.00  0.00    -0.064 A 
ATOM      8  C   UNL     1      -4.922  -4.288  -0.489  0.00  0.00    +0.002 A 
ATOM      9  C   UNL     1      -4.729  -5.503  -1.120  0.00  0.00    +0.004 A 
BRANCH   4  11
ATOM     10  C   UNL     1      -4.613  -6.852  -4.427  0.00  0.00    +0.012 C 
ATOM     11  C   UNL     1      -3.929  -6.870  -3.058  0.00  0.00    +0.013 C 
ATOM     12  C   UNL     1      -2.430  -7.112  -3.240  0.00  0.00    +0.012 C 
ENDBRANCH   4  11
ENDBRANCH   3   7
ENDBRANCH   1   3
BRANCH   1  13
ATOM     13  C   UNL     1      -6.142   0.163  -0.349  0.00  0.00    -0.003 C 
BRANCH  13  14
ATOM     14  C   UNL     1      -4.969   1.000  -0.789  0.00  0.00    +0.089 A 
ATOM     15  C   UNL     1      -4.926   1.782  -1.883  0.00  0.00    +0.042 A 
ATOM     16  C   UNL     1      -3.645   2.379  -1.909  0.00  0.00    +0.041 A 
ATOM     17  C   UNL     1      -2.982   1.927  -0.830  0.00  0.00    +0.195 A 
ATOM     18  O   UNL     1      -3.790   1.096  -0.152  0.00  0.00    -0.470 OA
ENDBRANCH  13  14
ENDBRANCH   1  13
BRANCH   1  19
ATOM     19  C   UNL     1      -7.142  -2.016  -0.451  0.00  0.00    -0.043 C 
BRANCH  19  20
ATOM     20  C   UNL     1      -8.426  -1.524  -1.123  0.00  0.00    +0.135 C 
BRANCH  20  21
ATOM     21  O   UNL     1      -8.767  -0.234  -0.612  0.00  0.00    -0.390 OA
ATOM     22  H   UNL     1      -8.920  -0.217   0.343  0.00  0.00    +0.210 HD
ENDBRANCH  20  21
BRANCH  20  23
ATOM     23  C   UNL     1      -9.562  -2.506  -0.830  0.00  0.00    +0.258 C 
BRANCH  23  24
ATOM     24  O   UNL     1     -10.731  -2.110  -1.551  0.00  0.00    -0.488 OA
BRANCH  24  25
ATOM     25  C   UNL     1     -11.839  -2.882  -1.400  0.00  0.00    +0.135 A 
ATOM     26  C   UNL     1     -11.805  -3.993  -0.571  0.00  0.00    +0.047 A 
ATOM     27  C   UNL     1     -12.933  -4.776  -0.419  0.00  0.00    +0.004 A 
ATOM     28  C   UNL     1     -14.096  -4.453  -1.093  0.00  0.00    +0.001 A 
ATOM     29  C   UNL     1     -14.134  -3.346  -1.921  0.00  0.00    +0.019 A 
ATOM     30  C   UNL     1     -13.010  -2.556  -2.071  0.00  0.00    +0.059 A 
ATOM     31 BR   UNL     1     -13.064  -1.037  -3.197  0.00  0.00    -0.047 Br
ENDBRANCH  24  25
ENDBRANCH  23  24
ENDBRANCH  20  23
ENDBRANCH  19  20
ENDBRANCH   1  19
TORSDOF 11
