REMARK  Name = ZINC59293556
REMARK  13 active torsions:
REMARK  status: ('A' for Active; 'I' for Inactive)
REMARK    1  A    between atoms: C_1  and  C_2
REMARK    2  A    between atoms: C_2  and  C_3
REMARK    3  A    between atoms: C_3  and  N_4
REMARK    4  A    between atoms: N_4  and  C_5
REMARK    5  A    between atoms: C_5  and  C_6
REMARK    6  A    between atoms: C_6  and  C_7
REMARK    7  A    between atoms: C_8  and  C_10
REMARK    8  A    between atoms: C_16  and  C_17
REMARK    9  A    between atoms: C_20  and  C_23
REMARK   10  A    between atoms: C_25  and  N_38
REMARK   11  A    between atoms: C_26  and  C_36
REMARK   12  A    between atoms: C_27  and  C_29
REMARK   13  A    between atoms: C_32  and  C_35
REMARK                            x       y       z     vdW  Elec       q    Type
REMARK                         _______ _______ _______ _____ _____    ______ ____
ROOT
ATOM      1  C   UNL     1      -1.000  -2.311   2.635  0.00  0.00    +0.058 C 
ATOM      2  C   UNL     1      -2.004  -2.816   3.399  0.00  0.00    +0.099 A 
ATOM      3  N   UNL     1      -2.868  -2.049   4.155  0.00  0.00    -0.257 N 
ATOM      4  C   UNL     1      -3.818  -2.692   4.863  0.00  0.00    +0.271 A 
ATOM      5  O   UNL     1      -4.610  -2.072   5.548  0.00  0.00    -0.266 OA
ATOM      6  C   UNL     1      -3.874  -4.157   4.788  0.00  0.00    +0.079 A 
ATOM      7  C   UNL     1      -4.725  -5.019   5.399  0.00  0.00    +0.028 C 
ATOM      8  S   UNL     1      -2.521  -4.498   3.675  0.00  0.00    -0.065 S 
ATOM      9  C   UNL     1      -2.723  -0.657   4.153  0.00  0.00    +0.118 C 
ATOM     10  C   UNL     1      -1.774  -0.003   3.447  0.00  0.00    +0.079 C 
ATOM     11  C   UNL     1      -0.803  -0.808   2.608  0.00  0.00    +0.100 C 
ENDROOT
BRANCH   7  12
ATOM     12  C   UNL     1      -5.877  -4.504   6.154  0.00  0.00    -0.024 A 
ATOM     13  C   UNL     1      -6.601  -3.408   5.671  0.00  0.00    +0.008 A 
ATOM     14  C   UNL     1      -7.680  -2.932   6.384  0.00  0.00    +0.004 A 
ATOM     15  C   UNL     1      -8.047  -3.533   7.575  0.00  0.00    -0.050 A 
ATOM     16  C   UNL     1      -7.336  -4.617   8.060  0.00  0.00    +0.004 A 
ATOM     17  C   UNL     1      -6.258  -5.110   7.356  0.00  0.00    +0.008 A 
ATOM     18  C   UNL     1      -9.228  -3.005   8.349  0.00  0.00    +0.044 C 
ENDBRANCH   7  12
BRANCH  11  19
ATOM     19  C   UNL     1       0.596  -0.507   3.081  0.00  0.00    -0.035 A 
ATOM     20  C   UNL     1       1.026  -0.976   4.309  0.00  0.00    +0.005 A 
ATOM     21  C   UNL     1       2.309  -0.700   4.743  0.00  0.00    +0.003 A 
ATOM     22  C   UNL     1       3.162   0.044   3.949  0.00  0.00    -0.050 A 
ATOM     23  C   UNL     1       2.732   0.512   2.722  0.00  0.00    +0.003 A 
ATOM     24  C   UNL     1       1.450   0.232   2.286  0.00  0.00    +0.005 A 
ATOM     25  C   UNL     1       4.561   0.346   4.423  0.00  0.00    +0.044 C 
ENDBRANCH  11  19
BRANCH   1  27
ATOM     26  N   UNL     1      -0.475  -3.471   0.620  0.00  0.00    -0.298 N 
ATOM     27  C   UNL     1      -0.163  -3.160   1.894  0.00  0.00    +0.246 C 
ATOM     28  O   UNL     1       0.847  -3.617   2.403  0.00  0.00    -0.270 OA
BRANCH  26  29
ATOM     29  C   UNL     1      -1.741  -3.013   0.044  0.00  0.00    +0.108 C 
BRANCH  29  31
ATOM     30  C   UNL     1      -4.117  -3.642  -0.405  0.00  0.00    +0.005 C 
ATOM     31  C   UNL     1      -2.828  -4.058   0.306  0.00  0.00    +0.016 C 
ENDBRANCH  29  31
ENDBRANCH  26  29
BRANCH  26  32
ATOM     32  C   UNL     1       0.453  -4.266  -0.188  0.00  0.00    +0.108 C 
BRANCH  32  33
ATOM     33  C   UNL     1       1.419  -3.333  -0.922  0.00  0.00    +0.016 C 
ATOM     34  C   UNL     1       2.387  -4.164  -1.766  0.00  0.00    +0.005 C 
ENDBRANCH  32  33
ENDBRANCH  26  32
ENDBRANCH   1  27
BRANCH   9  35
ATOM     35  N   UNL     1      -3.594   0.086   4.912  0.00  0.00    -0.343 N 
ATOM     36  H   UNL     1      -3.938  -0.271   5.745  0.00  0.00    +0.144 HD
ATOM     37  H   UNL     1      -3.865   0.969   4.614  0.00  0.00    +0.144 HD
ENDBRANCH   9  35
BRANCH  10  38
ATOM     38  C   UNL     1      -1.687   1.426   3.494  0.00  0.00    +0.099 C 
ATOM     39  N   UNL     1      -1.617   2.559   3.531  0.00  0.00    -0.191 NA
ENDBRANCH  10  38
TORSDOF 9
