REMARK  Name = ZINC35829932
REMARK  1 active torsions:
REMARK  status: ('A' for Active; 'I' for Inactive)
REMARK    1  A    between atoms: N_20  and  C_23
REMARK                            x       y       z     vdW  Elec       q    Type
REMARK                         _______ _______ _______ _____ _____    ______ ____
ROOT
ATOM      1  C   UNL     1      -0.043   1.438  -0.329  0.00  0.00    +0.000 A 
ATOM      2  C   UNL     1       1.091   2.176  -0.618  0.00  0.00    +0.002 A 
ATOM      3  C   UNL     1       2.304   1.545  -0.800  0.00  0.00    +0.023 A 
ATOM      4  C   UNL     1       2.396   0.159  -0.696  0.00  0.00    +0.036 A 
ATOM      5  C   UNL     1       1.248  -0.573  -0.405  0.00  0.00    -0.027 A 
ATOM      6  C   UNL     1       0.040   0.061  -0.223  0.00  0.00    +0.004 A 
ATOM      7  C   UNL     1       1.677  -2.013  -0.363  0.00  0.00    +0.053 C 
ATOM      8  C   UNL     1       0.922  -2.854  -1.398  0.00  0.00    +0.089 C 
ATOM      9  C   UNL     1      -0.200  -3.560  -0.589  0.00  0.00    +0.074 C 
ATOM     10  C   UNL     1      -0.028  -3.065   0.859  0.00  0.00    -0.054 C 
ATOM     11  N   UNL     1       1.403  -2.622   0.949  0.00  0.00    +0.395 N 
ATOM     12  C   UNL     1       2.189  -3.871   1.080  0.00  0.00    -0.076 C 
ATOM     13  C   UNL     1       1.335  -4.794   1.972  0.00  0.00    -0.020 C 
ATOM     14  C   UNL     1      -0.143  -4.261   1.821  0.00  0.00    -0.016 C 
ATOM     15  C   UNL     1       0.170  -5.023  -0.682  0.00  0.00    +0.228 C 
ATOM     16  O   UNL     1      -0.450  -5.935  -0.179  0.00  0.00    -0.275 OA
ATOM     17  N   UNL     1       1.287  -5.153  -1.406  0.00  0.00    -0.210 N 
ATOM     18  C   UNL     1       1.800  -3.991  -1.870  0.00  0.00    +0.229 C 
ATOM     19  O   UNL     1       2.797  -3.871  -2.549  0.00  0.00    -0.275 OA
ATOM     20  C   UNL     1       3.154  -1.987  -0.655  0.00  0.00    +0.212 C 
ATOM     21  O   UNL     1       3.897  -2.944  -0.716  0.00  0.00    -0.277 OA
ATOM     22  N   UNL     1       3.491  -0.696  -0.836  0.00  0.00    -0.286 N 
ATOM     23  H   UNL     1       4.390  -0.395  -1.040  0.00  0.00    +0.155 HD
ATOM     24  H   UNL     1       1.557  -1.979   1.711  0.00  0.00    -0.079 HD
ENDROOT
BRANCH  17  25
ATOM     25  C   UNL     1       1.880  -6.397  -1.668  0.00  0.00    +0.047 A 
ATOM     26  C   UNL     1       1.231  -7.319  -2.478  0.00  0.00    +0.044 A 
ATOM     27  C   UNL     1       1.817  -8.544  -2.735  0.00  0.00    +0.044 A 
ATOM     28  C   UNL     1       3.049  -8.852  -2.187  0.00  0.00    +0.040 A 
ATOM     29  C   UNL     1       3.698  -7.935  -1.379  0.00  0.00    +0.044 A 
ATOM     30  C   UNL     1       3.119  -6.706  -1.123  0.00  0.00    +0.044 A 
ATOM     31 CL   UNL     1       5.244  -8.324  -0.692  0.00  0.00    -0.083 Cl
ATOM     32 CL   UNL     1       1.005  -9.698  -3.748  0.00  0.00    -0.083 Cl
ENDBRANCH  17  25
TORSDOF 1
