REMARK  Name = ZINC35938762
REMARK  7 active torsions:
REMARK  status: ('A' for Active; 'I' for Inactive)
REMARK    1  A    between atoms: C_1  and  C_2
REMARK    2  A    between atoms: C_7  and  C_8
REMARK    3  A    between atoms: N_17  and  C_18
REMARK    4  A    between atoms: C_18  and  C_19
REMARK    5  A    between atoms: C_19  and  C_20
REMARK    6  A    between atoms: C_26  and  C_29
REMARK    7  A    between atoms: C_30  and  C_32
REMARK                            x       y       z     vdW  Elec       q    Type
REMARK                         _______ _______ _______ _____ _____    ______ ____
ROOT
ATOM      1  C   UNL     1       2.255  -3.310   4.051  0.00  0.00    +0.077 C 
ENDROOT
BRANCH   1   2
ATOM      2  C   UNL     1       3.693  -3.565   3.680  0.00  0.00    +0.214 C 
ATOM      3  O   UNL     1       4.092  -3.285   2.570  0.00  0.00    -0.276 OA
ATOM      4  N   UNL     1       4.536  -4.105   4.583  0.00  0.00    -0.298 N 
ATOM      5  C   UNL     1       4.065  -4.455   5.930  0.00  0.00    +0.127 C 
ATOM      6  C   UNL     1       4.955  -3.748   6.960  0.00  0.00    +0.127 C 
ATOM      7  N   UNL     1       6.362  -3.998   6.614  0.00  0.00    -0.292 N 
ATOM      8  C   UNL     1       6.833  -3.647   5.267  0.00  0.00    +0.091 C 
ATOM      9  C   UNL     1       5.941  -4.359   4.236  0.00  0.00    +0.130 C 
ATOM     10  C   UNL     1       6.747  -2.132   5.071  0.00  0.00    +0.029 C 
ATOM     11  C   UNL     1       7.204  -4.537   7.517  0.00  0.00    +0.247 C 
ATOM     12  O   UNL     1       6.824  -4.753   8.651  0.00  0.00    -0.270 OA
BRANCH  11  13
ATOM     13  C   UNL     1       8.592  -4.867   7.128  0.00  0.00    +0.040 A 
ATOM     14  C   UNL     1       9.397  -3.903   6.518  0.00  0.00    +0.013 A 
ATOM     15  C   UNL     1      10.691  -4.216   6.157  0.00  0.00    +0.004 A 
ATOM     16  C   UNL     1      11.193  -5.482   6.399  0.00  0.00    +0.038 A 
ATOM     17  C   UNL     1      10.401  -6.444   7.004  0.00  0.00    +0.124 A 
ATOM     18  C   UNL     1       9.104  -6.141   7.375  0.00  0.00    +0.051 A 
ATOM     19  F   UNL     1      10.898  -7.679   7.236  0.00  0.00    -0.205 F 
ENDBRANCH  11  13
ENDBRANCH   1   2
BRANCH   1  20
ATOM     20  C   UNL     1       1.522  -2.698   2.856  0.00  0.00    -0.068 C 
BRANCH  20  29
ATOM     21  C   UNL     1      -0.607  -1.974   2.033  0.00  0.00    -0.006 C 
ATOM     22  C   UNL     1      -2.034  -1.621   2.439  0.00  0.00    -0.047 A 
ATOM     23  C   UNL     1      -3.096  -1.514   1.544  0.00  0.00    +0.010 A 
ATOM     24  C   UNL     1      -4.332  -1.197   1.995  0.00  0.00    +0.045 A 
ATOM     25  S   UNL     1      -4.052  -1.029   3.752  0.00  0.00    -0.101 S 
ATOM     26  C   UNL     1      -2.320  -1.389   3.752  0.00  0.00    -0.010 A 
ATOM     27  C   UNL     1      -1.355  -1.438   4.891  0.00  0.00    +0.024 C 
ATOM     28  C   UNL     1       0.064  -1.454   4.297  0.00  0.00    -0.072 C 
ATOM     29  N   UNL     1       0.119  -2.449   3.217  0.00  0.00    +0.388 N 
ATOM     30  H   UNL     1      -0.297  -3.310   3.539  0.00  0.00    -0.080 HD
BRANCH  21  37
ATOM     31  C   UNL     1      -0.919  -1.286  -0.756  0.00  0.00    +0.044 C 
ATOM     32  C   UNL     1      -0.783  -2.730  -0.347  0.00  0.00    -0.049 A 
ATOM     33  C   UNL     1      -0.801  -3.725  -1.306  0.00  0.00    +0.003 A 
ATOM     34  C   UNL     1      -0.676  -5.050  -0.931  0.00  0.00    +0.000 A 
ATOM     35  C   UNL     1      -0.532  -5.379   0.404  0.00  0.00    +0.000 A 
ATOM     36  C   UNL     1      -0.513  -4.385   1.363  0.00  0.00    +0.002 A 
ATOM     37  C   UNL     1      -0.634  -3.059   0.987  0.00  0.00    -0.054 A 
ENDBRANCH  21  37
ENDBRANCH  20  29
ENDBRANCH   1  20
TORSDOF 5
