REMARK  Name = ZINC44490077
REMARK  5 active torsions:
REMARK  status: ('A' for Active; 'I' for Inactive)
REMARK    1  A    between atoms: C_3  and  C_9
REMARK    2  A    between atoms: C_4  and  O_8
REMARK    3  A    between atoms: C_15  and  C_17
REMARK    4  A    between atoms: C_18  and  C_19
REMARK    5  A    between atoms: C_19  and  N_20
REMARK                            x       y       z     vdW  Elec       q    Type
REMARK                         _______ _______ _______ _____ _____    ______ ____
ROOT
ATOM      1  C   UNL     1       3.651   2.171  -0.022  0.00  0.00    +0.253 C 
ATOM      2  O   UNL     1       4.713   1.577  -0.035  0.00  0.00    -0.270 OA
ATOM      3  N   UNL     1       3.633   3.518  -0.015  0.00  0.00    -0.261 N 
ATOM      4  C   UNL     1       4.824   4.228  -0.023  0.00  0.00    +0.166 A 
ATOM      5  N   UNL     1       6.054   3.759  -0.043  0.00  0.00    -0.232 NA
ATOM      6  C   UNL     1       7.094   4.564  -0.048  0.00  0.00    +0.137 A 
ATOM      7  C   UNL     1       6.829   5.911  -0.032  0.00  0.00    +0.083 A 
ATOM      8  S   UNL     1       5.044   5.897  -0.017  0.00  0.00    -0.044 S 
ATOM      9  H   UNL     1       2.786   3.991  -0.004  0.00  0.00    +0.157 HD
ENDROOT
BRANCH   1  12
ATOM     10  C   UNL     1      -0.017   1.382   0.010  0.00  0.00    +0.016 A 
ATOM     11  C   UNL     1       1.163   2.093   0.002  0.00  0.00    +0.018 A 
ATOM     12  C   UNL     1       2.385   1.415  -0.013  0.00  0.00    +0.078 A 
ATOM     13  C   UNL     1       2.400   0.013  -0.021  0.00  0.00    +0.130 A 
ATOM     14  C   UNL     1       1.204  -0.687  -0.013  0.00  0.00    +0.061 A 
ATOM     15  C   UNL     1       0.002  -0.004   0.002  0.00  0.00    +0.021 A 
ATOM     16 BR   UNL     1      -1.626  -0.967   0.013  0.00  0.00    -0.050 Br
BRANCH  13  17
ATOM     17  O   UNL     1       3.581  -0.655  -0.036  0.00  0.00    -0.506 OA
ATOM     18  H   UNL     1       3.932  -0.854   0.843  0.00  0.00    +0.292 HD
ENDBRANCH  13  17
ENDBRANCH   1  12
BRANCH   7  19
ATOM     19  C   UNL     1       7.734   7.021  -0.033  0.00  0.00    -0.056 C 
ATOM     20  C   UNL     1       8.476   7.931  -0.034  0.00  0.00    -0.081 C 
BRANCH  20  21
ATOM     21  C   UNL     1       9.407   9.071  -0.035  0.00  0.00    +0.168 C 
BRANCH  21  22
ATOM     22  N   UNL     1       8.643  10.326  -0.013  0.00  0.00    -0.320 NA
ATOM     23  H   UNL     1       8.016  10.354   0.776  0.00  0.00    +0.119 HD
ATOM     24  H   UNL     1       9.260  11.125  -0.014  0.00  0.00    +0.119 HD
ENDBRANCH  21  22
ENDBRANCH  20  21
ENDBRANCH   7  19
TORSDOF 5
