REMARK  Name = ZINC36862611
REMARK  4 active torsions:
REMARK  status: ('A' for Active; 'I' for Inactive)
REMARK    1  A    between atoms: C_1  and  C_2
REMARK    2  A    between atoms: C_5  and  N_9
REMARK    3  A    between atoms: C_10  and  C_12
REMARK    4  A    between atoms: C_14  and  N_18
REMARK                            x       y       z     vdW  Elec       q    Type
REMARK                         _______ _______ _______ _____ _____    ______ ____
ROOT
ATOM      1  N   UNL     1       0.059  -4.171  -0.021  0.00  0.00    -0.278 N 
ATOM      2  C   UNL     1       0.473  -4.845   1.070  0.00  0.00    +0.265 C 
ATOM      3  O   UNL     1       0.744  -4.242   2.092  0.00  0.00    -0.268 OA
ATOM      4  H   UNL     1      -0.225  -4.655  -0.811  0.00  0.00    +0.155 HD
ENDROOT
BRANCH   1   9
ATOM      5  C   UNL     1      -0.018   1.503   0.009  0.00  0.00    +0.044 C 
ATOM      6  C   UNL     1       0.003  -0.004   0.001  0.00  0.00    -0.048 A 
ATOM      7  C   UNL     1       1.144  -0.676  -0.395  0.00  0.00    +0.020 A 
ATOM      8  C   UNL     1       1.167  -2.058  -0.404  0.00  0.00    +0.040 A 
ATOM      9  C   UNL     1       0.041  -2.772  -0.013  0.00  0.00    +0.062 A 
ATOM     10  C   UNL     1      -1.105  -2.093   0.385  0.00  0.00    +0.040 A 
ATOM     11  C   UNL     1      -1.118  -0.711   0.396  0.00  0.00    +0.020 A 
ATOM     12 BR   UNL     1      -2.641  -3.059   0.917  0.00  0.00    -0.048 Br
ATOM     13 BR   UNL     1       2.728  -2.976  -0.947  0.00  0.00    -0.048 Br
ENDBRANCH   1   9
BRANCH   2  14
ATOM     14  C   UNL     1       0.598  -6.305   1.026  0.00  0.00    +0.104 A 
ATOM     15  C   UNL     1       1.002  -7.120   2.064  0.00  0.00    +0.055 A 
ATOM     16  C   UNL     1       0.977  -8.438   1.588  0.00  0.00    +0.043 A 
ATOM     17  C   UNL     1       0.565  -8.404   0.293  0.00  0.00    +0.106 A 
ATOM     18  N   UNL     1       0.327  -7.111  -0.056  0.00  0.00    -0.355 N 
ATOM     19  H   UNL     1       0.019  -6.807  -0.924  0.00  0.00    +0.166 HD
BRANCH  16  20
ATOM     20  N   UNL     1       1.317  -9.591   2.320  0.00  0.00    -0.357 N 
ATOM     21  H   UNL     1       1.601  -9.512   3.244  0.00  0.00    +0.142 HD
ATOM     22  H   UNL     1       1.267 -10.464   1.900  0.00  0.00    +0.142 HD
ENDBRANCH  16  20
ENDBRANCH   2  14
TORSDOF 3
