REMARK  Name = ZINC12010076
REMARK  4 active torsions:
REMARK  status: ('A' for Active; 'I' for Inactive)
REMARK    1  A    between atoms: C_3  and  C_6
REMARK    2  A    between atoms: C_8  and  N_22
REMARK    3  A    between atoms: C_23  and  C_25
REMARK    4  A    between atoms: C_25  and  C_26
REMARK                            x       y       z     vdW  Elec       q    Type
REMARK                         _______ _______ _______ _____ _____    ______ ____
ROOT
ATOM      1  C   UNL     1       0.650   3.500  -0.533  0.00  0.00    +0.130 A 
ATOM      2  C   UNL     1      -0.755   3.484  -0.408  0.00  0.00    +0.077 A 
ATOM      3  C   UNL     1      -1.146   2.191  -0.279  0.00  0.00    +0.132 A 
ATOM      4  N   UNL     1      -0.023   1.413  -0.310  0.00  0.00    -0.184 N 
ATOM      5  N   UNL     1       1.083   2.256  -0.473  0.00  0.00    -0.159 NA
ATOM      6  C   UNL     1       0.014   0.036  -0.206  0.00  0.00    +0.234 A 
ATOM      7  N   UNL     1       1.211  -0.605  -0.261  0.00  0.00    -0.291 N 
ATOM      8  H   UNL     1       2.031  -0.099  -0.372  0.00  0.00    +0.172 HD
ATOM      9  C   UNL     1       1.253  -1.951  -0.159  0.00  0.00    +0.256 A 
ATOM     10  O   UNL     1       2.318  -2.544  -0.206  0.00  0.00    -0.267 OA
ATOM     11  C   UNL     1       0.045  -2.657   0.002  0.00  0.00    +0.038 A 
ATOM     12  C   UNL     1      -1.126  -1.961   0.049  0.00  0.00    +0.053 A 
ATOM     13  N   UNL     1      -1.109  -0.629  -0.051  0.00  0.00    -0.217 NA
ATOM     14  C   UNL     1      -2.287  -2.916   0.225  0.00  0.00    +0.056 C 
ATOM     15  C   UNL     1      -1.653  -4.236   0.713  0.00  0.00    +0.011 C 
ATOM     16  C   UNL     1      -0.221  -4.138   0.142  0.00  0.00    +0.043 C 
ENDROOT
BRANCH   1  19
ATOM     17  C   UNL     1       3.226   6.069  -0.959  0.00  0.00    +0.042 A 
ATOM     18  C   UNL     1       2.846   4.719  -0.820  0.00  0.00    +0.051 A 
ATOM     19  C   UNL     1       1.492   4.703  -0.700  0.00  0.00    +0.155 A 
ATOM     20  O   UNL     1       1.050   5.973  -0.767  0.00  0.00    -0.461 OA
ATOM     21  C   UNL     1       2.096   6.802  -0.917  0.00  0.00    +0.196 A 
ENDBRANCH   1  19
BRANCH   3  22
ATOM     22  N   UNL     1      -2.456   1.738  -0.136  0.00  0.00    -0.270 N 
ATOM     23  C   UNL     1      -3.475   2.620  -0.121  0.00  0.00    +0.220 C 
ATOM     24  O   UNL     1      -3.252   3.807  -0.232  0.00  0.00    -0.275 OA
ATOM     25  H   UNL     1      -2.634   0.789  -0.047  0.00  0.00    +0.156 HD
BRANCH  23  26
ATOM     26  C   UNL     1      -4.892   2.131   0.034  0.00  0.00    +0.122 C 
BRANCH  26  27
ATOM     27  C   UNL     1      -5.834   3.329   0.170  0.00  0.00    +0.112 C 
ATOM     28  C   UNL     1      -5.442   4.115   1.430  0.00  0.00    +0.103 C 
ATOM     29  S   UNL     1      -7.000   4.057   2.383  0.00  0.00    -0.086 S 
ATOM     30  C   UNL     1      -7.996   3.116   1.248  0.00  0.00    +0.172 A 
ATOM     31  N   UNL     1      -7.211   2.839   0.171  0.00  0.00    -0.283 N 
ATOM     32  C   UNL     1      -7.785   2.112  -0.838  0.00  0.00    +0.258 A 
ATOM     33  O   UNL     1      -7.134   1.831  -1.831  0.00  0.00    -0.267 OA
ATOM     34  C   UNL     1      -9.117   1.690  -0.736  0.00  0.00    +0.038 A 
ATOM     35  C   UNL     1      -9.835   2.012   0.378  0.00  0.00    +0.052 A 
ATOM     36  N   UNL     1      -9.247   2.720   1.342  0.00  0.00    -0.228 NA
ATOM     37  C   UNL     1     -11.238   1.457   0.272  0.00  0.00    +0.056 C 
ATOM     38  C   UNL     1     -11.165   0.390  -0.842  0.00  0.00    +0.011 C 
ATOM     39  C   UNL     1      -9.976   0.890  -1.692  0.00  0.00    +0.043 C 
ENDBRANCH  26  27
ENDBRANCH  23  26
ENDBRANCH   3  22
TORSDOF 4
