REMARK  Name = ZINC36971620
REMARK  4 active torsions:
REMARK  status: ('A' for Active; 'I' for Inactive)
REMARK    1  A    between atoms: C_6  and  O_7
REMARK    2  A    between atoms: C_10  and  N_12
REMARK    3  A    between atoms: N_12  and  C_13
REMARK    4  A    between atoms: C_18  and  N_19
REMARK                            x       y       z     vdW  Elec       q    Type
REMARK                         _______ _______ _______ _____ _____    ______ ____
ROOT
ATOM      1  N   UNL     1       3.699   3.318  -0.820  0.00  0.00    -0.332 N 
ATOM      2  H   UNL     1       3.104   3.398  -1.581  0.00  0.00    +0.147 HD
ENDROOT
BRANCH   1  11
ATOM      3  C   UNL     1      -0.501   2.613   0.399  0.00  0.00    +0.046 A 
ATOM      4  C   UNL     1       0.794   3.088   0.310  0.00  0.00    +0.013 A 
ATOM      5  C   UNL     1       1.856   2.212   0.368  0.00  0.00    +0.018 A 
ATOM      6  C   UNL     1       1.646   0.847   0.523  0.00  0.00    +0.129 A 
ATOM      7  C   UNL     1       0.341   0.372   0.608  0.00  0.00    +0.091 A 
ATOM      8  C   UNL     1      -0.726   1.252   0.545  0.00  0.00    +0.120 A 
ATOM      9  O   UNL     1       2.826   0.171   0.579  0.00  0.00    -0.489 OA
ATOM     10  C   UNL     1       3.868   0.990   0.023  0.00  0.00    +0.256 C 
ATOM     11  C   UNL     1       3.355   2.425   0.289  0.00  0.00    +0.142 C 
BRANCH   8  12
ATOM     12  O   UNL     1      -1.998   0.781   0.629  0.00  0.00    -0.507 OA
ATOM     13  H   UNL     1      -2.390   0.553  -0.226  0.00  0.00    +0.292 HD
ENDBRANCH   8  12
ENDBRANCH   1  11
BRANCH   1  14
ATOM     14  C   UNL     1       4.886   4.056  -0.780  0.00  0.00    +0.058 A 
ATOM     15  C   UNL     1       5.681   4.034   0.358  0.00  0.00    +0.026 A 
ATOM     16  C   UNL     1       6.853   4.764   0.395  0.00  0.00    +0.022 A 
ATOM     17  C   UNL     1       7.234   5.518  -0.701  0.00  0.00    +0.043 A 
ATOM     18  C   UNL     1       6.443   5.542  -1.836  0.00  0.00    +0.054 A 
ATOM     19  C   UNL     1       5.274   4.809  -1.881  0.00  0.00    +0.148 A 
ATOM     20 CL   UNL     1       8.708   6.434  -0.652  0.00  0.00    -0.083 Cl
BRANCH  19  21
ATOM     21  N   UNL     1       4.432   4.830  -3.098  0.00  0.00    +0.058 N 
ATOM     22  O   UNL     1       3.869   3.824  -3.461  0.00  0.00    -0.126 OA
ATOM     23  O   UNL     1       4.307   5.854  -3.728  0.00  0.00    -0.126 OA
ENDBRANCH  19  21
ENDBRANCH   1  14
TORSDOF 4
