REMARK  Name = ZINC13197382
REMARK  11 active torsions:
REMARK  status: ('A' for Active; 'I' for Inactive)
REMARK    1  A    between atoms: C_1  and  C_2
REMARK    2  A    between atoms: C_5  and  C_8
REMARK    3  A    between atoms: C_11  and  S_17
REMARK    4  A    between atoms: N_12  and  C_13
REMARK    5  A    between atoms: C_13  and  C_14
REMARK    6  A    between atoms: C_14  and  C_15
REMARK    7  A    between atoms: S_17  and  C_18
REMARK    8  A    between atoms: C_18  and  C_19
REMARK    9  A    between atoms: N_21  and  C_22
REMARK   10  A    between atoms: C_22  and  C_24
REMARK   11  A    between atoms: C_22  and  C_25
REMARK                            x       y       z     vdW  Elec       q    Type
REMARK                         _______ _______ _______ _____ _____    ______ ____
ROOT
ATOM      1  C   UNL     1      -3.016   8.080   0.096  0.00  0.00    +0.165 A 
ATOM      2  N   UNL     1      -1.719   7.882   0.057  0.00  0.00    -0.128 NA
ATOM      3  N   UNL     1      -1.468   6.622   0.018  0.00  0.00    -0.122 NA
ATOM      4  C   UNL     1      -2.591   5.939   0.022  0.00  0.00    +0.192 A 
ATOM      5  N   UNL     1      -3.614   6.841   0.075  0.00  0.00    -0.302 N 
ENDROOT
BRANCH   1  10
ATOM      6  C   UNL     1      -5.694  13.169   0.319  0.00  0.00    +0.044 C 
ATOM      7  C   UNL     1      -4.993  11.836   0.261  0.00  0.00    -0.050 A 
ATOM      8  C   UNL     1      -3.681  11.767  -0.174  0.00  0.00    +0.004 A 
ATOM      9  C   UNL     1      -3.033  10.550  -0.230  0.00  0.00    +0.012 A 
ATOM     10  C   UNL     1      -3.704   9.387   0.153  0.00  0.00    +0.019 A 
ATOM     11  C   UNL     1      -5.029   9.464   0.585  0.00  0.00    +0.012 A 
ATOM     12  C   UNL     1      -5.664  10.687   0.641  0.00  0.00    +0.004 A 
ENDBRANCH   1  10
BRANCH   5  13
ATOM     13  C   UNL     1      -5.050   6.551   0.105  0.00  0.00    +0.137 C 
BRANCH  13  14
ATOM     14  C   UNL     1      -5.496   6.329   1.551  0.00  0.00    +0.147 C 
BRANCH  14  15
ATOM     15  C   UNL     1      -6.973   6.031   1.581  0.00  0.00    +0.358 C 
ATOM     16  O   UNL     1      -7.604   5.999   0.551  0.00  0.00    -0.246 OA
ATOM     17  O   UNL     1      -7.588   5.801   2.752  0.00  0.00    -0.246 OA
ENDBRANCH  14  15
ENDBRANCH  13  14
ENDBRANCH   5  13
BRANCH   4  18
ATOM     18  S   UNL     1      -2.746   4.184  -0.025  0.00  0.00    -0.077 S 
BRANCH  18  19
ATOM     19  C   UNL     1      -0.999   3.716  -0.085  0.00  0.00    +0.173 C 
BRANCH  19  20
ATOM     20  C   UNL     1      -0.883   2.214  -0.132  0.00  0.00    +0.224 C 
ATOM     21  O   UNL     1      -1.883   1.528  -0.126  0.00  0.00    -0.275 OA
ATOM     22  N   UNL     1       0.332   1.633  -0.181  0.00  0.00    -0.308 N 
ATOM     23  H   UNL     1       1.132   2.182  -0.191  0.00  0.00    +0.149 HD
BRANCH  22  24
ATOM     24  C   UNL     1       0.445   0.173  -0.227  0.00  0.00    +0.100 C 
ATOM     25  C   UNL     1       0.404  -0.387   1.196  0.00  0.00    +0.033 C 
BRANCH  24  26
ATOM     26  C   UNL     1       1.748  -0.210  -0.880  0.00  0.00    -0.024 A 
ATOM     27  C   UNL     1       2.895   0.511  -0.605  0.00  0.00    +0.009 A 
ATOM     28  C   UNL     1       4.094   0.161  -1.198  0.00  0.00    +0.050 A 
ATOM     29  C   UNL     1       4.146  -0.909  -2.077  0.00  0.00    +0.166 A 
ATOM     30  C   UNL     1       2.989  -1.632  -2.358  0.00  0.00    +0.167 A 
ATOM     31  C   UNL     1       1.792  -1.278  -1.756  0.00  0.00    +0.055 A 
ATOM     32  O   UNL     1       3.299  -2.624  -3.243  0.00  0.00    -0.453 OA
ATOM     33  C   UNL     1       4.731  -2.756  -3.187  0.00  0.00    +0.466 C 
ATOM     34  O   UNL     1       5.180  -1.448  -2.787  0.00  0.00    -0.453 OA
ENDBRANCH  24  26
ENDBRANCH  22  24
ENDBRANCH  19  20
ENDBRANCH  18  19
ENDBRANCH   4  18
TORSDOF 9
