REMARK  Name = ZINC59371069
REMARK  6 active torsions:
REMARK  status: ('A' for Active; 'I' for Inactive)
REMARK    1  A    between atoms: N_8  and  C_9
REMARK    2  A    between atoms: C_13  and  C_15
REMARK    3  A    between atoms: N_21  and  C_22
REMARK    4  A    between atoms: C_22  and  N_23
REMARK    5  A    between atoms: N_23  and  C_24
REMARK    6  A    between atoms: N_23  and  C_30
REMARK                            x       y       z     vdW  Elec       q    Type
REMARK                         _______ _______ _______ _____ _____    ______ ____
ROOT
ATOM      1  C   UNL     1       0.036   0.186   1.468  0.00  0.00    +0.001 A 
ATOM      2  C   UNL     1       1.148   0.712   2.106  0.00  0.00    +0.002 A 
ATOM      3  C   UNL     1       2.420   0.433   1.647  0.00  0.00    +0.024 A 
ATOM      4  C   UNL     1       2.598  -0.383   0.536  0.00  0.00    +0.044 A 
ATOM      5  C   UNL     1       1.470  -0.914  -0.107  0.00  0.00    +0.027 A 
ATOM      6  C   UNL     1       0.192  -0.626   0.363  0.00  0.00    +0.012 A 
ATOM      7  C   UNL     1       1.974  -1.727  -1.235  0.00  0.00    +0.135 C 
ATOM      8  N   UNL     1       1.270  -2.407  -2.107  0.00  0.00    -0.242 NA
ATOM      9  C   UNL     1       3.452  -1.604  -1.165  0.00  0.00    +0.268 C 
ATOM     10  O   UNL     1       4.251  -2.124  -1.918  0.00  0.00    -0.268 OA
ATOM     11  N   UNL     1       3.748  -0.813  -0.119  0.00  0.00    -0.282 N 
ENDROOT
BRANCH   8  12
ATOM     12  C   UNL     1      -0.087  -2.309  -2.110  0.00  0.00    +0.065 A 
ATOM     13  C   UNL     1      -0.705  -1.102  -2.460  0.00  0.00    +0.028 A 
ATOM     14  C   UNL     1      -2.080  -1.012  -2.461  0.00  0.00    +0.003 A 
ATOM     15  C   UNL     1      -2.850  -2.110  -2.117  0.00  0.00    +0.012 A 
ATOM     16  C   UNL     1      -2.248  -3.306  -1.769  0.00  0.00    +0.057 A 
ATOM     17  C   UNL     1      -0.874  -3.416  -1.768  0.00  0.00    +0.040 A 
BRANCH  16  18
ATOM     18  C   UNL     1      -3.097  -4.494  -1.395  0.00  0.00    +0.417 C 
ATOM     19  F   UNL     1      -4.449  -4.144  -1.474  0.00  0.00    -0.166 F 
ATOM     20  F   UNL     1      -2.835  -5.549  -2.276  0.00  0.00    -0.166 F 
ATOM     21  F   UNL     1      -2.793  -4.892  -0.089  0.00  0.00    -0.166 F 
ENDBRANCH  16  18
ENDBRANCH   8  12
BRANCH  11  22
ATOM     22  C   UNL     1       5.110  -0.450   0.282  0.00  0.00    +0.039 C 
BRANCH  22  23
ATOM     23  N   UNL     1       5.375  -0.957   1.635  0.00  0.00    +0.394 N 
ATOM     24  H   UNL     1       4.643  -0.650   2.258  0.00  0.00    -0.079 HD
BRANCH  23  25
ATOM     25  C   UNL     1       5.410  -2.426   1.608  0.00  0.00    -0.066 C 
ATOM     26  C   UNL     1       6.317  -2.893   0.469  0.00  0.00    -0.015 C 
ATOM     27  C   UNL     1       6.355  -4.423   0.441  0.00  0.00    -0.002 C 
ATOM     28  C   UNL     1       4.940  -4.963   0.222  0.00  0.00    -0.000 C 
ATOM     29  C   UNL     1       4.033  -4.496   1.362  0.00  0.00    -0.002 C 
ATOM     30  C   UNL     1       3.996  -2.966   1.389  0.00  0.00    -0.015 C 
ENDBRANCH  23  25
BRANCH  23  31
ATOM     31  C   UNL     1       6.668  -0.444   2.106  0.00  0.00    -0.066 C 
ATOM     32  C   UNL     1       6.949  -0.982   3.510  0.00  0.00    -0.015 C 
ATOM     33  C   UNL     1       8.296  -0.448   4.001  0.00  0.00    -0.002 C 
ATOM     34  C   UNL     1       8.255   1.081   4.039  0.00  0.00    -0.000 C 
ATOM     35  C   UNL     1       7.974   1.619   2.634  0.00  0.00    -0.002 C 
ATOM     36  C   UNL     1       6.627   1.085   2.143  0.00  0.00    -0.015 C 
ENDBRANCH  23  31
ENDBRANCH  22  23
ENDBRANCH  11  22
TORSDOF 6
