REMARK  Name = ZINC33922049
REMARK  6 active torsions:
REMARK  status: ('A' for Active; 'I' for Inactive)
REMARK    1  A    between atoms: C_3  and  N_18
REMARK    2  A    between atoms: C_6  and  C_7
REMARK    3  A    between atoms: N_8  and  N_9
REMARK    4  A    between atoms: C_10  and  C_12
REMARK    5  A    between atoms: C_19  and  C_31
REMARK    6  A    between atoms: C_22  and  C_24
REMARK                            x       y       z     vdW  Elec       q    Type
REMARK                         _______ _______ _______ _____ _____    ______ ____
ROOT
ATOM      1  N   UNL     1       3.480   1.732   1.801  0.00  0.00    -0.216 N 
ATOM      2  C   UNL     1       4.848   1.284   1.493  0.00  0.00    +0.134 C 
ATOM      3  C   UNL     1       5.737   2.314   2.217  0.00  0.00    +0.087 C 
ATOM      4  C   UNL     1       4.749   3.254   2.870  0.00  0.00    +0.069 C 
ATOM      5  N   UNL     1       3.548   2.876   2.594  0.00  0.00    -0.183 NA
ENDROOT
BRANCH   4   6
ATOM      6  C   UNL     1       5.104   4.425   3.692  0.00  0.00    -0.002 A 
ATOM      7  C   UNL     1       6.446   4.746   3.914  0.00  0.00    +0.011 A 
ATOM      8  C   UNL     1       6.771   5.843   4.684  0.00  0.00    +0.020 A 
ATOM      9  C   UNL     1       5.771   6.627   5.235  0.00  0.00    +0.041 A 
ATOM     10  C   UNL     1       4.440   6.315   5.018  0.00  0.00    +0.020 A 
ATOM     11  C   UNL     1       4.101   5.224   4.247  0.00  0.00    +0.011 A 
ATOM     12 CL   UNL     1       6.190   8.006   6.203  0.00  0.00    -0.084 Cl
ENDBRANCH   4   6
BRANCH   2  13
ATOM     13  C   UNL     1       5.095   1.317   0.007  0.00  0.00    -0.025 A 
ATOM     14  C   UNL     1       4.583   2.350  -0.756  0.00  0.00    +0.007 A 
ATOM     15  C   UNL     1       4.809   2.381  -2.119  0.00  0.00    +0.020 A 
ATOM     16  C   UNL     1       5.547   1.378  -2.720  0.00  0.00    +0.041 A 
ATOM     17  C   UNL     1       6.059   0.344  -1.957  0.00  0.00    +0.020 A 
ATOM     18  C   UNL     1       5.837   0.317  -0.593  0.00  0.00    +0.007 A 
ATOM     19 CL   UNL     1       5.830   1.415  -4.433  0.00  0.00    -0.084 Cl
ENDBRANCH   2  13
BRANCH   1  22
ATOM     20  C   UNL     1      -0.087   1.039   1.295  0.00  0.00    +0.011 A 
ATOM     21  C   UNL     1       1.073   1.645   1.724  0.00  0.00    +0.025 A 
ATOM     22  C   UNL     1       2.309   1.116   1.366  0.00  0.00    +0.052 A 
ATOM     23  C   UNL     1       2.378  -0.026   0.574  0.00  0.00    +0.025 A 
ATOM     24  C   UNL     1       1.223  -0.638   0.142  0.00  0.00    +0.011 A 
ATOM     25  C   UNL     1      -0.021  -0.109   0.500  0.00  0.00    -0.005 A 
BRANCH  25  26
ATOM     26  C   UNL     1      -1.260  -0.760   0.039  0.00  0.00    +0.138 C 
ATOM     27  N   UNL     1      -2.394  -0.132   0.122  0.00  0.00    -0.187 NA
BRANCH  27  28
ATOM     28  N   UNL     1      -2.419   1.269   0.130  0.00  0.00    -0.203 N 
ATOM     29  C   UNL     1      -3.579   1.921   0.347  0.00  0.00    +0.263 C 
ATOM     30  O   UNL     1      -4.603   1.293   0.536  0.00  0.00    -0.268 OA
ATOM     31  H   UNL     1      -1.602   1.770  -0.021  0.00  0.00    +0.178 HD
BRANCH  29  32
ATOM     32  C   UNL     1      -3.606   3.401   0.356  0.00  0.00    +0.041 A 
ATOM     33  C   UNL     1      -2.440   4.143   0.135  0.00  0.00    +0.033 A 
ATOM     34  C   UNL     1      -2.511   5.522   0.151  0.00  0.00    +0.111 A 
ATOM     35  N   UNL     1      -3.655   6.139   0.370  0.00  0.00    -0.263 NA
ATOM     36  C   UNL     1      -4.776   5.479   0.583  0.00  0.00    +0.111 A 
ATOM     37  C   UNL     1      -4.798   4.097   0.579  0.00  0.00    +0.033 A 
ENDBRANCH  29  32
ENDBRANCH  27  28
ENDBRANCH  25  26
ENDBRANCH   1  22
TORSDOF 6
