REMARK  Name = ZINC63137791
REMARK  9 active torsions:
REMARK  status: ('A' for Active; 'I' for Inactive)
REMARK    1  A    between atoms: C_1  and  O_2
REMARK    2  A    between atoms: O_2  and  C_3
REMARK    3  A    between atoms: C_6  and  C_9
REMARK    4  A    between atoms: C_9  and  N_10
REMARK    5  A    between atoms: C_30  and  C_32
REMARK    6  A    between atoms: C_35  and  O_40
REMARK    7  A    between atoms: C_37  and  O_38
REMARK    8  A    between atoms: O_38  and  C_39
REMARK    9  A    between atoms: O_40  and  C_41
REMARK                            x       y       z     vdW  Elec       q    Type
REMARK                         _______ _______ _______ _____ _____    ______ ____
ROOT
ATOM      1  N   UNL     1       1.352  -2.654   5.201  0.00  0.00    -0.287 N 
ATOM      2  C   UNL     1       1.183  -1.634   6.222  0.00  0.00    +0.204 C 
ATOM      3  C   UNL     1       0.276  -2.080   7.321  0.00  0.00    +0.234 C 
ATOM      4  O   UNL     1       0.067  -1.304   8.229  0.00  0.00    -0.274 OA
ATOM      5  N   UNL     1      -0.323  -3.275   7.375  0.00  0.00    -0.279 N 
ATOM      6  C   UNL     1      -0.164  -4.285   6.333  0.00  0.00    +0.167 C 
ATOM      7  C   UNL     1       0.749  -3.841   5.238  0.00  0.00    +0.237 C 
ATOM      8  O   UNL     1       0.958  -4.612   4.326  0.00  0.00    -0.274 OA
ATOM      9  C   UNL     1      -1.537  -4.650   5.741  0.00  0.00    +0.065 C 
ATOM     10  C   UNL     1      -2.469  -4.853   6.910  0.00  0.00    -0.034 C 
ATOM     11  C   UNL     1      -3.285  -5.852   7.221  0.00  0.00    -0.001 A 
ATOM     12  C   UNL     1      -3.666  -7.072   6.490  0.00  0.00    +0.010 A 
ATOM     13  C   UNL     1      -4.529  -7.907   7.127  0.00  0.00    +0.001 A 
ATOM     14  C   UNL     1      -5.045  -7.655   8.402  0.00  0.00    +0.002 A 
ATOM     15  C   UNL     1      -4.757  -6.555   9.142  0.00  0.00    +0.026 A 
ATOM     16  C   UNL     1      -3.866  -5.598   8.575  0.00  0.00    +0.043 A 
ATOM     17  N   UNL     1      -3.443  -4.461   9.045  0.00  0.00    -0.375 N 
ATOM     18  C   UNL     1      -2.597  -3.829   8.032  0.00  0.00    +0.131 C 
ATOM     19  C   UNL     1      -1.179  -3.567   8.547  0.00  0.00    +0.137 C 
ATOM     20  H   UNL     1      -3.653  -4.095   9.918  0.00  0.00    +0.160 HD
ENDROOT
BRANCH  19  21
ATOM     21  C   UNL     1      -1.186  -2.384   9.481  0.00  0.00    +0.017 A 
ATOM     22  C   UNL     1      -2.195  -1.444   9.398  0.00  0.00    +0.013 A 
ATOM     23  C   UNL     1      -2.204  -0.359  10.254  0.00  0.00    +0.046 A 
ATOM     24  C   UNL     1      -1.198  -0.211  11.199  0.00  0.00    +0.124 A 
ATOM     25  C   UNL     1      -0.185  -1.153  11.284  0.00  0.00    +0.091 A 
ATOM     26  C   UNL     1      -0.181  -2.244  10.428  0.00  0.00    +0.129 A 
BRANCH  26  27
ATOM     27  O   UNL     1       0.808  -3.172  10.514  0.00  0.00    -0.495 OA
ATOM     28  C   UNL     1       1.809  -2.963  11.512  0.00  0.00    +0.277 C 
ENDBRANCH  26  27
BRANCH  24  29
ATOM     29  O   UNL     1      -1.207   0.856  12.040  0.00  0.00    -0.495 OA
ATOM     30  C   UNL     1      -2.282   1.787  11.895  0.00  0.00    +0.277 C 
ENDBRANCH  24  29
ENDBRANCH  19  21
BRANCH   1  31
ATOM     31  C   UNL     1       2.228  -2.358   4.065  0.00  0.00    +0.143 C 
BRANCH  31  35
ATOM     32  C   UNL     1      -0.052  -0.542   0.940  0.00  0.00    +0.120 A 
ATOM     33  C   UNL     1       0.550   0.247   1.909  0.00  0.00    +0.046 A 
ATOM     34  C   UNL     1       1.286  -0.342   2.918  0.00  0.00    +0.009 A 
ATOM     35  C   UNL     1       1.424  -1.718   2.963  0.00  0.00    -0.030 A 
ATOM     36  C   UNL     1       0.825  -2.506   1.998  0.00  0.00    +0.009 A 
ATOM     37  C   UNL     1       0.082  -1.922   0.990  0.00  0.00    +0.046 A 
BRANCH  32  39
ATOM     38  C   UNL     1      -0.874   1.461  -0.042  0.00  0.00    +0.277 C 
ATOM     39  O   UNL     1      -0.778   0.035  -0.053  0.00  0.00    -0.495 OA
ENDBRANCH  32  39
ENDBRANCH  31  35
ENDBRANCH   1  31
TORSDOF 6
