REMARK  Name = ZINC65227941
REMARK  6 active torsions:
REMARK  status: ('A' for Active; 'I' for Inactive)
REMARK    1  A    between atoms: C_1  and  C_2
REMARK    2  A    between atoms: C_5  and  C_8
REMARK    3  A    between atoms: C_8  and  N_9
REMARK    4  A    between atoms: C_10  and  C_12
REMARK    5  A    between atoms: C_20  and  C_25
REMARK    6  A    between atoms: C_27  and  C_30
REMARK                            x       y       z     vdW  Elec       q    Type
REMARK                         _______ _______ _______ _____ _____    ______ ____
ROOT
ATOM      1  C   UNL     1       3.120  -6.549  -0.020  0.00  0.00    +0.092 C 
ATOM      2  C   UNL     1       3.813  -6.026  -1.280  0.00  0.00    +0.016 C 
ATOM      3  C   UNL     1       5.271  -6.491  -1.293  0.00  0.00    +0.020 C 
ATOM      4  C   UNL     1       5.314  -8.022  -1.319  0.00  0.00    +0.106 C 
ATOM      5  N   UNL     1       4.527  -8.536  -0.190  0.00  0.00    -0.315 N 
ATOM      6  C   UNL     1       3.139  -8.081  -0.030  0.00  0.00    +0.119 C 
ATOM      7  C   UNL     1       5.084  -9.433   0.709  0.00  0.00    +0.110 A 
ATOM      8  C   UNL     1       4.910 -10.811   0.516  0.00  0.00    +0.060 A 
ATOM      9  C   UNL     1       5.478 -11.697   1.432  0.00  0.00    +0.016 A 
ATOM     10  C   UNL     1       6.193 -11.174   2.497  0.00  0.00    +0.018 A 
ATOM     11  C   UNL     1       6.322  -9.804   2.622  0.00  0.00    +0.084 A 
ATOM     12  N   UNL     1       5.780  -8.984   1.741  0.00  0.00    -0.349 N 
ATOM     13  H   UNL     1       5.893  -8.028   1.854  0.00  0.00    +0.167 HD
ENDROOT
BRANCH   8  14
ATOM     14  C   UNL     1       4.135 -11.318  -0.642  0.00  0.00    +0.205 A 
ATOM     15  N   UNL     1       3.809 -12.604  -0.866  0.00  0.00    -0.191 NA
ATOM     16  C   UNL     1       3.126 -12.706  -1.970  0.00  0.00    +0.231 A 
ATOM     17  O   UNL     1       2.986 -11.482  -2.498  0.00  0.00    -0.337 OA
ATOM     18  N   UNL     1       3.647 -10.588  -1.615  0.00  0.00    -0.056 NA
BRANCH  16  19
ATOM     19  C   UNL     1       2.584 -13.984  -2.556  0.00  0.00    +0.078 C 
ATOM     20  C   UNL     1       2.657 -14.038  -4.091  0.00  0.00    +0.013 C 
ATOM     21  C   UNL     1       1.269 -14.699  -4.056  0.00  0.00    +0.001 C 
ATOM     22  C   UNL     1       1.053 -13.992  -2.707  0.00  0.00    +0.013 C 
ENDBRANCH  16  19
ENDBRANCH   8  14
BRANCH   1  24
ATOM     23  N   UNL     1       1.432  -4.742   0.021  0.00  0.00    -0.311 N 
ATOM     24  C   UNL     1       1.694  -6.064   0.009  0.00  0.00    +0.218 C 
ATOM     25  O   UNL     1       0.782  -6.863   0.021  0.00  0.00    -0.275 OA
ATOM     26  H   UNL     1       2.162  -4.103   0.011  0.00  0.00    +0.149 HD
BRANCH  23  27
ATOM     27  C   UNL     1       0.045  -4.270   0.049  0.00  0.00    +0.139 C 
BRANCH  27  32
ATOM     28  C   UNL     1      -0.026   1.508   0.080  0.00  0.00    +0.044 C 
ATOM     29  C   UNL     1      -0.007   0.002   0.072  0.00  0.00    -0.050 A 
ATOM     30  C   UNL     1      -0.020  -0.683  -1.129  0.00  0.00    +0.003 A 
ATOM     31  C   UNL     1      -0.002  -2.066  -1.136  0.00  0.00    +0.005 A 
ATOM     32  C   UNL     1       0.028  -2.763   0.057  0.00  0.00    -0.030 A 
ATOM     33  C   UNL     1       0.041  -2.078   1.258  0.00  0.00    +0.005 A 
ATOM     34  C   UNL     1       0.028  -0.696   1.265  0.00  0.00    +0.003 A 
ENDBRANCH  27  32
ENDBRANCH  23  27
ENDBRANCH   1  24
TORSDOF 5
