REMARK  Name = ZINC32944175
REMARK  9 active torsions:
REMARK  status: ('A' for Active; 'I' for Inactive)
REMARK    1  A    between atoms: C_1  and  C_2
REMARK    2  A    between atoms: C_5  and  C_35
REMARK    3  A    between atoms: C_6  and  C_8
REMARK    4  A    between atoms: C_9  and  C_10
REMARK    5  A    between atoms: C_11  and  S_16
REMARK    6  A    between atoms: C_12  and  C_15
REMARK    7  A    between atoms: S_16  and  N_19
REMARK    8  A    between atoms: C_23  and  C_26
REMARK    9  A    between atoms: N_28  and  C_29
REMARK                            x       y       z     vdW  Elec       q    Type
REMARK                         _______ _______ _______ _____ _____    ______ ____
ROOT
ATOM      1  S   UNL     1      -2.649  -3.680  -0.020  0.00  0.00    +0.066 S 
ATOM      2  O   UNL     1      -3.237  -4.847  -0.578  0.00  0.00    -0.153 OA
ATOM      3  O   UNL     1      -1.490  -3.071  -0.573  0.00  0.00    -0.153 OA
ENDROOT
BRANCH   1   5
ATOM      4  C   UNL     1      -3.751  -1.079   0.014  0.00  0.00    +0.187 A 
ATOM      5  C   UNL     1      -3.905  -2.444   0.002  0.00  0.00    +0.174 A 
ATOM      6  C   UNL     1      -5.302  -2.625   0.013  0.00  0.00    +0.107 A 
ATOM      7  N   UNL     1      -5.833  -1.435   0.021  0.00  0.00    -0.081 NA
ATOM      8  O   UNL     1      -4.995  -0.564   0.022  0.00  0.00    -0.353 OA
ATOM      9  C   UNL     1      -6.038  -3.940   0.010  0.00  0.00    +0.071 C 
BRANCH   4  11
ATOM     10  C   UNL     1      -2.500   1.012   0.019  0.00  0.00    +0.012 C 
ATOM     11  C   UNL     1      -2.488  -0.334   0.012  0.00  0.00    +0.051 C 
BRANCH  10  17
ATOM     12  C   UNL     1       2.486   1.048  -0.017  0.00  0.00    +0.044 C 
ATOM     13  C   UNL     1       1.171   1.783   0.001  0.00  0.00    -0.050 A 
ATOM     14  C   UNL     1       1.154   3.167   0.008  0.00  0.00    +0.003 A 
ATOM     15  C   UNL     1      -0.048   3.852   0.023  0.00  0.00    +0.004 A 
ATOM     16  C   UNL     1      -1.240   3.158   0.031  0.00  0.00    -0.043 A 
ATOM     17  C   UNL     1      -1.232   1.760   0.017  0.00  0.00    -0.022 A 
ATOM     18  C   UNL     1      -0.013   1.076   0.008  0.00  0.00    +0.011 A 
ATOM     19  C   UNL     1      -2.549   3.905   0.048  0.00  0.00    +0.044 C 
ENDBRANCH  10  17
ENDBRANCH   4  11
ENDBRANCH   1   5
BRANCH   1  20
ATOM     20  N   UNL     1      -2.289  -4.039   1.556  0.00  0.00    -0.176 NA
ATOM     21  C   UNL     1      -1.235  -3.304   2.269  0.00  0.00    +0.109 C 
ATOM     22  C   UNL     1      -0.240  -4.304   2.855  0.00  0.00    +0.018 C 
ATOM     23  C   UNL     1      -0.991  -5.321   3.718  0.00  0.00    +0.015 C 
ATOM     24  C   UNL     1      -1.994  -6.086   2.851  0.00  0.00    +0.091 C 
ATOM     25  C   UNL     1      -3.012  -5.102   2.266  0.00  0.00    +0.122 C 
BRANCH  24  26
ATOM     26  C   UNL     1      -2.710  -7.109   3.694  0.00  0.00    +0.218 C 
ATOM     27  O   UNL     1      -3.916  -7.058   3.816  0.00  0.00    -0.275 OA
ATOM     28  N   UNL     1      -2.011  -8.081   4.312  0.00  0.00    -0.312 N 
ATOM     29  H   UNL     1      -0.918  -8.128   4.202  0.00  0.00    +0.149 HD
BRANCH  28  30
ATOM     30  C   UNL     1      -2.707  -9.076   5.132  0.00  0.00    +0.073 C 
ATOM     31  C   UNL     1      -2.907  -8.524   6.545  0.00  0.00    +0.022 C 
ATOM     32  C   UNL     1      -3.634  -9.563   7.401  0.00  0.00    +0.002 C 
ATOM     33  C   UNL     1      -2.799 -10.843   7.467  0.00  0.00    +0.000 C 
ATOM     34  C   UNL     1      -2.600 -11.396   6.054  0.00  0.00    +0.002 C 
ATOM     35  C   UNL     1      -1.873 -10.357   5.198  0.00  0.00    +0.022 C 
ENDBRANCH  28  30
ENDBRANCH  24  26
ENDBRANCH   1  20
TORSDOF 6
