REMARK  Name = ZINC55553112
REMARK  9 active torsions:
REMARK  status: ('A' for Active; 'I' for Inactive)
REMARK    1  A    between atoms: C_1  and  C_2
REMARK    2  A    between atoms: C_5  and  C_27
REMARK    3  A    between atoms: C_6  and  O_8
REMARK    4  A    between atoms: O_8  and  C_9
REMARK    5  A    between atoms: C_9  and  C_10
REMARK    6  A    between atoms: C_15  and  C_18
REMARK    7  A    between atoms: C_20  and  C_24
REMARK    8  A    between atoms: C_27  and  C_28
REMARK    9  A    between atoms: C_27  and  C_29
REMARK                            x       y       z     vdW  Elec       q    Type
REMARK                         _______ _______ _______ _____ _____    ______ ____
ROOT
ATOM      1  C   UNL     1       0.063  -2.932   4.751  0.00  0.00    +0.256 C 
ATOM      2  O   UNL     1       0.078  -4.133   4.584  0.00  0.00    -0.272 OA
ATOM      3  N   UNL     1       0.062  -2.425   6.000  0.00  0.00    -0.262 N 
ATOM      4  C   UNL     1       0.078  -3.279   7.096  0.00  0.00    +0.165 A 
ATOM      5  N   UNL     1       0.074  -2.966   8.372  0.00  0.00    -0.225 NA
ATOM      6  C   UNL     1       0.092  -3.906   9.309  0.00  0.00    +0.082 A 
ATOM      7  C   UNL     1       0.113  -5.201   8.876  0.00  0.00    +0.077 A 
ATOM      8  S   UNL     1       0.100  -4.962   7.107  0.00  0.00    -0.060 S 
ATOM      9  H   UNL     1       0.050  -1.465   6.134  0.00  0.00    +0.157 HD
ENDROOT
BRANCH   6  10
ATOM     10  C   UNL     1       0.088  -3.566  10.755  0.00  0.00    +0.019 A 
ATOM     11  C   UNL     1      -0.038  -2.278  11.307  0.00  0.00    +0.042 A 
ATOM     12  C   UNL     1       0.007  -2.415  12.666  0.00  0.00    +0.102 A 
ATOM     13  N   UNL     1       0.157  -3.752  12.954  0.00  0.00    -0.356 N 
ATOM     14  H   UNL     1       0.218  -4.135  13.843  0.00  0.00    +0.165 HD
ATOM     15  C   UNL     1       0.201  -4.448  11.791  0.00  0.00    +0.093 A 
BRANCH  12  16
ATOM     16  C   UNL     1      -0.087  -1.327  13.646  0.00  0.00    +0.258 C 
ATOM     17  O   UNL     1      -0.218  -0.178  13.269  0.00  0.00    -0.269 OA
ATOM     18  N   UNL     1      -0.029  -1.601  14.965  0.00  0.00    -0.324 N 
ATOM     19  H   UNL     1       0.076  -2.517  15.266  0.00  0.00    +0.145 HD
ATOM     20  H   UNL     1      -0.091  -0.882  15.613  0.00  0.00    +0.145 HD
ENDBRANCH  12  16
ENDBRANCH   6  10
BRANCH   1  21
ATOM     21  C   UNL     1       0.045  -2.006   3.562  0.00  0.00    +0.325 C 
BRANCH  21  22
ATOM     22  O   UNL     1       0.050  -2.776   2.358  0.00  0.00    -0.482 OA
BRANCH  22  28
ATOM     23  C   UNL     1      -0.018   1.503   0.010  0.00  0.00    +0.044 C 
ATOM     24  C   UNL     1       0.002  -0.004   0.002  0.00  0.00    -0.047 A 
ATOM     25  C   UNL     1       0.006  -0.688  -1.200  0.00  0.00    +0.004 A 
ATOM     26  C   UNL     1       0.024  -2.071  -1.211  0.00  0.00    +0.008 A 
ATOM     27  C   UNL     1       0.039  -2.772  -0.020  0.00  0.00    -0.003 A 
ATOM     28  C   UNL     1       0.035  -2.088   1.186  0.00  0.00    +0.125 A 
ATOM     29  C   UNL     1       0.023  -0.700   1.195  0.00  0.00    +0.049 A 
BRANCH  27  30
ATOM     30  C   UNL     1       0.059  -4.279  -0.033  0.00  0.00    +0.016 C 
ATOM     31  C   UNL     1      -1.188  -4.799  -0.753  0.00  0.00    +0.012 C 
ATOM     32  C   UNL     1       1.311  -4.766  -0.764  0.00  0.00    +0.012 C 
ENDBRANCH  27  30
ENDBRANCH  22  28
ENDBRANCH  21  22
ENDBRANCH   1  21
TORSDOF 6
