REMARK  Name = ZINC15301678
REMARK  8 active torsions:
REMARK  status: ('A' for Active; 'I' for Inactive)
REMARK    1  A    between atoms: C_1  and  C_2
REMARK    2  A    between atoms: C_2  and  C_3
REMARK    3  A    between atoms: C_2  and  C_4
REMARK    4  A    between atoms: C_2  and  C_5
REMARK    5  A    between atoms: C_10  and  N_11
REMARK    6  A    between atoms: C_12  and  C_14
REMARK    7  A    between atoms: N_17  and  S_20
REMARK    8  A    between atoms: S_20  and  C_23
REMARK                            x       y       z     vdW  Elec       q    Type
REMARK                         _______ _______ _______ _____ _____    ______ ____
ROOT
ATOM      1  C   UNL     1       3.630  -1.073  -4.164  0.00  0.00    +0.078 C 
ATOM      2  C   UNL     1       3.841   0.151  -3.270  0.00  0.00    +0.030 C 
ATOM      3  C   UNL     1       4.445  -0.295  -1.935  0.00  0.00    +0.110 C 
ATOM      4  N   UNL     1       3.583  -1.330  -1.348  0.00  0.00    -0.177 NA
ATOM      5  C   UNL     1       3.246  -2.510  -2.155  0.00  0.00    +0.110 C 
ATOM      6  C   UNL     1       2.651  -2.037  -3.490  0.00  0.00    +0.030 C 
ENDROOT
BRANCH   1   8
ATOM      7  N   UNL     1       2.799  -1.547  -6.445  0.00  0.00    -0.285 N 
ATOM      8  C   UNL     1       3.067  -0.633  -5.492  0.00  0.00    +0.220 C 
ATOM      9  O   UNL     1       2.856   0.542  -5.702  0.00  0.00    -0.275 OA
ATOM     10  H   UNL     1       3.047  -2.475  -6.312  0.00  0.00    +0.155 HD
BRANCH   7  16
ATOM     11  C   UNL     1       1.790  -2.111  -8.566  0.00  0.00    -0.021 A 
ATOM     12  C   UNL     1       1.155  -1.724  -9.730  0.00  0.00    +0.006 A 
ATOM     13  C   UNL     1       0.899  -0.386  -9.967  0.00  0.00    +0.000 A 
ATOM     14  C   UNL     1       1.272   0.568  -9.037  0.00  0.00    +0.002 A 
ATOM     15  C   UNL     1       1.902   0.186  -7.869  0.00  0.00    +0.023 A 
ATOM     16  C   UNL     1       2.160  -1.157  -7.628  0.00  0.00    +0.037 A 
BRANCH  11  18
ATOM     17  C   UNL     1       1.538  -4.404  -9.476  0.00  0.00    +0.015 C 
ATOM     18  C   UNL     1       2.074  -3.569  -8.311  0.00  0.00    -0.011 C 
ATOM     19  C   UNL     1       3.583  -3.780  -8.184  0.00  0.00    +0.015 C 
ATOM     20  C   UNL     1       1.387  -4.004  -7.014  0.00  0.00    +0.015 C 
ENDBRANCH  11  18
ENDBRANCH   7  16
ENDBRANCH   1   8
BRANCH   4  21
ATOM     21  S   UNL     1       3.006  -1.171   0.196  0.00  0.00    +0.061 S 
ATOM     22  O   UNL     1       3.902  -0.304   0.877  0.00  0.00    -0.153 OA
ATOM     23  O   UNL     1       2.716  -2.483   0.658  0.00  0.00    -0.153 OA
BRANCH  21  24
ATOM     24  C   UNL     1       1.465  -0.322   0.093  0.00  0.00    +0.109 A 
ATOM     25  C   UNL     1       0.292  -1.038  -0.053  0.00  0.00    +0.032 A 
ATOM     26  C   UNL     1      -0.918  -0.376  -0.137  0.00  0.00    +0.051 A 
ATOM     27  C   UNL     1      -0.958   1.009  -0.075  0.00  0.00    +0.162 A 
ATOM     28  C   UNL     1       0.221   1.728   0.075  0.00  0.00    +0.164 A 
ATOM     29  C   UNL     1       1.433   1.058   0.157  0.00  0.00    +0.078 A 
ATOM     30  O   UNL     1       0.204   3.087   0.147  0.00  0.00    -0.485 OA
ATOM     31  C   UNL     1      -0.984   3.741  -0.314  0.00  0.00    +0.270 C 
ATOM     32  C   UNL     1      -2.196   3.009   0.278  0.00  0.00    +0.270 C 
ATOM     33  O   UNL     1      -2.157   1.648  -0.167  0.00  0.00    -0.485 OA
ENDBRANCH  21  24
ENDBRANCH   4  21
TORSDOF 5
