REMARK  Name = ZINC35789347
REMARK  14 active torsions:
REMARK  status: ('A' for Active; 'I' for Inactive)
REMARK    1  A    between atoms: C_1  and  C_2
REMARK    2  A    between atoms: C_2  and  C_3
REMARK    3  A    between atoms: C_3  and  C_5
REMARK    4  A    between atoms: C_3  and  O_32
REMARK    5  A    between atoms: C_5  and  N_6
REMARK    6  A    between atoms: N_6  and  C_7
REMARK    7  A    between atoms: N_6  and  C_29
REMARK    8  A    between atoms: C_7  and  C_8
REMARK    9  A    between atoms: C_9  and  C_28
REMARK   10  A    between atoms: N_11  and  C_21
REMARK   11  A    between atoms: C_12  and  O_13
REMARK   12  A    between atoms: O_13  and  C_14
REMARK   13  A    between atoms: C_29  and  C_30
REMARK   14  A    between atoms: C_29  and  C_31
REMARK                            x       y       z     vdW  Elec       q    Type
REMARK                         _______ _______ _______ _____ _____    ______ ____
ROOT
ATOM      1  C   UNL     1       1.780  -5.495  -2.609  0.00  0.00    +0.021 A 
ATOM      2  C   UNL     1       1.753  -6.111  -3.864  0.00  0.00    +0.065 A 
ATOM      3  N   UNL     1       2.909  -6.690  -4.066  0.00  0.00    -0.168 NA
ATOM      4  N   UNL     1       3.718  -6.465  -2.945  0.00  0.00    -0.200 N 
ATOM      5  C   UNL     1       3.003  -5.720  -2.059  0.00  0.00    +0.225 A 
ATOM      6  C   UNL     1       0.590  -6.108  -4.822  0.00  0.00    +0.068 C 
ENDROOT
BRANCH   4   7
ATOM      7  C   UNL     1       5.033  -6.920  -2.769  0.00  0.00    +0.069 A 
ATOM      8  C   UNL     1       5.995  -6.077  -2.228  0.00  0.00    +0.031 A 
ATOM      9  C   UNL     1       7.288  -6.528  -2.056  0.00  0.00    +0.040 A 
ATOM     10  C   UNL     1       7.627  -7.820  -2.422  0.00  0.00    +0.124 A 
ATOM     11  C   UNL     1       6.669  -8.662  -2.961  0.00  0.00    +0.040 A 
ATOM     12  C   UNL     1       5.373  -8.217  -3.130  0.00  0.00    +0.031 A 
ATOM     13  F   UNL     1       8.893  -8.259  -2.253  0.00  0.00    -0.205 F 
ENDBRANCH   4   7
BRANCH   1  14
ATOM     14  C   UNL     1       0.654  -4.716  -1.980  0.00  0.00    -0.035 C 
BRANCH  14  15
ATOM     15  N   UNL     1       1.107  -3.348  -1.692  0.00  0.00    +0.386 N 
ATOM     16  H   UNL     1       1.975  -3.382  -1.179  0.00  0.00    -0.081 HD
BRANCH  15  17
ATOM     17  C   UNL     1       1.311  -2.624  -2.954  0.00  0.00    -0.074 C 
ATOM     18  C   UNL     1       2.490  -3.241  -3.710  0.00  0.00    -0.014 C 
ATOM     19  C   UNL     1       0.047  -2.725  -3.810  0.00  0.00    -0.014 C 
ENDBRANCH  15  17
BRANCH  15  20
ATOM     20  C   UNL     1       0.091  -2.655  -0.889  0.00  0.00    -0.046 C 
BRANCH  20  21
ATOM     21  C   UNL     1       0.630  -1.292  -0.451  0.00  0.00    +0.098 C 
BRANCH  21  23
ATOM     22  C   UNL     1       0.041   0.869   0.657  0.00  0.00    +0.006 C 
ATOM     23  C   UNL     1      -0.453  -0.540   0.326  0.00  0.00    +0.026 C 
ENDBRANCH  21  23
BRANCH  21  24
ATOM     24  O   UNL     1       1.773  -1.478   0.386  0.00  0.00    -0.394 OA
ATOM     25  H   UNL     1       1.594  -1.986   1.190  0.00  0.00    +0.210 HD
ENDBRANCH  21  24
ENDBRANCH  20  21
ENDBRANCH  15  20
ENDBRANCH  14  15
ENDBRANCH   1  14
BRANCH   5  26
ATOM     26  O   UNL     1       3.431  -5.283  -0.848  0.00  0.00    -0.435 OA
BRANCH  26  27
ATOM     27  C   UNL     1       3.249  -6.098   0.225  0.00  0.00    +0.165 A 
ATOM     28  C   UNL     1       2.739  -7.375   0.049  0.00  0.00    +0.049 A 
ATOM     29  C   UNL     1       2.554  -8.201   1.141  0.00  0.00    +0.004 A 
ATOM     30  C   UNL     1       2.877  -7.757   2.409  0.00  0.00    +0.003 A 
ATOM     31  C   UNL     1       3.386  -6.484   2.590  0.00  0.00    +0.042 A 
ATOM     32  C   UNL     1       3.579  -5.654   1.500  0.00  0.00    +0.165 A 
ATOM     33  F   UNL     1       4.082  -4.413   1.675  0.00  0.00    -0.202 F 
ENDBRANCH  26  27
ENDBRANCH   5  26
TORSDOF 10
