REMARK  Name = ZINC17450262
REMARK  6 active torsions:
REMARK  status: ('A' for Active; 'I' for Inactive)
REMARK    1  A    between atoms: C_1  and  C_2
REMARK    2  A    between atoms: C_10  and  C_11
REMARK    3  A    between atoms: N_13  and  N_14
REMARK    4  A    between atoms: C_15  and  C_17
REMARK    5  A    between atoms: C_17  and  C_18
REMARK    6  A    between atoms: C_27  and  O_30
REMARK                            x       y       z     vdW  Elec       q    Type
REMARK                         _______ _______ _______ _____ _____    ______ ____
ROOT
ATOM      1  N   UNL     1       0.062  -0.867   4.814  0.00  0.00    -0.234 N 
ATOM      2  C   UNL     1       0.084  -1.776   5.809  0.00  0.00    +0.230 C 
ATOM      3  O   UNL     1       0.097  -2.960   5.549  0.00  0.00    -0.274 OA
ATOM      4  H   UNL     1       0.051   0.080   5.022  0.00  0.00    +0.173 HD
ENDROOT
BRANCH   1   7
ATOM      5  C   UNL     1       0.032  -0.382   2.484  0.00  0.00    +0.296 C 
ATOM      6  O   UNL     1       0.019   0.806   2.745  0.00  0.00    -0.265 OA
ATOM      7  N   UNL     1       0.054  -1.291   3.479  0.00  0.00    -0.228 N 
ATOM      8  H   UNL     1       0.065  -2.238   3.270  0.00  0.00    +0.173 HD
BRANCH   5  18
ATOM      9  C   UNL     1      -0.018   1.503   0.010  0.00  0.00    +0.048 C 
ATOM     10  C   UNL     1       0.002  -0.004   0.002  0.00  0.00    +0.008 A 
ATOM     11  C   UNL     1       0.009  -0.877  -1.171  0.00  0.00    +0.024 A 
ATOM     12  C   UNL     1      -0.001  -0.654  -2.551  0.00  0.00    +0.012 A 
ATOM     13  C   UNL     1       0.009  -1.718  -3.408  0.00  0.00    +0.001 A 
ATOM     14  C   UNL     1       0.029  -3.017  -2.918  0.00  0.00    +0.004 A 
ATOM     15  C   UNL     1       0.039  -3.257  -1.561  0.00  0.00    +0.047 A 
ATOM     16  C   UNL     1       0.029  -2.191  -0.669  0.00  0.00    +0.136 A 
ATOM     17  O   UNL     1       0.035  -2.113   0.676  0.00  0.00    -0.450 OA
ATOM     18  C   UNL     1       0.024  -0.826   1.083  0.00  0.00    +0.195 A 
ENDBRANCH   5  18
ENDBRANCH   1   7
BRANCH   2  19
ATOM     19  C   UNL     1       0.092  -1.320   7.246  0.00  0.00    +0.104 C 
BRANCH  19  20
ATOM     20  C   UNL     1       0.118  -2.541   8.168  0.00  0.00    -0.018 C 
ATOM     21  C   UNL     1      -1.122  -3.399   7.912  0.00  0.00    +0.011 C 
ATOM     22  C   UNL     1      -1.097  -4.620   8.834  0.00  0.00    -0.007 C 
ATOM     23  C   UNL     1       0.161  -5.445   8.554  0.00  0.00    +0.007 C 
ATOM     24  C   UNL     1       1.401  -4.586   8.809  0.00  0.00    -0.007 C 
ATOM     25  C   UNL     1       1.376  -3.366   7.887  0.00  0.00    +0.011 C 
ATOM     26  C   UNL     1       1.410  -4.124  10.268  0.00  0.00    +0.038 C 
ATOM     27  C   UNL     1       0.152  -3.299  10.548  0.00  0.00    +0.067 C 
ATOM     28  C   UNL     1      -1.088  -4.157  10.293  0.00  0.00    +0.038 C 
ATOM     29  C   UNL     1       0.126  -2.078   9.626  0.00  0.00    +0.042 C 
BRANCH  27  30
ATOM     30  O   UNL     1       0.160  -2.867  11.910  0.00  0.00    -0.389 OA
ATOM     31  H   UNL     1       0.176  -3.590  12.552  0.00  0.00    +0.210 HD
ENDBRANCH  27  30
ENDBRANCH  19  20
ENDBRANCH   2  19
TORSDOF 5
