REMARK  Name = ZINC32686048
REMARK  8 active torsions:
REMARK  status: ('A' for Active; 'I' for Inactive)
REMARK    1  A    between atoms: C_1  and  C_2
REMARK    2  A    between atoms: C_6  and  N_9
REMARK    3  A    between atoms: C_7  and  C_8
REMARK    4  A    between atoms: C_10  and  C_12
REMARK    5  A    between atoms: C_12  and  S_13
REMARK    6  A    between atoms: S_13  and  C_14
REMARK    7  A    between atoms: C_17  and  C_25
REMARK    8  A    between atoms: N_18  and  C_19
REMARK                            x       y       z     vdW  Elec       q    Type
REMARK                         _______ _______ _______ _____ _____    ______ ____
ROOT
ATOM      1  C   UNL     1       3.862   5.422  -0.049  0.00  0.00    +0.193 A 
ATOM      2  N   UNL     1       4.399   4.224   0.016  0.00  0.00    -0.122 NA
ATOM      3  N   UNL     1       3.478   3.327   0.013  0.00  0.00    -0.128 NA
ATOM      4  C   UNL     1       2.298   3.897  -0.054  0.00  0.00    +0.166 A 
ATOM      5  N   UNL     1       2.507   5.256  -0.101  0.00  0.00    -0.299 N 
ENDROOT
BRANCH   4   6
ATOM      6  C   UNL     1       0.990   3.208  -0.080  0.00  0.00    +0.033 A 
ATOM      7  C   UNL     1      -0.029   3.605   0.787  0.00  0.00    +0.013 A 
ATOM      8  C   UNL     1      -1.247   2.958   0.757  0.00  0.00    +0.001 A 
ATOM      9  C   UNL     1      -1.458   1.914  -0.127  0.00  0.00    +0.001 A 
ATOM     10  C   UNL     1      -0.455   1.519  -0.993  0.00  0.00    +0.016 A 
ATOM     11  C   UNL     1       0.769   2.158  -0.974  0.00  0.00    +0.029 A 
ATOM     12 BR   UNL     1       2.142   1.611  -2.153  0.00  0.00    -0.050 Br
ENDBRANCH   4   6
BRANCH   5  13
ATOM     13  C   UNL     1       1.489   6.306  -0.186  0.00  0.00    +0.091 C 
ATOM     14  C   UNL     1       1.773   7.195  -1.399  0.00  0.00    +0.025 C 
ATOM     15  C   UNL     1       0.710   8.291  -1.488  0.00  0.00    +0.002 C 
ATOM     16  C   UNL     1       0.744   9.139  -0.215  0.00  0.00    +0.000 C 
ATOM     17  C   UNL     1       0.460   8.251   0.998  0.00  0.00    +0.002 C 
ATOM     18  C   UNL     1       1.523   7.154   1.087  0.00  0.00    +0.025 C 
ENDBRANCH   5  13
BRANCH   1  19
ATOM     19  S   UNL     1       4.728   6.956  -0.071  0.00  0.00    -0.077 S 
BRANCH  19  20
ATOM     20  C   UNL     1       6.433   6.356   0.017  0.00  0.00    +0.173 C 
BRANCH  20  22
ATOM     21  N   UNL     1       8.710   7.321   0.070  0.00  0.00    -0.285 N 
ATOM     22  C   UNL     1       7.380   7.528   0.011  0.00  0.00    +0.227 C 
ATOM     23  O   UNL     1       6.945   8.659  -0.048  0.00  0.00    -0.275 OA
ATOM     24  H   UNL     1       9.108   6.295   0.059  0.00  0.00    +0.155 HD
BRANCH  21  30
ATOM     25  C   UNL     1      13.062   9.165   1.423  0.00  0.00    +0.044 C 
ATOM     26  C   UNL     1      11.701   9.332   0.798  0.00  0.00    -0.046 A 
ATOM     27  C   UNL     1      11.317  10.563   0.298  0.00  0.00    +0.004 A 
ATOM     28  C   UNL     1      10.069  10.720  -0.277  0.00  0.00    +0.002 A 
ATOM     29  C   UNL     1       9.203   9.646  -0.354  0.00  0.00    +0.023 A 
ATOM     30  C   UNL     1       9.586   8.409   0.147  0.00  0.00    +0.037 A 
ATOM     31  C   UNL     1      10.837   8.257   0.729  0.00  0.00    -0.026 A 
ATOM     32  C   UNL     1      11.255   6.917   1.280  0.00  0.00    +0.046 C 
ENDBRANCH  21  30
ENDBRANCH  20  22
ENDBRANCH  19  20
ENDBRANCH   1  19
TORSDOF 6
