REMARK  Name = ZINC63887141
REMARK  9 active torsions:
REMARK  status: ('A' for Active; 'I' for Inactive)
REMARK    1  A    between atoms: C_1  and  O_2
REMARK    2  A    between atoms: O_2  and  C_3
REMARK    3  A    between atoms: C_6  and  C_9
REMARK    4  A    between atoms: C_9  and  C_11
REMARK    5  A    between atoms: C_9  and  C_26
REMARK    6  A    between atoms: C_11  and  N_12
REMARK    7  A    between atoms: C_13  and  C_15
REMARK    8  A    between atoms: C_15  and  S_16
REMARK    9  A    between atoms: S_16  and  C_17
REMARK                            x       y       z     vdW  Elec       q    Type
REMARK                         _______ _______ _______ _____ _____    ______ ____
ROOT
ATOM      1  C   UNL     1       2.587  -2.550   4.310  0.00  0.00    +0.064 C 
ENDROOT
BRANCH   1   2
ATOM      2  C   UNL     1       3.726  -3.388   3.789  0.00  0.00    -0.033 C 
ATOM      3  C   UNL     1       5.036  -3.264   4.102  0.00  0.00    -0.000 A 
ATOM      4  C   UNL     1       5.764  -2.348   4.987  0.00  0.00    +0.010 A 
ATOM      5  C   UNL     1       7.107  -2.471   5.098  0.00  0.00    +0.001 A 
ATOM      6  C   UNL     1       7.818  -3.449   4.389  0.00  0.00    +0.002 A 
ATOM      7  C   UNL     1       7.218  -4.327   3.557  0.00  0.00    +0.026 A 
ATOM      8  C   UNL     1       5.810  -4.289   3.365  0.00  0.00    +0.043 A 
ATOM      9  N   UNL     1       5.009  -5.017   2.626  0.00  0.00    -0.380 N 
ATOM     10  C   UNL     1       3.635  -4.540   2.814  0.00  0.00    +0.145 C 
ATOM     11  H   UNL     1       5.280  -5.752   2.052  0.00  0.00    +0.160 HD
ENDBRANCH   1   2
BRANCH   1  15
ATOM     12  C   UNL     1       0.626  -0.618   1.042  0.00  0.00    +0.120 A 
ATOM     13  C   UNL     1       1.202   0.138   2.051  0.00  0.00    +0.046 A 
ATOM     14  C   UNL     1       1.835  -0.488   3.107  0.00  0.00    +0.008 A 
ATOM     15  C   UNL     1       1.895  -1.869   3.158  0.00  0.00    -0.038 A 
ATOM     16  C   UNL     1       1.322  -2.625   2.152  0.00  0.00    +0.008 A 
ATOM     17  C   UNL     1       0.682  -2.003   1.098  0.00  0.00    +0.046 A 
BRANCH  12  19
ATOM     18  C   UNL     1      -0.017   1.425   0.010  0.00  0.00    +0.277 C 
ATOM     19  O   UNL     1       0.002  -0.004   0.002  0.00  0.00    -0.495 OA
ENDBRANCH  12  19
ENDBRANCH   1  15
BRANCH   1  20
ATOM     20  C   UNL     1       1.589  -3.447   5.046  0.00  0.00    +0.116 C 
BRANCH  20  21
ATOM     21  N   UNL     1       2.228  -4.016   6.235  0.00  0.00    -0.314 N 
ATOM     22  C   UNL     1       1.535  -4.844   7.042  0.00  0.00    +0.223 C 
ATOM     23  O   UNL     1       0.382  -5.117   6.783  0.00  0.00    -0.275 OA
ATOM     24  H   UNL     1       3.150  -3.797   6.441  0.00  0.00    +0.149 HD
BRANCH  22  25
ATOM     25  C   UNL     1       2.192  -5.429   8.265  0.00  0.00    +0.174 C 
BRANCH  25  26
ATOM     26  S   UNL     1       1.009  -6.492   9.137  0.00  0.00    -0.058 S 
BRANCH  26  27
ATOM     27  C   UNL     1       1.916  -7.092  10.523  0.00  0.00    +0.258 A 
ATOM     28  N   UNL     1       3.160  -6.786  10.796  0.00  0.00    -0.203 NA
ATOM     29  C   UNL     1       3.528  -7.430  11.937  0.00  0.00    +0.110 A 
ATOM     30  C   UNL     1       4.708  -7.474  12.681  0.00  0.00    +0.031 A 
ATOM     31  C   UNL     1       4.767  -8.242  13.823  0.00  0.00    +0.002 A 
ATOM     32  C   UNL     1       3.662  -8.969  14.237  0.00  0.00    +0.004 A 
ATOM     33  C   UNL     1       2.489  -8.934  13.511  0.00  0.00    +0.048 A 
ATOM     34  C   UNL     1       2.412  -8.167  12.360  0.00  0.00    +0.156 A 
ATOM     35  O   UNL     1       1.431  -7.927  11.459  0.00  0.00    -0.431 OA
ENDBRANCH  26  27
ENDBRANCH  25  26
ENDBRANCH  22  25
ENDBRANCH  20  21
ENDBRANCH   1  20
TORSDOF 8
