REMARK  Name = ZINC13786022
REMARK  2 active torsions:
REMARK  status: ('A' for Active; 'I' for Inactive)
REMARK    1  A    between atoms: C_3  and  C_10
REMARK    2  A    between atoms: C_5  and  N_7
REMARK                            x       y       z     vdW  Elec       q    Type
REMARK                         _______ _______ _______ _____ _____    ______ ____
ROOT
ATOM      1  C   UNL     1      -0.070   5.347   0.031  0.00  0.00    +0.100 C 
ATOM      2  C   UNL     1       0.613   5.862  -1.205  0.00  0.00    +0.091 A 
ATOM      3  C   UNL     1      -0.046   5.816  -2.433  0.00  0.00    +0.260 A 
ATOM      4  N   UNL     1       0.576   6.277  -3.513  0.00  0.00    -0.301 N 
ATOM      5  C   UNL     1       1.802   6.771  -3.429  0.00  0.00    +0.183 A 
ATOM      6  N   UNL     1       2.454   6.827  -2.277  0.00  0.00    -0.187 NA
ATOM      7  C   UNL     1       1.892   6.384  -1.154  0.00  0.00    +0.234 A 
ATOM      8  O   UNL     1       2.573   6.451   0.009  0.00  0.00    -0.419 OA
ATOM      9  C   UNL     1       1.917   6.370   1.186  0.00  0.00    +0.234 A 
ATOM     10  C   UNL     1       0.636   5.845   1.260  0.00  0.00    +0.091 A 
ATOM     11  C   UNL     1       0.006   5.787   2.498  0.00  0.00    +0.260 A 
ATOM     12  N   UNL     1       0.651   6.234   3.571  0.00  0.00    -0.301 N 
ATOM     13  C   UNL     1       1.876   6.729   3.466  0.00  0.00    +0.183 A 
ATOM     14  N   UNL     1       2.502   6.800   2.301  0.00  0.00    -0.187 NA
ATOM     15  S   UNL     1       2.692   7.311   4.915  0.00  0.00    -0.011 S 
ATOM     16  O   UNL     1      -1.246   5.282   2.610  0.00  0.00    -0.267 OA
ATOM     17  S   UNL     1       2.588   7.369  -4.888  0.00  0.00    -0.011 S 
ATOM     18  O   UNL     1      -1.301   5.312  -2.524  0.00  0.00    -0.267 OA
ATOM     19  H   UNL     1       0.169   6.194   4.559  0.00  0.00    +0.171 HD
ATOM     20  H   UNL     1       0.061   6.246  -4.485  0.00  0.00    +0.171 HD
ENDROOT
BRANCH   1  23
ATOM     21  C   UNL     1       1.174   1.782  -0.004  0.00  0.00    +0.003 A 
ATOM     22  C   UNL     1       1.155   3.165   0.005  0.00  0.00    +0.005 A 
ATOM     23  C   UNL     1      -0.051   3.840   0.021  0.00  0.00    -0.033 A 
ATOM     24  C   UNL     1      -1.239   3.133   0.027  0.00  0.00    +0.037 A 
ATOM     25  C   UNL     1      -1.220   1.751   0.014  0.00  0.00    +0.126 A 
ATOM     26  C   UNL     1      -0.014   1.076   0.003  0.00  0.00    +0.033 A 
BRANCH  25  27
ATOM     27  N   UNL     1      -2.492   0.994   0.015  0.00  0.00    +0.056 N 
ATOM     28  O   UNL     1      -2.476  -0.224   0.007  0.00  0.00    -0.126 OA
ATOM     29  O   UNL     1      -3.555   1.589   0.025  0.00  0.00    -0.126 OA
ENDBRANCH  25  27
ENDBRANCH   1  23
TORSDOF 2
