REMARK  Name = ZINC08983975
REMARK  12 active torsions:
REMARK  status: ('A' for Active; 'I' for Inactive)
REMARK    1  A    between atoms: C_1  and  C_2
REMARK    2  A    between atoms: C_3  and  C_37
REMARK    3  A    between atoms: N_6  and  C_16
REMARK    4  A    between atoms: C_7  and  N_80
REMARK    5  A    between atoms: C_9  and  C_10
REMARK    6  A    between atoms: C_9  and  N_80
REMARK    7  A    between atoms: C_16  and  C_17
REMARK    8  A    between atoms: C_17  and  C_36
REMARK    9  A    between atoms: C_21  and  C_35
REMARK   10  A    between atoms: C_30  and  C_32
REMARK   11  A    between atoms: C_32  and  C_33
REMARK   12  A    between atoms: C_32  and  C_34
REMARK                            x       y       z     vdW  Elec       q    Type
REMARK                         _______ _______ _______ _____ _____    ______ ____
ROOT
ATOM      1  C   UNL     1      -0.668   1.708   1.048  0.00  0.00    -0.013 C 
ATOM      2  C   UNL     1       0.075   1.222   2.294  0.00  0.00    +0.008 C 
ATOM      3  C   UNL     1      -0.343   1.986   3.543  0.00  0.00    +0.001 C 
ATOM      4  C   UNL     1      -0.092   3.483   3.354  0.00  0.00    +0.011 C 
ATOM      5  C   UNL     1      -0.923   3.996   2.182  0.00  0.00    -0.003 C 
ATOM      6  C   UNL     1      -0.611   3.214   0.919  0.00  0.00    +0.007 C 
ATOM      7  C   UNL     1      -1.451   3.758  -0.234  0.00  0.00    +0.009 C 
ATOM      8  C   UNL     1      -0.932   5.154  -0.583  0.00  0.00    +0.036 C 
ATOM      9  C   UNL     1      -0.615   5.967   0.642  0.00  0.00    -0.043 A 
ATOM     10  C   UNL     1      -0.606   5.454   1.921  0.00  0.00    -0.038 A 
ATOM     11  C   UNL     1      -0.311   6.270   2.999  0.00  0.00    +0.005 A 
ATOM     12  C   UNL     1      -0.015   7.605   2.805  0.00  0.00    +0.004 A 
ATOM     13  C   UNL     1      -0.015   8.126   1.525  0.00  0.00    -0.045 A 
ATOM     14  C   UNL     1      -0.314   7.312   0.452  0.00  0.00    +0.007 A 
ATOM     15  C   UNL     1      -2.402   3.929   2.558  0.00  0.00    +0.016 C 
ATOM     16  C   UNL     1       0.057   1.089  -0.171  0.00  0.00    +0.013 C 
ENDROOT
BRANCH  13  17
ATOM     17  C   UNL     1       0.310   9.581   1.302  0.00  0.00    +0.013 C 
ATOM     18  C   UNL     1      -0.700  10.450   2.054  0.00  0.00    +0.012 C 
ATOM     19  C   UNL     1       1.720   9.873   1.819  0.00  0.00    +0.012 C 
ENDBRANCH  13  17
BRANCH   1  20
ATOM     20  C   UNL     1      -2.099   1.171   1.046  0.00  0.00    +0.113 C 
BRANCH  20  26
ATOM     21  C   UNL     1      -2.030  -3.811  -0.534  0.00  0.00    +0.039 C 
ATOM     22  C   UNL     1      -2.038  -2.565   0.314  0.00  0.00    -0.062 C 
ATOM     23  C   UNL     1      -2.013  -2.512   1.642  0.00  0.00    +0.010 C 
ATOM     24  C   UNL     1      -2.033  -1.113   2.083  0.00  0.00    +0.241 C 
ATOM     25  O   UNL     1      -2.017  -0.748   3.243  0.00  0.00    -0.270 OA
ATOM     26  N   UNL     1      -2.070  -0.294   1.016  0.00  0.00    -0.307 N 
ATOM     27  C   UNL     1      -2.083  -1.139  -0.185  0.00  0.00    +0.046 C 
ATOM     28  C   UNL     1      -1.971  -3.709   2.556  0.00  0.00    +0.049 C 
BRANCH  27  29
ATOM     29  N   UNL     1      -3.322  -0.911  -0.952  0.00  0.00    +0.395 N 
ATOM     30  H   UNL     1      -3.999  -0.414  -0.361  0.00  0.00    -0.083 HD
ATOM     31  H   UNL     1      -3.716  -1.815  -1.237  0.00  0.00    -0.083 HD
BRANCH  29  32
ATOM     32  C   UNL     1      -3.039  -0.103  -2.154  0.00  0.00    -0.048 C 
BRANCH  32  33
ATOM     33  C   UNL     1      -4.341   0.117  -2.927  0.00  0.00    +0.101 C 
ATOM     34  C   UNL     1      -4.065   0.960  -4.188  0.00  0.00    +0.032 C 
ATOM     35  C   UNL     1      -4.540   0.063  -5.356  0.00  0.00    +0.030 C 
ATOM     36  C   UNL     1      -5.505  -0.917  -4.641  0.00  0.00    +0.160 C 
ATOM     37  O   UNL     1      -4.869  -1.146  -3.365  0.00  0.00    -0.378 OA
ENDBRANCH  32  33
ENDBRANCH  29  32
ENDBRANCH  27  29
ENDBRANCH  20  26
ENDBRANCH   1  20
TORSDOF 6
