REMARK  Name = ZINC35991879
REMARK  12 active torsions:
REMARK  status: ('A' for Active; 'I' for Inactive)
REMARK    1  A    between atoms: C_1  and  C_2
REMARK    2  A    between atoms: C_2  and  N_3
REMARK    3  A    between atoms: C_4  and  C_24
REMARK    4  A    between atoms: C_5  and  C_19
REMARK    5  A    between atoms: C_6  and  C_11
REMARK    6  A    between atoms: C_16  and  O_17
REMARK    7  A    between atoms: O_17  and  C_18
REMARK    8  A    between atoms: C_19  and  O_21
REMARK    9  A    between atoms: O_21  and  C_22
REMARK   10  A    between atoms: C_22  and  C_23
REMARK   11  A    between atoms: C_24  and  N_25
REMARK   12  A    between atoms: C_32  and  C_34
REMARK                            x       y       z     vdW  Elec       q    Type
REMARK                         _______ _______ _______ _____ _____    ______ ____
ROOT
ATOM      1  N   UNL     1      -1.320  -1.024   0.632  0.00  0.00    -0.261 N 
ATOM      2  C   UNL     1      -1.409  -1.810   1.745  0.00  0.00    +0.010 C 
ATOM      3  C   UNL     1      -2.104  -2.968   1.727  0.00  0.00    +0.077 C 
ATOM      4  C   UNL     1      -2.780  -3.365   0.430  0.00  0.00    +0.147 C 
ATOM      5  N   UNL     1      -2.623  -2.447  -0.712  0.00  0.00    -0.288 N 
ATOM      6  C   UNL     1      -1.901  -1.323  -0.537  0.00  0.00    +0.307 C 
ATOM      7  O   UNL     1      -1.768  -0.558  -1.472  0.00  0.00    -0.252 OA
ATOM      8  H   UNL     1      -3.032  -2.646  -1.568  0.00  0.00    +0.151 HD
ENDROOT
BRANCH   4   9
ATOM      9  C   UNL     1      -4.254  -3.518   0.703  0.00  0.00    +0.019 A 
ATOM     10  C   UNL     1      -5.109  -2.452   0.498  0.00  0.00    +0.009 A 
ATOM     11  C   UNL     1      -6.462  -2.591   0.749  0.00  0.00    +0.001 A 
ATOM     12  C   UNL     1      -6.962  -3.798   1.204  0.00  0.00    +0.004 A 
ATOM     13  C   UNL     1      -6.111  -4.866   1.409  0.00  0.00    +0.046 A 
ATOM     14  C   UNL     1      -4.754  -4.730   1.153  0.00  0.00    +0.125 A 
BRANCH  14  15
ATOM     15  O   UNL     1      -3.916  -5.782   1.350  0.00  0.00    -0.495 OA
ATOM     16  C   UNL     1      -4.513  -7.028   1.712  0.00  0.00    +0.277 C 
ENDBRANCH  14  15
ENDBRANCH   4   9
BRANCH   1  18
ATOM     17  C   UNL     1      -1.495   1.383   1.026  0.00  0.00    +0.025 C 
ATOM     18  C   UNL     1      -0.550   0.219   0.723  0.00  0.00    +0.111 C 
ENDBRANCH   1  18
BRANCH   3  19
ATOM     19  C   UNL     1      -2.196  -3.784   2.879  0.00  0.00    +0.339 C 
ATOM     20  O   UNL     1      -1.495  -4.773   2.982  0.00  0.00    -0.245 OA
BRANCH  19  21
ATOM     21  O   UNL     1      -3.062  -3.465   3.863  0.00  0.00    -0.462 OA
BRANCH  21  22
ATOM     22  C   UNL     1      -3.025  -4.268   5.045  0.00  0.00    +0.229 C 
ATOM     23  C   UNL     1      -4.146  -3.834   5.992  0.00  0.00    +0.048 C 
ENDBRANCH  21  22
ENDBRANCH  19  21
ENDBRANCH   3  19
BRANCH   2  24
ATOM     24  C   UNL     1      -0.721  -1.379   3.014  0.00  0.00    -0.026 C 
BRANCH  24  25
ATOM     25  N   UNL     1       0.581  -2.051   3.119  0.00  0.00    +0.384 N 
ATOM     26  C   UNL     1       1.102  -1.840   4.467  0.00  0.00    -0.077 C 
ATOM     27  C   UNL     1       1.977  -3.012   4.854  0.00  0.00    +0.000 C 
ATOM     28  C   UNL     1       3.443  -2.692   4.510  0.00  0.00    +0.106 C 
ATOM     29  N   UNL     1       3.543  -1.982   3.218  0.00  0.00    -0.303 N 
ATOM     30  C   UNL     1       2.748  -2.354   2.066  0.00  0.00    +0.089 C 
ATOM     31  C   UNL     1       1.411  -1.577   2.079  0.00  0.00    -0.059 C 
ATOM     32  C   UNL     1       4.405  -0.952   3.108  0.00  0.00    +0.219 C 
ATOM     33  O   UNL     1       4.438  -0.295   2.089  0.00  0.00    -0.275 OA
ATOM     34  H   UNL     1       0.438  -3.041   2.986  0.00  0.00    -0.081 HD
BRANCH  32  35
ATOM     35  C   UNL     1       5.329  -0.616   4.250  0.00  0.00    +0.075 C 
ATOM     36  C   UNL     1       4.638   0.369   5.216  0.00  0.00    +0.013 C 
ATOM     37  C   UNL     1       5.777   1.314   5.673  0.00  0.00    +0.001 C 
ATOM     38  C   UNL     1       6.615   1.489   4.382  0.00  0.00    +0.001 C 
ATOM     39  C   UNL     1       6.586   0.096   3.720  0.00  0.00    +0.013 C 
ENDBRANCH  32  35
ENDBRANCH  24  25
ENDBRANCH   2  24
TORSDOF 9
