REMARK  Name = ZINC21124522
REMARK  9 active torsions:
REMARK  status: ('A' for Active; 'I' for Inactive)
REMARK    1  A    between atoms: C_1  and  C_2
REMARK    2  A    between atoms: C_2  and  C_3
REMARK    3  A    between atoms: C_2  and  C_4
REMARK    4  A    between atoms: C_2  and  C_5
REMARK    5  A    between atoms: N_10  and  C_13
REMARK    6  A    between atoms: C_16  and  N_20
REMARK    7  A    between atoms: C_21  and  C_23
REMARK    8  A    between atoms: C_24  and  C_25
REMARK    9  A    between atoms: C_28  and  C_30
REMARK                            x       y       z     vdW  Elec       q    Type
REMARK                         _______ _______ _______ _____ _____    ______ ____
ROOT
ATOM      1  C   UNL     1      -1.753   0.085  -1.290  0.00  0.00    +0.048 A 
ATOM      2  C   UNL     1      -2.780   0.375  -0.402  0.00  0.00    +0.026 A 
ATOM      3  C   UNL     1      -4.088   0.087  -0.740  0.00  0.00    +0.025 A 
ATOM      4  C   UNL     1      -4.376  -0.493  -1.968  0.00  0.00    +0.035 A 
ATOM      5  C   UNL     1      -3.350  -0.784  -2.857  0.00  0.00    +0.045 A 
ATOM      6  C   UNL     1      -2.042  -0.490  -2.522  0.00  0.00    +0.064 A 
ATOM      7 CL   UNL     1      -0.759  -0.846  -3.636  0.00  0.00    -0.082 Cl
ENDROOT
BRANCH   1  13
ATOM      8  C   UNL     1       2.459   1.736   1.586  0.00  0.00    +0.221 C 
ATOM      9  O   UNL     1       2.801   1.009   2.494  0.00  0.00    -0.275 OA
ATOM     10  N   UNL     1       1.762   1.235   0.547  0.00  0.00    -0.298 N 
ATOM     11  C   UNL     1       1.237   2.118  -0.506  0.00  0.00    +0.126 C 
ATOM     12  C   UNL     1      -0.253   1.814  -0.698  0.00  0.00    +0.124 C 
ATOM     13  N   UNL     1      -0.428   0.377  -0.948  0.00  0.00    -0.326 N 
ATOM     14  C   UNL     1       0.006  -0.421   0.207  0.00  0.00    +0.124 C 
ATOM     15  C   UNL     1       1.506  -0.209   0.436  0.00  0.00    +0.126 C 
BRANCH   8  17
ATOM     16  C   UNL     1       3.770   3.467   2.783  0.00  0.00    +0.020 C 
ATOM     17  C   UNL     1       2.813   3.201   1.619  0.00  0.00    +0.039 C 
ATOM     18  C   UNL     1       3.490   3.591   0.304  0.00  0.00    +0.020 C 
ATOM     19  C   UNL     1       1.541   4.029   1.804  0.00  0.00    +0.020 C 
ENDBRANCH   8  17
ENDBRANCH   1  13
BRANCH   4  20
ATOM     20  N   UNL     1      -5.702  -0.786  -2.310  0.00  0.00    -0.282 N 
ATOM     21  C   UNL     1      -5.982  -1.875  -3.053  0.00  0.00    +0.241 C 
ATOM     22  O   UNL     1      -5.095  -2.655  -3.349  0.00  0.00    -0.270 OA
ATOM     23  H   UNL     1      -6.516  -0.127  -1.971  0.00  0.00    +0.155 HD
BRANCH  21  24
ATOM     24  C   UNL     1      -7.306  -2.111  -3.490  0.00  0.00    +0.071 C 
ATOM     25  C   UNL     1      -7.588  -3.208  -4.239  0.00  0.00    +0.051 C 
BRANCH  25  26
ATOM     26  C   UNL     1      -8.912  -3.445  -4.676  0.00  0.00    +0.129 A 
ATOM     27  C   UNL     1      -9.332  -4.514  -5.444  0.00  0.00    +0.050 A 
ATOM     28  C   UNL     1     -10.707  -4.356  -5.638  0.00  0.00    +0.050 A 
ATOM     29  C   UNL     1     -11.074  -3.197  -4.992  0.00  0.00    +0.136 A 
ATOM     30  O   UNL     1      -9.981  -2.663  -4.419  0.00  0.00    -0.455 OA
BRANCH  29  31
ATOM     31  C   UNL     1     -12.438  -2.636  -4.938  0.00  0.00    +0.017 A 
ATOM     32  C   UNL     1     -13.491  -3.288  -5.584  0.00  0.00    +0.013 A 
ATOM     33  C   UNL     1     -14.764  -2.760  -5.525  0.00  0.00    +0.021 A 
ATOM     34  C   UNL     1     -14.997  -1.581  -4.836  0.00  0.00    +0.041 A 
ATOM     35  C   UNL     1     -13.956  -0.927  -4.198  0.00  0.00    +0.021 A 
ATOM     36  C   UNL     1     -12.680  -1.447  -4.245  0.00  0.00    +0.013 A 
ATOM     37 CL   UNL     1     -16.601  -0.920  -4.773  0.00  0.00    -0.084 Cl
ENDBRANCH  29  31
ENDBRANCH  25  26
ENDBRANCH  21  24
ENDBRANCH   4  20
TORSDOF 6
