REMARK  Name = ZINC14140797
REMARK  4 active torsions:
REMARK  status: ('A' for Active; 'I' for Inactive)
REMARK    1  A    between atoms: C_1  and  C_2
REMARK    2  A    between atoms: C_4  and  C_20
REMARK    3  A    between atoms: N_8  and  N_9
REMARK    4  A    between atoms: C_10  and  C_11
REMARK                            x       y       z     vdW  Elec       q    Type
REMARK                         _______ _______ _______ _____ _____    ______ ____
ROOT
ATOM      1  N   UNL     1      -0.164  -1.965   3.571  0.00  0.00    -0.311 N 
ATOM      2  C   UNL     1       0.059  -2.616   4.722  0.00  0.00    +0.111 C 
ATOM      3  H   UNL     1      -0.314  -1.007   3.577  0.00  0.00    +0.184 HD
ENDROOT
BRANCH   1  11
ATOM      4  C   UNL     1      -1.068   1.472   0.119  0.00  0.00    +0.066 C 
ATOM      5  C   UNL     1      -0.839  -0.017   0.081  0.00  0.00    +0.044 A 
ATOM      6  C   UNL     1      -0.861  -0.699  -1.126  0.00  0.00    +0.046 A 
ATOM      7  C   UNL     1      -0.646  -2.068  -1.117  0.00  0.00    +0.044 A 
ATOM      8  N   UNL     1      -0.428  -2.679   0.036  0.00  0.00    -0.218 NA
ATOM      9  C   UNL     1      -0.414  -1.998   1.172  0.00  0.00    +0.234 A 
ATOM     10  N   UNL     1      -0.610  -0.688   1.198  0.00  0.00    -0.218 NA
ATOM     11  N   UNL     1      -0.183  -2.670   2.360  0.00  0.00    -0.228 N 
ATOM     12  C   UNL     1      -0.660  -2.851  -2.404  0.00  0.00    +0.066 C 
ATOM     13  H   UNL     1      -0.034  -3.628   2.354  0.00  0.00    +0.175 HD
ENDBRANCH   1  11
BRANCH   2  14
ATOM     14  C   UNL     1       0.161  -1.903   5.920  0.00  0.00    +0.042 A 
ATOM     15  C   UNL     1       0.283  -2.579   7.154  0.00  0.00    +0.033 A 
ATOM     16  C   UNL     1       0.381  -1.868   8.309  0.00  0.00    +0.043 A 
ATOM     17  C   UNL     1       0.363  -0.475   8.309  0.00  0.00    +0.044 A 
ATOM     18  C   UNL     1       0.248   0.237   7.153  0.00  0.00    +0.090 A 
ATOM     19  C   UNL     1       0.149  -0.435   5.922  0.00  0.00    +0.206 A 
ATOM     20  O   UNL     1       0.050   0.190   4.875  0.00  0.00    -0.286 OA
ATOM     21 CL   UNL     1       0.230   1.972   7.200  0.00  0.00    -0.080 Cl
ATOM     22 CL   UNL     1       0.530  -2.714   9.817  0.00  0.00    -0.083 Cl
ENDBRANCH   2  14
TORSDOF 2
