REMARK  Name = ZINC31057815
REMARK  8 active torsions:
REMARK  status: ('A' for Active; 'I' for Inactive)
REMARK    1  A    between atoms: C_1  and  C_2
REMARK    2  A    between atoms: C_6  and  C_8
REMARK    3  A    between atoms: C_8  and  C_10
REMARK    4  A    between atoms: C_8  and  N_16
REMARK    5  A    between atoms: C_17  and  C_19
REMARK    6  A    between atoms: N_24  and  C_26
REMARK    7  A    between atoms: C_26  and  C_27
REMARK    8  A    between atoms: C_29  and  C_32
REMARK                            x       y       z     vdW  Elec       q    Type
REMARK                         _______ _______ _______ _____ _____    ______ ____
ROOT
ATOM      1  N   UNL     1      -0.364   3.720   5.454  0.00  0.00    -0.304 N 
ATOM      2  C   UNL     1       0.441   4.428   6.271  0.00  0.00    +0.215 C 
ATOM      3  O   UNL     1       1.579   4.061   6.468  0.00  0.00    -0.276 OA
ATOM      4  H   UNL     1      -1.397   4.053   5.275  0.00  0.00    +0.150 HD
ENDROOT
BRANCH   2   5
ATOM      5  C   UNL     1      -0.075   5.676   6.939  0.00  0.00    +0.058 C 
ATOM      6  C   UNL     1      -0.500   6.689   5.872  0.00  0.00    +0.009 C 
ATOM      7  C   UNL     1      -0.965   7.977   6.559  0.00  0.00    -0.018 C 
ATOM      8  C   UNL     1       0.166   8.520   7.435  0.00  0.00    -0.078 C 
ATOM      9  N   UNL     1       0.535   7.514   8.440  0.00  0.00    +0.386 N 
ATOM     10  C   UNL     1       1.030   6.286   7.805  0.00  0.00    -0.065 C 
ATOM     11  H   UNL     1      -0.373   7.257   9.005  0.00  0.00    -0.081 HD
BRANCH   9  12
ATOM     12  C   UNL     1       1.521   8.052   9.386  0.00  0.00    +0.022 C 
BRANCH  12  13
ATOM     13  C   UNL     1       0.892   9.159  10.193  0.00  0.00    +0.211 A 
ATOM     14  N   UNL     1       0.254   9.026  11.328  0.00  0.00    -0.192 NA
ATOM     15  C   UNL     1      -0.129  10.277  11.678  0.00  0.00    +0.209 A 
ATOM     16  N   UNL     1       0.290  11.086  10.736  0.00  0.00    -0.056 NA
ATOM     17  O   UNL     1       0.876  10.458   9.880  0.00  0.00    -0.340 OA
BRANCH  15  18
ATOM     18  C   UNL     1      -0.882  10.657  12.891  0.00  0.00    +0.060 A 
ATOM     19  C   UNL     1      -1.295  11.899  13.297  0.00  0.00    +0.019 A 
ATOM     20  C   UNL     1      -1.994  12.011  14.477  0.00  0.00    +0.008 A 
ATOM     21  C   UNL     1      -2.244  10.893  15.207  0.00  0.00    +0.046 A 
ATOM     22  S   UNL     1      -1.484   9.619  14.213  0.00  0.00    -0.093 S 
ENDBRANCH  15  18
ENDBRANCH  12  13
ENDBRANCH   9  12
ENDBRANCH   2   5
BRANCH   1  23
ATOM     23  C   UNL     1       0.137   2.506   4.804  0.00  0.00    +0.134 C 
BRANCH  23  29
ATOM     24  C   UNL     1      -0.013   1.086   0.008  0.00  0.00    +0.044 C 
ATOM     25  C   UNL     1      -0.718   1.572   1.248  0.00  0.00    -0.050 A 
ATOM     26  C   UNL     1      -2.083   1.789   1.226  0.00  0.00    +0.003 A 
ATOM     27  C   UNL     1      -2.731   2.231   2.365  0.00  0.00    +0.001 A 
ATOM     28  C   UNL     1      -2.012   2.464   3.522  0.00  0.00    +0.006 A 
ATOM     29  C   UNL     1      -0.646   2.251   3.543  0.00  0.00    -0.023 A 
ATOM     30  C   UNL     1       0.001   1.806   2.405  0.00  0.00    +0.009 A 
ENDBRANCH  23  29
BRANCH  23  31
ATOM     31  C   UNL     1      -0.021   1.334   5.739  0.00  0.00    -0.023 A 
ATOM     32  C   UNL     1      -1.158   1.218   6.516  0.00  0.00    +0.006 A 
ATOM     33  C   UNL     1      -1.306   0.140   7.369  0.00  0.00    +0.000 A 
ATOM     34  C   UNL     1      -0.311  -0.815   7.453  0.00  0.00    +0.000 A 
ATOM     35  C   UNL     1       0.829  -0.697   6.680  0.00  0.00    +0.000 A 
ATOM     36  C   UNL     1       0.974   0.378   5.823  0.00  0.00    +0.006 A 
ENDBRANCH  23  31
ENDBRANCH   1  23
TORSDOF 7
