REMARK  Name = ZINC38925632
REMARK  7 active torsions:
REMARK  status: ('A' for Active; 'I' for Inactive)
REMARK    1  A    between atoms: C_1  and  C_2
REMARK    2  A    between atoms: C_5  and  N_9
REMARK    3  A    between atoms: C_6  and  C_8
REMARK    4  A    between atoms: N_9  and  C_10
REMARK    5  A    between atoms: C_10  and  C_11
REMARK    6  A    between atoms: C_17  and  C_23
REMARK    7  A    between atoms: C_24  and  C_26
REMARK                            x       y       z     vdW  Elec       q    Type
REMARK                         _______ _______ _______ _____ _____    ______ ____
ROOT
ATOM      1  N   UNL     1      -0.064  -4.038  -0.464  0.00  0.00    -0.270 N 
ATOM      2  C   UNL     1      -0.947  -4.520   0.433  0.00  0.00    +0.223 C 
ATOM      3  O   UNL     1      -0.835  -5.655   0.845  0.00  0.00    -0.275 OA
ENDROOT
BRANCH   1   8
ATOM      4  C   UNL     1      -0.788   1.145  -2.654  0.00  0.00    +0.044 C 
ATOM      5  C   UNL     1      -0.595  -0.232  -2.072  0.00  0.00    -0.050 A 
ATOM      6  C   UNL     1      -1.281  -1.308  -2.605  0.00  0.00    +0.005 A 
ATOM      7  C   UNL     1      -1.107  -2.571  -2.074  0.00  0.00    +0.024 A 
ATOM      8  C   UNL     1      -0.242  -2.760  -1.004  0.00  0.00    +0.039 A 
ATOM      9  C   UNL     1       0.446  -1.677  -0.472  0.00  0.00    -0.029 A 
ATOM     10  C   UNL     1       0.271  -0.417  -1.011  0.00  0.00    +0.008 A 
ATOM     11  C   UNL     1       1.385  -1.878   0.689  0.00  0.00    +0.045 C 
ENDBRANCH   1   8
BRANCH   2  12
ATOM     12  C   UNL     1      -2.072  -3.647   0.925  0.00  0.00    +0.076 C 
ATOM     13  C   UNL     1      -1.641  -2.933   2.208  0.00  0.00    +0.013 C 
ATOM     14  C   UNL     1      -2.784  -2.048   2.708  0.00  0.00    +0.001 C 
ATOM     15  C   UNL     1      -4.013  -2.913   2.994  0.00  0.00    +0.000 C 
ATOM     16  C   UNL     1      -4.444  -3.627   1.711  0.00  0.00    +0.001 C 
ATOM     17  C   UNL     1      -3.301  -4.513   1.212  0.00  0.00    +0.013 C 
ENDBRANCH   2  12
BRANCH   1  18
ATOM     18  C   UNL     1       1.083  -4.853  -0.873  0.00  0.00    +0.130 C 
BRANCH  18  19
ATOM     19  C   UNL     1       0.757  -5.568  -2.187  0.00  0.00    +0.116 C 
ATOM     20  C   UNL     1       2.041  -6.180  -2.713  0.00  0.00    -0.003 C 
ATOM     21  C   UNL     1       2.052  -7.528  -2.918  0.00  0.00    -0.007 A 
ATOM     22  C   UNL     1       3.248  -8.200  -3.425  0.00  0.00    +0.010 A 
ATOM     23  C   UNL     1       3.213  -9.545  -3.614  0.00  0.00    +0.004 A 
ATOM     24  C   UNL     1       2.066 -10.288  -3.336  0.00  0.00    -0.049 A 
ATOM     25  C   UNL     1       0.924  -9.724  -2.864  0.00  0.00    +0.027 A 
ATOM     26  C   UNL     1       0.854  -8.338  -2.633  0.00  0.00    +0.041 A 
ATOM     27  N   UNL     1      -0.271  -7.795  -2.169  0.00  0.00    -0.284 N 
ATOM     28  C   UNL     1      -0.404  -6.502  -1.931  0.00  0.00    +0.226 C 
ATOM     29  O   UNL     1      -1.457  -6.064  -1.508  0.00  0.00    -0.275 OA
ATOM     30  C   UNL     1       2.094 -11.777  -3.569  0.00  0.00    +0.044 C 
ATOM     31  H   UNL     1      -1.029  -8.377  -1.999  0.00  0.00    +0.155 HD
ENDBRANCH  18  19
ENDBRANCH   1  18
TORSDOF 4
