REMARK  Name = ZINC36529247
REMARK  11 active torsions:
REMARK  status: ('A' for Active; 'I' for Inactive)
REMARK    1  A    between atoms: C_1  and  C_2
REMARK    2  A    between atoms: C_5  and  S_8
REMARK    3  A    between atoms: S_8  and  C_11
REMARK    4  A    between atoms: C_11  and  N_12
REMARK    5  A    between atoms: C_13  and  C_15
REMARK    6  A    between atoms: C_15  and  C_17
REMARK    7  A    between atoms: C_15  and  N_26
REMARK    8  A    between atoms: C_17  and  C_19
REMARK    9  A    between atoms: C_17  and  C_20
REMARK   10  A    between atoms: N_26  and  C_27
REMARK   11  A    between atoms: C_28  and  C_30
REMARK                            x       y       z     vdW  Elec       q    Type
REMARK                         _______ _______ _______ _____ _____    ______ ____
ROOT
ATOM      1  C   UNL     1       3.314  -4.864   3.803  0.00  0.00    +0.169 C 
ENDROOT
BRANCH   1   3
ATOM      2  N   UNL     1       2.609  -3.895   1.639  0.00  0.00    -0.295 N 
ATOM      3  C   UNL     1       2.650  -4.968   2.454  0.00  0.00    +0.235 C 
ATOM      4  O   UNL     1       2.153  -6.016   2.102  0.00  0.00    -0.274 OA
ATOM      5  H   UNL     1       3.006  -3.056   1.921  0.00  0.00    +0.150 HD
BRANCH   2   6
ATOM      6  C   UNL     1       1.963  -3.996   0.328  0.00  0.00    +0.278 C 
BRANCH   6   7
ATOM      7  S   UNL     1       0.246  -3.424   0.454  0.00  0.00    +0.013 S 
ATOM      8  O   UNL     1      -0.385  -4.015   1.582  0.00  0.00    -0.168 OA
ATOM      9  O   UNL     1      -0.376  -3.456  -0.823  0.00  0.00    -0.168 OA
BRANCH   7  14
ATOM     10  C   UNL     1       0.656   2.439   1.818  0.00  0.00    +0.044 C 
ATOM     11  C   UNL     1       0.554   0.975   1.477  0.00  0.00    -0.050 A 
ATOM     12  C   UNL     1       0.512   0.574   0.155  0.00  0.00    +0.005 A 
ATOM     13  C   UNL     1       0.419  -0.769  -0.158  0.00  0.00    +0.027 A 
ATOM     14  C   UNL     1       0.367  -1.712   0.852  0.00  0.00    +0.090 A 
ATOM     15  C   UNL     1       0.409  -1.311   2.175  0.00  0.00    +0.027 A 
ATOM     16  C   UNL     1       0.507   0.032   2.487  0.00  0.00    +0.005 A 
ENDBRANCH   7  14
ENDBRANCH   6   7
ENDBRANCH   2   6
ENDBRANCH   1   3
BRANCH   1  17
ATOM     17  N   UNL     1       2.834  -5.944   4.668  0.00  0.00    -0.286 N 
ATOM     18  C   UNL     1       2.147  -5.627   5.923  0.00  0.00    +0.133 C 
ATOM     19  C   UNL     1       3.024  -7.229   4.310  0.00  0.00    +0.282 C 
ATOM     20  O   UNL     1       3.679  -7.494   3.320  0.00  0.00    -0.267 OA
BRANCH  19  21
ATOM     21  C   UNL     1       2.440  -8.309   5.113  0.00  0.00    +0.189 A 
ATOM     22  C   UNL     1       2.651  -9.646   4.935  0.00  0.00    +0.054 A 
ATOM     23  C   UNL     1       1.902 -10.307   5.920  0.00  0.00    +0.042 A 
ATOM     24  C   UNL     1       1.274  -9.357   6.648  0.00  0.00    +0.196 A 
ATOM     25  O   UNL     1       1.605  -8.154   6.162  0.00  0.00    -0.458 OA
ENDBRANCH  19  21
ENDBRANCH   1  17
BRANCH   1  26
ATOM     26  C   UNL     1       4.830  -4.981   3.635  0.00  0.00    +0.045 C 
ATOM     27  C   UNL     1       5.332  -3.852   2.732  0.00  0.00    +0.015 C 
BRANCH  26  28
ATOM     28  C   UNL     1       5.495  -4.877   4.984  0.00  0.00    -0.042 A 
ATOM     29  C   UNL     1       5.326  -3.740   5.752  0.00  0.00    +0.004 A 
ATOM     30  C   UNL     1       5.935  -3.645   6.989  0.00  0.00    +0.000 A 
ATOM     31  C   UNL     1       6.713  -4.687   7.459  0.00  0.00    +0.000 A 
ATOM     32  C   UNL     1       6.881  -5.824   6.691  0.00  0.00    +0.000 A 
ATOM     33  C   UNL     1       6.268  -5.921   5.455  0.00  0.00    +0.004 A 
ENDBRANCH  26  28
ENDBRANCH   1  26
TORSDOF 8
