REMARK  Name = ZINC36749167
REMARK  5 active torsions:
REMARK  status: ('A' for Active; 'I' for Inactive)
REMARK    1  A    between atoms: C_1  and  C_2
REMARK    2  A    between atoms: C_3  and  N_20
REMARK    3  A    between atoms: C_4  and  N_8
REMARK    4  A    between atoms: N_5  and  C_7
REMARK    5  A    between atoms: N_8  and  C_9
REMARK                            x       y       z     vdW  Elec       q    Type
REMARK                         _______ _______ _______ _____ _____    ______ ____
ROOT
ATOM      1  N   UNL     1      -0.270  -3.191  -1.511  0.00  0.00    -0.298 N 
ATOM      2  H   UNL     1      -0.213  -3.113  -2.476  0.00  0.00    +0.154 HD
ENDROOT
BRANCH   1   3
ATOM      3  C   UNL     1      -0.486  -4.441  -0.921  0.00  0.00    +0.036 A 
ATOM      4  C   UNL     1      -0.446  -4.573   0.461  0.00  0.00    +0.027 A 
ATOM      5  C   UNL     1      -0.661  -5.807   1.045  0.00  0.00    +0.051 A 
ATOM      6  C   UNL     1      -0.915  -6.915   0.254  0.00  0.00    +0.173 A 
ATOM      7  C   UNL     1      -0.956  -6.786  -1.133  0.00  0.00    +0.174 A 
ATOM      8  C   UNL     1      -0.747  -5.548  -1.717  0.00  0.00    +0.073 A 
ATOM      9  O   UNL     1      -1.222  -8.009  -1.677  0.00  0.00    -0.395 OA
ATOM     10  C   UNL     1      -0.938  -8.964  -0.637  0.00  0.00    +0.589 C 
ATOM     11  O   UNL     1      -1.156  -8.221   0.577  0.00  0.00    -0.395 OA
ATOM     12  F   UNL     1      -1.817 -10.050  -0.713  0.00  0.00    -0.125 F 
ATOM     13  F   UNL     1       0.390  -9.398  -0.716  0.00  0.00    -0.125 F 
ENDBRANCH   1   3
BRANCH   1  17
ATOM     14  C   UNL     1       1.703   0.424   1.319  0.00  0.00    +0.069 C 
ATOM     15  C   UNL     1       0.718  -0.426   0.558  0.00  0.00    +0.082 A 
ATOM     16  C   UNL     1       1.026  -1.579  -0.172  0.00  0.00    +0.088 A 
ATOM     17  C   UNL     1      -0.134  -2.054  -0.710  0.00  0.00    +0.142 A 
ATOM     18  N   UNL     1      -1.135  -1.217  -0.323  0.00  0.00    -0.252 N 
ATOM     19  N   UNL     1      -0.571  -0.213   0.473  0.00  0.00    -0.173 NA
ATOM     20  C   UNL     1      -2.552  -1.347  -0.673  0.00  0.00    +0.174 C 
BRANCH  16  21
ATOM     21  N   UNL     1       2.310  -2.150  -0.325  0.00  0.00    -0.354 N 
ATOM     22  H   UNL     1       3.090  -1.692   0.025  0.00  0.00    +0.142 HD
ATOM     23  H   UNL     1       2.412  -3.000  -0.781  0.00  0.00    +0.142 HD
ENDBRANCH  16  21
ENDBRANCH   1  17
TORSDOF 3
