REMARK  Name = ZINC39324912
REMARK  10 active torsions:
REMARK  status: ('A' for Active; 'I' for Inactive)
REMARK    1  A    between atoms: C_1  and  C_2
REMARK    2  A    between atoms: C_7  and  C_14
REMARK    3  A    between atoms: C_14  and  N_15
REMARK    4  A    between atoms: N_15  and  C_16
REMARK    5  A    between atoms: N_15  and  S_24
REMARK    6  A    between atoms: C_16  and  C_17
REMARK    7  A    between atoms: S_24  and  C_27
REMARK    8  A    between atoms: C_28  and  C_35
REMARK    9  A    between atoms: C_30  and  C_34
REMARK   10  A    between atoms: C_32  and  C_33
REMARK                            x       y       z     vdW  Elec       q    Type
REMARK                         _______ _______ _______ _____ _____    ______ ____
ROOT
ATOM      1  N   UNL     1      -0.780  -6.463   1.994  0.00  0.00    -0.171 NA
ENDROOT
BRANCH   1   2
ATOM      2  S   UNL     1       0.030  -7.906   1.958  0.00  0.00    +0.062 S 
ATOM      3  O   UNL     1      -0.548  -8.722   2.967  0.00  0.00    -0.153 OA
ATOM      4  O   UNL     1       0.087  -8.306   0.595  0.00  0.00    -0.153 OA
BRANCH   2   5
ATOM      5  C   UNL     1       1.689  -7.585   2.459  0.00  0.00    +0.111 A 
ATOM      6  C   UNL     1       2.011  -7.551   3.803  0.00  0.00    -0.024 A 
ATOM      7  C   UNL     1       3.312  -7.299   4.196  0.00  0.00    +0.008 A 
ATOM      8  C   UNL     1       4.291  -7.082   3.244  0.00  0.00    -0.050 A 
ATOM      9  C   UNL     1       3.970  -7.118   1.901  0.00  0.00    +0.008 A 
ATOM     10  C   UNL     1       2.669  -7.373   1.508  0.00  0.00    -0.024 A 
ATOM     11  C   UNL     1       2.319  -7.417   0.042  0.00  0.00    +0.046 C 
ATOM     12  C   UNL     1       5.710  -6.807   3.673  0.00  0.00    +0.044 C 
ATOM     13  C   UNL     1       0.943  -7.788   4.839  0.00  0.00    +0.046 C 
ENDBRANCH   2   5
ENDBRANCH   1   2
BRANCH   1  14
ATOM     14  C   UNL     1      -0.554  -5.469   0.942  0.00  0.00    +0.126 C 
BRANCH  14  21
ATOM     15  C   UNL     1       0.356   1.909   1.919  0.00  0.00    +0.044 C 
ATOM     16  C   UNL     1       0.460   0.466   1.495  0.00  0.00    -0.049 A 
ATOM     17  C   UNL     1       0.683   0.179   0.148  0.00  0.00    +0.004 A 
ATOM     18  C   UNL     1       0.785  -1.101  -0.295  0.00  0.00    +0.010 A 
ATOM     19  C   UNL     1       0.658  -2.194   0.670  0.00  0.00    -0.007 A 
ATOM     20  C   UNL     1       0.755  -3.494   0.272  0.00  0.00    -0.003 C 
ATOM     21  C   UNL     1       0.611  -4.561   1.340  0.00  0.00    +0.114 C 
ATOM     22  C   UNL     1       0.372  -4.096   2.759  0.00  0.00    +0.225 C 
ATOM     23  O   UNL     1       0.249  -4.909   3.655  0.00  0.00    -0.275 OA
ATOM     24  N   UNL     1       0.297  -2.802   3.022  0.00  0.00    -0.284 N 
ATOM     25  C   UNL     1       0.423  -1.861   2.086  0.00  0.00    +0.041 A 
ATOM     26  C   UNL     1       0.338  -0.502   2.440  0.00  0.00    +0.027 A 
ATOM     27  H   UNL     1       0.144  -2.525   3.938  0.00  0.00    +0.155 HD
ENDBRANCH  14  21
ENDBRANCH   1  14
BRANCH   1  28
ATOM     28  C   UNL     1      -1.723  -6.179   3.079  0.00  0.00    +0.144 C 
BRANCH  28  29
ATOM     29  C   UNL     1      -3.114  -6.571   2.651  0.00  0.00    -0.031 A 
ATOM     30  C   UNL     1      -3.924  -5.652   2.010  0.00  0.00    +0.008 A 
ATOM     31  C   UNL     1      -5.199  -6.010   1.617  0.00  0.00    +0.038 A 
ATOM     32  C   UNL     1      -5.666  -7.289   1.864  0.00  0.00    +0.123 A 
ATOM     33  C   UNL     1      -4.854  -8.209   2.506  0.00  0.00    +0.038 A 
ATOM     34  C   UNL     1      -3.577  -7.850   2.894  0.00  0.00    +0.008 A 
ATOM     35  F   UNL     1      -6.913  -7.640   1.480  0.00  0.00    -0.205 F 
ENDBRANCH  28  29
ENDBRANCH   1  28
TORSDOF 6
