REMARK  Name = ZINC63467789
REMARK  11 active torsions:
REMARK  status: ('A' for Active; 'I' for Inactive)
REMARK    1  A    between atoms: C_1  and  C_2
REMARK    2  A    between atoms: C_7  and  C_8
REMARK    3  A    between atoms: C_8  and  S_9
REMARK    4  A    between atoms: S_9  and  C_10
REMARK    5  A    between atoms: C_16  and  C_30
REMARK    6  A    between atoms: C_21  and  C_25
REMARK    7  A    between atoms: C_21  and  C_26
REMARK    8  A    between atoms: C_33  and  O_38
REMARK    9  A    between atoms: C_34  and  O_36
REMARK   10  A    between atoms: O_36  and  C_37
REMARK   11  A    between atoms: O_38  and  C_39
REMARK                            x       y       z     vdW  Elec       q    Type
REMARK                         _______ _______ _______ _____ _____    ______ ____
ROOT
ATOM      1  C   UNL     1      -1.513   1.192   4.568  0.00  0.00    +0.182 C 
ATOM      2  N   UNL     1      -0.293   1.474   5.011  0.00  0.00    -0.154 NA
ATOM      3  C   UNL     1      -0.097   2.045   6.190  0.00  0.00    +0.250 C 
ATOM      4  O   UNL     1       1.033   2.330   6.535  0.00  0.00    -0.273 OA
ATOM      5  C   UNL     1      -1.244   2.343   7.103  0.00  0.00    +0.156 C 
ATOM      6  C   UNL     1      -1.179   3.763   7.656  0.00  0.00    +0.074 C 
ATOM      7  C   UNL     1      -2.463   4.035   8.412  0.00  0.00    +0.025 C 
ATOM      8  C   UNL     1      -3.655   3.452   7.972  0.00  0.00    +0.051 C 
ATOM      9  C   UNL     1      -4.951   3.747   8.691  0.00  0.00    +0.062 C 
ATOM     10  C   UNL     1      -4.656   3.996  10.173  0.00  0.00    -0.023 C 
ATOM     11  C   UNL     1      -3.665   5.158  10.288  0.00  0.00    +0.086 C 
ATOM     12  C   UNL     1      -2.425   4.838   9.499  0.00  0.00    +0.162 C 
ATOM     13  O   UNL     1      -1.248   5.363   9.885  0.00  0.00    -0.292 OA
ATOM     14  C   UNL     1      -5.953   4.354  10.901  0.00  0.00    +0.011 C 
ATOM     15  C   UNL     1      -4.046   2.738  10.794  0.00  0.00    +0.011 C 
ATOM     16  N   UNL     1      -3.672   2.619   6.949  0.00  0.00    -0.236 NA
ATOM     17  C   UNL     1      -2.560   2.145   6.404  0.00  0.00    +0.145 C 
ATOM     18  N   UNL     1      -2.613   1.549   5.230  0.00  0.00    -0.208 NA
ENDROOT
BRANCH   6  19
ATOM     19  C   UNL     1      -1.038   4.745   6.521  0.00  0.00    -0.035 A 
ATOM     20  C   UNL     1      -2.016   4.818   5.547  0.00  0.00    +0.008 A 
ATOM     21  C   UNL     1      -1.891   5.716   4.504  0.00  0.00    +0.050 A 
ATOM     22  C   UNL     1      -0.784   6.547   4.433  0.00  0.00    +0.162 A 
ATOM     23  C   UNL     1       0.200   6.473   5.414  0.00  0.00    +0.162 A 
ATOM     24  C   UNL     1       0.067   5.574   6.459  0.00  0.00    +0.053 A 
BRANCH  23  25
ATOM     25  O   UNL     1       1.288   7.286   5.349  0.00  0.00    -0.491 OA
ATOM     26  C   UNL     1       2.258   7.156   6.390  0.00  0.00    +0.277 C 
ENDBRANCH  23  25
BRANCH  22  27
ATOM     27  O   UNL     1      -0.660   7.431   3.408  0.00  0.00    -0.491 OA
ATOM     28  C   UNL     1      -1.709   7.451   2.437  0.00  0.00    +0.277 C 
ENDBRANCH  22  27
ENDBRANCH   6  19
BRANCH   1  29
ATOM     29  S   UNL     1      -1.684   0.321   3.046  0.00  0.00    -0.084 S 
BRANCH  29  30
ATOM     30  C   UNL     1       0.025   0.045   2.504  0.00  0.00    +0.112 C 
BRANCH  30  37
ATOM     31  C   UNL     1      -0.018   1.503   0.010  0.00  0.00    +0.044 C 
ATOM     32  C   UNL     1       0.002  -0.004   0.002  0.00  0.00    -0.046 A 
ATOM     33  C   UNL     1       0.006  -0.689  -1.199  0.00  0.00    +0.003 A 
ATOM     34  C   UNL     1       0.025  -2.071  -1.207  0.00  0.00    +0.000 A 
ATOM     35  C   UNL     1       0.040  -2.768  -0.013  0.00  0.00    +0.000 A 
ATOM     36  C   UNL     1       0.037  -2.084   1.188  0.00  0.00    +0.005 A 
ATOM     37  C   UNL     1       0.023  -0.702   1.195  0.00  0.00    -0.034 A 
ENDBRANCH  30  37
ENDBRANCH  29  30
ENDBRANCH   1  29
TORSDOF 6
