REMARK  Name = ZINC12220823
REMARK  5 active torsions:
REMARK  status: ('A' for Active; 'I' for Inactive)
REMARK    1  A    between atoms: C_1  and  C_2
REMARK    2  A    between atoms: C_2  and  C_4
REMARK    3  A    between atoms: C_2  and  C_10
REMARK    4  A    between atoms: C_4  and  C_5
REMARK    5  A    between atoms: N_24  and  C_25
REMARK                            x       y       z     vdW  Elec       q    Type
REMARK                         _______ _______ _______ _____ _____    ______ ____
ROOT
ATOM      1  C   UNL     1      -0.648   3.499   1.340  0.00  0.00    +0.222 C 
ATOM      2  O   UNL     1      -0.070   4.115   0.469  0.00  0.00    -0.275 OA
ATOM      3  N   UNL     1      -1.212   4.159   2.371  0.00  0.00    -0.264 N 
ATOM      4  C   UNL     1      -1.133   5.545   2.436  0.00  0.00    +0.165 A 
ATOM      5  N   UNL     1      -0.554   6.379   1.594  0.00  0.00    -0.224 NA
ATOM      6  C   UNL     1      -0.557   7.688   1.795  0.00  0.00    +0.087 A 
ATOM      7  C   UNL     1      -1.212   8.131   2.927  0.00  0.00    +0.019 A 
ATOM      8  S   UNL     1      -1.777   6.617   3.644  0.00  0.00    -0.056 S 
ATOM      9  C   UNL     1      -1.372   9.543   3.358  0.00  0.00    +0.051 C 
ATOM     10  C   UNL     1      -0.201  10.408   2.878  0.00  0.00    +0.061 C 
ATOM     11  C   UNL     1       0.210  10.027   1.482  0.00  0.00    +0.048 A 
ATOM     12  C   UNL     1       0.074   8.759   0.964  0.00  0.00    +0.042 A 
ATOM     13  C   UNL     1       0.590   8.748  -0.324  0.00  0.00    +0.144 A 
ATOM     14  N   UNL     1       1.011   9.963  -0.594  0.00  0.00    -0.179 NA
ATOM     15  N   UNL     1       0.775  10.778   0.524  0.00  0.00    -0.271 N 
ATOM     16  C   UNL     1       1.091  12.205   0.628  0.00  0.00    +0.172 C 
ATOM     17  H   UNL     1      -1.674   3.666   3.067  0.00  0.00    +0.157 HD
ENDROOT
BRANCH   1  19
ATOM     18  C   UNL     1      -2.204   1.572   1.220  0.00  0.00    +0.017 C 
ATOM     19  C   UNL     1      -0.735   1.996   1.269  0.00  0.00    +0.077 C 
BRANCH  19  20
ATOM     20  C   UNL     1      -0.018   1.503   0.010  0.00  0.00    +0.055 C 
BRANCH  20  21
ATOM     21  C   UNL     1       0.002  -0.004   0.002  0.00  0.00    -0.009 A 
ATOM     22  C   UNL     1      -0.906  -0.867  -0.516  0.00  0.00    +0.011 A 
ATOM     23  C   UNL     1      -0.675  -2.226  -0.409  0.00  0.00    +0.008 A 
ATOM     24  C   UNL     1       0.446  -2.655   0.219  0.00  0.00    +0.045 A 
ATOM     25  S   UNL     1       1.224  -1.116   0.678  0.00  0.00    -0.102 S 
ENDBRANCH  20  21
ENDBRANCH  19  20
ENDBRANCH   1  19
TORSDOF 3
