REMARK  Name = ZINC23485184
REMARK  5 active torsions:
REMARK  status: ('A' for Active; 'I' for Inactive)
REMARK    1  A    between atoms: C_1  and  C_2
REMARK    2  A    between atoms: C_9  and  C_21
REMARK    3  A    between atoms: N_11  and  N_12
REMARK    4  A    between atoms: N_12  and  C_13
REMARK    5  A    between atoms: N_23  and  C_24
REMARK                            x       y       z     vdW  Elec       q    Type
REMARK                         _______ _______ _______ _____ _____    ______ ____
ROOT
ATOM      1  C   UNL     1       9.973   5.717   3.193  0.00  0.00    +0.044 C 
ATOM      2  C   UNL     1       8.877   5.144   2.332  0.00  0.00    -0.050 A 
ATOM      3  C   UNL     1       8.873   3.791   2.031  0.00  0.00    +0.007 A 
ATOM      4  C   UNL     1       7.876   3.249   1.241  0.00  0.00    +0.047 A 
ATOM      5  C   UNL     1       6.870   4.060   0.744  0.00  0.00    +0.137 A 
ATOM      6  C   UNL     1       6.868   5.432   1.049  0.00  0.00    +0.018 A 
ATOM      7  C   UNL     1       7.883   5.968   1.848  0.00  0.00    +0.015 A 
ATOM      8  C   UNL     1       5.796   6.287   0.526  0.00  0.00    +0.030 A 
ATOM      9  C   UNL     1       4.694   5.668  -0.019  0.00  0.00    +0.098 A 
ATOM     10  C   UNL     1       4.685   4.187  -0.021  0.00  0.00    +0.224 A 
ATOM     11  N   UNL     1       3.563   3.522  -0.013  0.00  0.00    -0.276 N 
ATOM     12  O   UNL     1       5.886   3.542  -0.035  0.00  0.00    -0.437 OA
ATOM     13  H   UNL     1       2.604   4.060  -0.001  0.00  0.00    +0.187 HD
ENDROOT
BRANCH   9  14
ATOM     14  C   UNL     1       3.570   6.442  -0.573  0.00  0.00    +0.249 C 
ATOM     15  O   UNL     1       3.604   7.658  -0.558  0.00  0.00    -0.270 OA
ATOM     16  N   UNL     1       2.504   5.804  -1.096  0.00  0.00    -0.308 N 
ATOM     17  H   UNL     1       2.474   4.705  -1.109  0.00  0.00    +0.149 HD
BRANCH  16  18
ATOM     18  C   UNL     1       1.387   6.574  -1.647  0.00  0.00    +0.073 C 
ATOM     19  C   UNL     1       0.423   6.952  -0.520  0.00  0.00    +0.022 C 
ATOM     20  C   UNL     1      -0.744   7.757  -1.095  0.00  0.00    +0.002 C 
ATOM     21  C   UNL     1      -1.482   6.912  -2.136  0.00  0.00    +0.000 C 
ATOM     22  C   UNL     1      -0.518   6.534  -3.263  0.00  0.00    +0.002 C 
ATOM     23  C   UNL     1       0.649   5.730  -2.687  0.00  0.00    +0.022 C 
ENDBRANCH  16  18
ENDBRANCH   9  14
BRANCH  11  24
ATOM     24  N   UNL     1       3.580   2.121  -0.021  0.00  0.00    -0.258 N 
ATOM     25  H   UNL     1       4.539   1.582  -0.033  0.00  0.00    +0.172 HD
BRANCH  24  26
ATOM     26  C   UNL     1       2.382   1.409  -0.013  0.00  0.00    +0.046 A 
ATOM     27  C   UNL     1       1.168   2.088   0.002  0.00  0.00    +0.026 A 
ATOM     28  C   UNL     1      -0.017   1.380   0.010  0.00  0.00    +0.017 A 
ATOM     29  C   UNL     1       0.002  -0.004   0.002  0.00  0.00    +0.018 A 
ATOM     30  C   UNL     1       1.208  -0.683  -0.013  0.00  0.00    +0.017 A 
ATOM     31  C   UNL     1       2.397   0.019  -0.021  0.00  0.00    +0.026 A 
ATOM     32 BR   UNL     1      -1.624  -0.970   0.013  0.00  0.00    -0.050 Br
ENDBRANCH  24  26
ENDBRANCH  11  24
TORSDOF 4
