REMARK  Name = ZINC16024537
REMARK  6 active torsions:
REMARK  status: ('A' for Active; 'I' for Inactive)
REMARK    1  A    between atoms: C_1  and  C_2
REMARK    2  A    between atoms: C_2  and  C_3
REMARK    3  A    between atoms: C_2  and  C_4
REMARK    4  A    between atoms: N_12  and  C_15
REMARK    5  A    between atoms: C_15  and  C_16
REMARK    6  A    between atoms: C_16  and  C_17
REMARK                            x       y       z     vdW  Elec       q    Type
REMARK                         _______ _______ _______ _____ _____    ______ ____
ROOT
ATOM      1  C   UNL     1      -1.425  -0.556   0.008  0.00  0.00    +0.070 C 
ATOM      2  C   UNL     1      -1.406  -2.091   0.163  0.00  0.00    +0.107 C 
ATOM      3  C   UNL     1      -2.619  -2.416   1.078  0.00  0.00    +0.122 C 
ATOM      4  C   UNL     1      -1.974  -2.975   2.326  0.00  0.00    +0.228 C 
ATOM      5  O   UNL     1      -2.569  -3.367   3.307  0.00  0.00    -0.275 OA
ATOM      6  N   UNL     1      -0.644  -2.972   2.179  0.00  0.00    -0.241 N 
ATOM      7  C   UNL     1      -0.207  -2.495   0.991  0.00  0.00    +0.227 C 
ATOM      8  O   UNL     1       0.949  -2.402   0.640  0.00  0.00    -0.275 OA
ATOM      9  C   UNL     1      -3.252  -1.051   1.377  0.00  0.00    +0.136 C 
ATOM     10  N   UNL     1      -2.167  -0.059   1.197  0.00  0.00    -0.295 NA
ATOM     11  C   UNL     1      -4.426  -0.780   0.479  0.00  0.00    +0.004 A 
ATOM     12  C   UNL     1      -4.575  -0.695  -0.888  0.00  0.00    +0.023 A 
ATOM     13  C   UNL     1      -5.818  -0.426  -1.434  0.00  0.00    +0.018 A 
ATOM     14  C   UNL     1      -6.910  -0.245  -0.603  0.00  0.00    +0.017 A 
ATOM     15  C   UNL     1      -6.765  -0.330   0.766  0.00  0.00    +0.025 A 
ATOM     16  C   UNL     1      -5.517  -0.598   1.323  0.00  0.00    +0.039 A 
ATOM     17  N   UNL     1      -5.122  -0.730   2.657  0.00  0.00    -0.283 N 
ATOM     18  C   UNL     1      -3.807  -0.995   2.773  0.00  0.00    +0.243 C 
ATOM     19  O   UNL     1      -3.189  -1.156   3.805  0.00  0.00    -0.273 OA
ATOM     20 BR   UNL     1      -6.024  -0.308  -3.310  0.00  0.00    -0.050 Br
ATOM     21  H   UNL     1      -1.566  -0.017   2.007  0.00  0.00    +0.124 HD
ATOM     22  H   UNL     1      -5.725  -0.640   3.412  0.00  0.00    +0.155 HD
ENDROOT
BRANCH   1  24
ATOM     23  C   UNL     1       0.705  -0.422  -1.291  0.00  0.00    +0.009 C 
ATOM     24  C   UNL     1       0.002  -0.004   0.002  0.00  0.00    +0.001 C 
ATOM     25  C   UNL     1      -0.041   1.523   0.088  0.00  0.00    +0.009 C 
ENDBRANCH   1  24
BRANCH   6  26
ATOM     26  C   UNL     1       0.269  -3.450   3.220  0.00  0.00    +0.121 C 
BRANCH  26  27
ATOM     27  C   UNL     1       0.529  -4.945   3.021  0.00  0.00    +0.054 C 
BRANCH  27  28
ATOM     28  C   UNL     1       1.468  -5.438   4.092  0.00  0.00    -0.046 A 
ATOM     29  C   UNL     1       2.834  -5.403   3.882  0.00  0.00    +0.004 A 
ATOM     30  C   UNL     1       3.696  -5.855   4.864  0.00  0.00    +0.000 A 
ATOM     31  C   UNL     1       3.192  -6.341   6.055  0.00  0.00    +0.000 A 
ATOM     32  C   UNL     1       1.826  -6.375   6.266  0.00  0.00    +0.000 A 
ATOM     33  C   UNL     1       0.965  -5.920   5.285  0.00  0.00    +0.004 A 
ENDBRANCH  27  28
ENDBRANCH  26  27
ENDBRANCH   6  26
TORSDOF 4
