REMARK  Name = ZINC38595972
REMARK  13 active torsions:
REMARK  status: ('A' for Active; 'I' for Inactive)
REMARK    1  A    between atoms: C_1  and  C_2
REMARK    2  A    between atoms: C_2  and  C_4
REMARK    3  A    between atoms: C_2  and  N_24
REMARK    4  A    between atoms: C_4  and  C_6
REMARK    5  A    between atoms: C_4  and  N_11
REMARK    6  A    between atoms: N_14  and  C_17
REMARK    7  A    between atoms: C_17  and  C_18
REMARK    8  A    between atoms: C_25  and  C_27
REMARK    9  A    between atoms: C_27  and  C_28
REMARK   10  A    between atoms: C_31  and  S_34
REMARK   11  A    between atoms: S_34  and  C_35
REMARK   12  A    between atoms: C_35  and  C_36
REMARK   13  A    between atoms: C_35  and  C_37
REMARK                            x       y       z     vdW  Elec       q    Type
REMARK                         _______ _______ _______ _____ _____    ______ ____
ROOT
ATOM      1  C   UNL     1       1.282   1.520   1.627  0.00  0.00    +0.113 C 
ENDROOT
BRANCH   1   2
ATOM      2  N   UNL     1       1.157   2.195   2.926  0.00  0.00    -0.297 NA
ATOM      3  C   UNL     1       2.260   1.821   3.823  0.00  0.00    +0.066 C 
ATOM      4  C   UNL     1       2.126   2.589   5.140  0.00  0.00    -0.063 C 
ATOM      5  N   UNL     1       0.835   2.268   5.764  0.00  0.00    +0.384 N 
ATOM      6  C   UNL     1      -0.257   2.669   4.868  0.00  0.00    -0.063 C 
ATOM      7  C   UNL     1      -0.143   1.902   3.548  0.00  0.00    +0.066 C 
ATOM      8  H   UNL     1       0.782   1.275   5.935  0.00  0.00    -0.081 HD
BRANCH   5   9
ATOM      9  C   UNL     1       0.714   2.991   7.037  0.00  0.00    -0.043 C 
BRANCH   9  10
ATOM     10  C   UNL     1      -0.552   2.569   7.736  0.00  0.00    -0.064 A 
ATOM     11  C   UNL     1      -1.733   3.248   7.498  0.00  0.00    +0.002 A 
ATOM     12  C   UNL     1      -2.894   2.861   8.139  0.00  0.00    +0.000 A 
ATOM     13  C   UNL     1      -2.876   1.794   9.018  0.00  0.00    +0.000 A 
ATOM     14  C   UNL     1      -1.696   1.115   9.255  0.00  0.00    +0.000 A 
ATOM     15  C   UNL     1      -0.535   1.499   8.611  0.00  0.00    +0.002 A 
ENDBRANCH   9  10
ENDBRANCH   5   9
ENDBRANCH   1   2
BRANCH   1  16
ATOM     16  C   UNL     1       2.637   1.815   1.038  0.00  0.00    +0.009 A 
ATOM     17  C   UNL     1       3.486   0.979   0.390  0.00  0.00    +0.013 A 
ATOM     18  C   UNL     1       4.691   1.474  -0.072  0.00  0.00    +0.008 A 
ATOM     19  C   UNL     1       4.989   2.780   0.137  0.00  0.00    +0.045 A 
ATOM     20  S   UNL     1       3.538   3.356   1.004  0.00  0.00    -0.100 S 
ENDBRANCH   1  16
BRANCH   1  22
ATOM     21  C   UNL     1       0.284   3.552   0.570  0.00  0.00    +0.030 C 
ATOM     22  C   UNL     1       0.193   2.029   0.681  0.00  0.00    +0.092 C 
BRANCH  22  23
ATOM     23  N   UNL     1       0.377   1.430  -0.643  0.00  0.00    -0.311 N 
ATOM     24  C   UNL     1      -0.673   1.303  -1.478  0.00  0.00    +0.218 C 
ATOM     25  O   UNL     1      -1.772   1.684  -1.132  0.00  0.00    -0.275 OA
ATOM     26  H   UNL     1       1.256   1.125  -0.919  0.00  0.00    +0.149 HD
BRANCH  24  27
ATOM     27  C   UNL     1      -0.483   0.687  -2.840  0.00  0.00    +0.130 C 
BRANCH  27  28
ATOM     28  C   UNL     1      -1.802   0.662  -3.568  0.00  0.00    -0.039 A 
ATOM     29  C   UNL     1      -2.641  -0.430  -3.440  0.00  0.00    +0.005 A 
ATOM     30  C   UNL     1      -3.850  -0.457  -4.106  0.00  0.00    +0.015 A 
ATOM     31  C   UNL     1      -4.224   0.616  -4.906  0.00  0.00    +0.008 A 
ATOM     32  C   UNL     1      -3.379   1.712  -5.033  0.00  0.00    +0.015 A 
ATOM     33  C   UNL     1      -2.174   1.734  -4.359  0.00  0.00    +0.005 A 
BRANCH  31  34
ATOM     34  S   UNL     1      -5.765   0.587  -5.759  0.00  0.00    -0.122 S 
BRANCH  34  35
ATOM     35  C   UNL     1      -6.959   1.181  -4.529  0.00  0.00    +0.045 C 
ATOM     36  C   UNL     1      -6.689   2.656  -4.227  0.00  0.00    +0.019 C 
ATOM     37  C   UNL     1      -8.378   1.024  -5.078  0.00  0.00    +0.019 C 
ENDBRANCH  34  35
ENDBRANCH  31  34
ENDBRANCH  27  28
ENDBRANCH  24  27
ENDBRANCH  22  23
ENDBRANCH   1  22
TORSDOF 10
