REMARK  Name = ZINC64055446
REMARK  13 active torsions:
REMARK  status: ('A' for Active; 'I' for Inactive)
REMARK    1  A    between atoms: C_1  and  C_2
REMARK    2  A    between atoms: C_2  and  C_3
REMARK    3  A    between atoms: C_3  and  C_4
REMARK    4  A    between atoms: C_4  and  C_5
REMARK    5  A    between atoms: C_5  and  C_6
REMARK    6  A    between atoms: C_6  and  N_7
REMARK    7  A    between atoms: C_8  and  S_22
REMARK    8  A    between atoms: C_12  and  C_13
REMARK    9  A    between atoms: S_22  and  C_23
REMARK   10  A    between atoms: C_23  and  C_25
REMARK   11  A    between atoms: C_23  and  C_26
REMARK   12  A    between atoms: N_31  and  C_32
REMARK   13  A    between atoms: C_32  and  C_33
REMARK                            x       y       z     vdW  Elec       q    Type
REMARK                         _______ _______ _______ _____ _____    ______ ____
ROOT
ATOM      1  N   UNL     1      -4.202  -4.630   0.017  0.00  0.00    -0.286 N 
ATOM      2  C   UNL     1      -5.018  -4.935   1.204  0.00  0.00    +0.237 C 
ATOM      3  N   UNL     1      -6.299  -5.405   0.651  0.00  0.00    -0.237 N 
ATOM      4  N   UNL     1      -6.174  -5.354  -0.742  0.00  0.00    -0.169 NA
ATOM      5  C   UNL     1      -4.996  -4.913  -1.097  0.00  0.00    +0.147 C 
ATOM      6  H   UNL     1      -7.077  -5.694   1.154  0.00  0.00    +0.171 HD
ENDROOT
BRANCH   5   7
ATOM      7  C   UNL     1      -4.581  -4.747  -2.427  0.00  0.00    +0.022 C 
ATOM      8  C   UNL     1      -5.323  -5.004  -3.581  0.00  0.00    +0.006 A 
ATOM      9  C   UNL     1      -6.636  -5.479  -3.783  0.00  0.00    +0.010 A 
ATOM     10  C   UNL     1      -7.108  -5.637  -5.046  0.00  0.00    +0.001 A 
ATOM     11  C   UNL     1      -6.324  -5.339  -6.163  0.00  0.00    +0.002 A 
ATOM     12  C   UNL     1      -5.054  -4.879  -6.042  0.00  0.00    +0.026 A 
ATOM     13  C   UNL     1      -4.492  -4.689  -4.754  0.00  0.00    +0.043 A 
ATOM     14  N   UNL     1      -3.303  -4.261  -4.375  0.00  0.00    -0.380 N 
ATOM     15  C   UNL     1      -3.238  -4.247  -2.910  0.00  0.00    +0.152 C 
ATOM     16  H   UNL     1      -2.586  -3.994  -4.972  0.00  0.00    +0.160 HD
ENDBRANCH   5   7
BRANCH   1  17
ATOM     17  C   UNL     1      -2.827  -4.123   0.007  0.00  0.00    +0.109 C 
BRANCH  17  18
ATOM     18  C   UNL     1      -2.848  -2.593   0.015  0.00  0.00    +0.019 C 
BRANCH  18  19
ATOM     19  C   UNL     1      -1.413  -2.063   0.004  0.00  0.00    +0.002 C 
BRANCH  19  20
ATOM     20  C   UNL     1      -1.433  -0.534   0.013  0.00  0.00    -0.000 C 
BRANCH  20  22
ATOM     21  C   UNL     1      -0.019   1.526   0.010  0.00  0.00    +0.004 C 
ATOM     22  C   UNL     1       0.002  -0.004   0.002  0.00  0.00    -0.003 C 
ENDBRANCH  20  22
ENDBRANCH  19  20
ENDBRANCH  18  19
ENDBRANCH  17  18
ENDBRANCH   1  17
BRANCH   2  23
ATOM     23  S   UNL     1      -4.235  -6.237   2.195  0.00  0.00    -0.106 S 
BRANCH  23  24
ATOM     24  C   UNL     1      -4.140  -7.652   1.063  0.00  0.00    +0.133 C 
ATOM     25  C   UNL     1      -5.553  -8.119   0.710  0.00  0.00    +0.029 C 
BRANCH  24  26
ATOM     26  C   UNL     1      -3.391  -8.778   1.729  0.00  0.00    +0.233 C 
ATOM     27  O   UNL     1      -3.357  -8.852   2.939  0.00  0.00    -0.274 OA
ATOM     28  N   UNL     1      -2.759  -9.703   0.980  0.00  0.00    -0.239 N 
ATOM     29  C   UNL     1      -2.089 -10.710   1.575  0.00  0.00    +0.306 C 
ATOM     30  O   UNL     1      -2.055 -10.784   2.788  0.00  0.00    -0.252 OA
ATOM     31  N   UNL     1      -1.457 -11.634   0.825  0.00  0.00    -0.299 N 
ATOM     32  H   UNL     1      -2.786  -9.644   0.012  0.00  0.00    +0.159 HD
ATOM     33  H   UNL     1      -1.484 -11.576  -0.142  0.00  0.00    +0.150 HD
BRANCH  31  34
ATOM     34  C   UNL     1      -0.729 -12.729   1.472  0.00  0.00    +0.102 C 
ATOM     35  C   UNL     1      -0.109 -13.631   0.404  0.00  0.00    +0.024 C 
ENDBRANCH  31  34
ENDBRANCH  24  26
ENDBRANCH  23  24
ENDBRANCH   2  23
TORSDOF 10
