REMARK  Name = ZINC35486195
REMARK  15 active torsions:
REMARK  status: ('A' for Active; 'I' for Inactive)
REMARK    1  A    between atoms: C_1  and  C_2
REMARK    2  A    between atoms: C_2  and  N_3
REMARK    3  A    between atoms: N_3  and  C_4
REMARK    4  A    between atoms: N_3  and  C_6
REMARK    5  A    between atoms: C_4  and  C_5
REMARK    6  A    between atoms: C_6  and  C_7
REMARK    7  A    between atoms: C_7  and  N_8
REMARK    8  A    between atoms: C_9  and  C_25
REMARK    9  A    between atoms: C_16  and  C_24
REMARK   10  A    between atoms: C_28  and  O_34
REMARK   11  A    between atoms: C_29  and  O_31
REMARK   12  A    between atoms: O_31  and  C_32
REMARK   13  A    between atoms: C_32  and  C_33
REMARK   14  A    between atoms: O_34  and  C_35
REMARK   15  A    between atoms: C_35  and  C_36
REMARK                            x       y       z     vdW  Elec       q    Type
REMARK                         _______ _______ _______ _____ _____    ______ ____
ROOT
ATOM      1  N   UNL     1       2.330  -3.539  -0.356  0.00  0.00    -0.285 N 
ATOM      2  C   UNL     1       3.511  -4.203   0.220  0.00  0.00    +0.145 C 
ATOM      3  C   UNL     1       3.400  -5.640  -0.170  0.00  0.00    +0.072 A 
ATOM      4  C   UNL     1       4.276  -6.785   0.101  0.00  0.00    +0.199 A 
ATOM      5  O   UNL     1       5.210  -6.740   0.882  0.00  0.00    -0.287 OA
ATOM      6  C   UNL     1       3.917  -8.003  -0.668  0.00  0.00    +0.065 A 
ATOM      7  C   UNL     1       4.766  -9.110  -0.675  0.00  0.00    +0.018 A 
ATOM      8  C   UNL     1       4.423 -10.222  -1.392  0.00  0.00    -0.050 A 
ATOM      9  C   UNL     1       3.236 -10.252  -2.111  0.00  0.00    +0.007 A 
ATOM     10  C   UNL     1       2.386  -9.169  -2.114  0.00  0.00    +0.047 A 
ATOM     11  C   UNL     1       2.712  -8.023  -1.389  0.00  0.00    +0.139 A 
ATOM     12  O   UNL     1       1.857  -6.975  -1.397  0.00  0.00    -0.450 OA
ATOM     13  C   UNL     1       2.254  -5.787  -0.898  0.00  0.00    +0.199 A 
ATOM     14  C   UNL     1       1.600  -4.471  -1.002  0.00  0.00    +0.283 C 
ATOM     15  O   UNL     1       0.557  -4.256  -1.587  0.00  0.00    -0.267 OA
ATOM     16  C   UNL     1       5.337 -11.420  -1.402  0.00  0.00    +0.044 C 
ENDROOT
BRANCH   2  17
ATOM     17  C   UNL     1       3.503  -4.067   1.721  0.00  0.00    -0.019 A 
ATOM     18  C   UNL     1       2.317  -4.196   2.419  0.00  0.00    +0.009 A 
ATOM     19  C   UNL     1       2.305  -4.072   3.796  0.00  0.00    +0.050 A 
ATOM     20  C   UNL     1       3.484  -3.818   4.479  0.00  0.00    +0.162 A 
ATOM     21  C   UNL     1       4.678  -3.689   3.776  0.00  0.00    +0.162 A 
ATOM     22  C   UNL     1       4.684  -3.819   2.396  0.00  0.00    +0.055 A 
BRANCH  21  23
ATOM     23  O   UNL     1       5.837  -3.440   4.442  0.00  0.00    -0.489 OA
BRANCH  23  24
ATOM     24  C   UNL     1       7.024  -3.319   3.655  0.00  0.00    +0.226 C 
ATOM     25  C   UNL     1       8.217  -3.042   4.572  0.00  0.00    +0.048 C 
ENDBRANCH  23  24
ENDBRANCH  21  23
BRANCH  20  26
ATOM     26  O   UNL     1       3.474  -3.696   5.833  0.00  0.00    -0.484 OA
BRANCH  26  27
ATOM     27  C   UNL     1       2.212  -3.840   6.488  0.00  0.00    +0.256 C 
BRANCH  27  28
ATOM     28  C   UNL     1       2.396  -3.674   7.975  0.00  0.00    +0.006 C 
ATOM     29  C   UNL     1       1.562  -2.931   8.659  0.00  0.00    +0.007 C 
ENDBRANCH  27  28
ENDBRANCH  26  27
ENDBRANCH  20  26
ENDBRANCH   2  17
BRANCH   1  30
ATOM     30  C   UNL     1       2.001  -2.116  -0.242  0.00  0.00    +0.090 C 
BRANCH  30  31
ATOM     31  C   UNL     1       1.153  -1.887   1.011  0.00  0.00    -0.060 C 
BRANCH  31  32
ATOM     32  N   UNL     1       0.823  -0.460   1.126  0.00  0.00    +0.380 N 
ATOM     33  H   UNL     1       1.673   0.083   1.111  0.00  0.00    -0.082 HD
BRANCH  32  35
ATOM     34  C   UNL     1      -0.260   1.449   0.040  0.00  0.00    -0.017 C 
ATOM     35  C   UNL     1      -0.032  -0.063  -0.001  0.00  0.00    -0.082 C 
ENDBRANCH  32  35
BRANCH  32  36
ATOM     36  C   UNL     1       0.111  -0.222   2.389  0.00  0.00    -0.082 C 
ATOM     37  C   UNL     1       1.053  -0.495   3.563  0.00  0.00    -0.017 C 
ENDBRANCH  32  36
ENDBRANCH  31  32
ENDBRANCH  30  31
ENDBRANCH   1  30
TORSDOF 11
