REMARK  Name = ZINC39678295
REMARK  8 active torsions:
REMARK  status: ('A' for Active; 'I' for Inactive)
REMARK    1  A    between atoms: C_1  and  C_2
REMARK    2  A    between atoms: C_2  and  O_3
REMARK    3  A    between atoms: O_3  and  C_4
REMARK    4  A    between atoms: C_9  and  C_10
REMARK    5  A    between atoms: C_14  and  C_23
REMARK    6  A    between atoms: N_25  and  C_26
REMARK    7  A    between atoms: C_26  and  C_27
REMARK    8  A    between atoms: C_32  and  N_33
REMARK                            x       y       z     vdW  Elec       q    Type
REMARK                         _______ _______ _______ _____ _____    ______ ____
ROOT
ATOM      1  C   UNL     1      -3.780  -1.664   0.074  0.00  0.00    +0.250 C 
ATOM      2  O   UNL     1      -3.719  -0.449   0.069  0.00  0.00    -0.270 OA
ATOM      3  N   UNL     1      -4.969  -2.279  -0.084  0.00  0.00    -0.296 N 
ATOM      4  C   UNL     1      -5.255  -3.732  -0.029  0.00  0.00    +0.121 C 
ATOM      5  C   UNL     1      -6.606  -3.836   0.713  0.00  0.00    +0.100 C 
ATOM      6  C   UNL     1      -7.279  -2.471   0.496  0.00  0.00    -0.004 C 
ATOM      7  C   UNL     1      -6.288  -1.653  -0.345  0.00  0.00    +0.115 C 
ATOM      8  C   UNL     1      -8.595  -2.644  -0.256  0.00  0.00    -0.010 C 
ATOM      9  C   UNL     1      -9.274  -1.280  -0.408  0.00  0.00    -0.082 C 
ATOM     10  N   UNL     1      -9.519  -0.702   0.919  0.00  0.00    +0.379 N 
ATOM     11  C   UNL     1      -8.242  -0.453   1.599  0.00  0.00    -0.082 C 
ATOM     12  C   UNL     1      -7.520  -1.782   1.836  0.00  0.00    -0.010 C 
ATOM     13  H   UNL     1     -10.020   0.168   0.818  0.00  0.00    -0.086 HD
ATOM     14  H   UNL     1     -10.071  -1.344   1.467  0.00  0.00    -0.086 HD
ENDROOT
BRANCH   1  20
ATOM     15  C   UNL     1      -1.415  -1.889   0.834  0.00  0.00    +0.133 A 
ATOM     16  C   UNL     1      -0.270  -2.652   1.002  0.00  0.00    +0.046 A 
ATOM     17  C   UNL     1      -0.251  -3.971   0.594  0.00  0.00    +0.004 A 
ATOM     18  C   UNL     1      -1.372  -4.541   0.013  0.00  0.00    +0.001 A 
ATOM     19  C   UNL     1      -2.519  -3.798  -0.161  0.00  0.00    +0.017 A 
ATOM     20  C   UNL     1      -2.554  -2.464   0.253  0.00  0.00    +0.078 A 
BRANCH  15  21
ATOM     21  O   UNL     1      -1.436  -0.593   1.234  0.00  0.00    -0.491 OA
BRANCH  21  23
ATOM     22  C   UNL     1      -0.451   1.390   2.204  0.00  0.00    +0.048 C 
ATOM     23  C   UNL     1      -0.238  -0.075   1.817  0.00  0.00    +0.226 C 
ENDBRANCH  21  23
ENDBRANCH  15  21
ENDBRANCH   1  20
BRANCH   5  24
ATOM     24  C   UNL     1      -6.380  -4.085   2.182  0.00  0.00    +0.218 C 
ATOM     25  O   UNL     1      -5.415  -3.605   2.737  0.00  0.00    -0.275 OA
ATOM     26  N   UNL     1      -7.251  -4.842   2.879  0.00  0.00    -0.311 N 
ATOM     27  H   UNL     1      -8.059  -5.168   2.453  0.00  0.00    +0.149 HD
BRANCH  26  28
ATOM     28  C   UNL     1      -6.976  -5.173   4.280  0.00  0.00    +0.141 C 
BRANCH  28  29
ATOM     29  C   UNL     1      -8.031  -6.121   4.788  0.00  0.00    -0.009 A 
ATOM     30  C   UNL     1      -9.060  -5.651   5.581  0.00  0.00    +0.007 A 
ATOM     31  C   UNL     1     -10.028  -6.520   6.048  0.00  0.00    +0.000 A 
ATOM     32  C   UNL     1      -9.971  -7.863   5.723  0.00  0.00    +0.002 A 
ATOM     33  C   UNL     1      -8.946  -8.340   4.930  0.00  0.00    +0.023 A 
ATOM     34  C   UNL     1      -7.974  -7.468   4.455  0.00  0.00    +0.034 A 
BRANCH  34  35
ATOM     35  N   UNL     1      -6.939  -7.947   3.649  0.00  0.00    -0.330 N 
ATOM     36  C   UNL     1      -5.726  -8.518   4.249  0.00  0.00    +0.105 C 
ATOM     37  C   UNL     1      -5.492  -9.912   3.657  0.00  0.00    +0.019 C 
ATOM     38  C   UNL     1      -5.452  -9.813   2.130  0.00  0.00    +0.003 C 
ATOM     39  C   UNL     1      -6.794  -9.288   1.616  0.00  0.00    +0.019 C 
ATOM     40  C   UNL     1      -7.045  -7.893   2.184  0.00  0.00    +0.105 C 
ENDBRANCH  34  35
ENDBRANCH  28  29
ENDBRANCH  26  28
ENDBRANCH   5  24
TORSDOF 7
