REMARK  Name = ZINC40321876
REMARK  7 active torsions:
REMARK  status: ('A' for Active; 'I' for Inactive)
REMARK    1  A    between atoms: C_6  and  C_7
REMARK    2  A    between atoms: C_7  and  C_9
REMARK    3  A    between atoms: C_7  and  N_28
REMARK    4  A    between atoms: C_9  and  N_10
REMARK    5  A    between atoms: C_11  and  C_13
REMARK    6  A    between atoms: C_16  and  S_18
REMARK    7  A    between atoms: S_18  and  C_21
REMARK                            x       y       z     vdW  Elec       q    Type
REMARK                         _______ _______ _______ _____ _____    ______ ____
ROOT
ATOM      1  N   UNL     1      -1.799  -0.064   2.319  0.00  0.00    -0.310 N 
ATOM      2  C   UNL     1      -2.033  -0.218   3.638  0.00  0.00    +0.279 C 
ATOM      3  O   UNL     1      -2.148  -1.334   4.109  0.00  0.00    -0.267 OA
ATOM      4  H   UNL     1      -1.707   0.826   1.944  0.00  0.00    +0.149 HD
ENDROOT
BRANCH   2   5
ATOM      5  C   UNL     1      -2.148   0.960   4.504  0.00  0.00    +0.192 A 
ATOM      6  C   UNL     1      -2.376   0.946   5.850  0.00  0.00    +0.056 A 
ATOM      7  C   UNL     1      -2.410   2.285   6.268  0.00  0.00    +0.070 A 
ATOM      8  C   UNL     1      -2.204   3.049   5.172  0.00  0.00    +0.246 A 
ATOM      9  O   UNL     1      -2.041   2.246   4.112  0.00  0.00    -0.433 OA
BRANCH   8  10
ATOM     10  S   UNL     1      -2.151   4.810   5.143  0.00  0.00    +0.058 S 
ATOM     11  O   UNL     1      -2.474   5.204   3.817  0.00  0.00    -0.161 OA
ATOM     12  O   UNL     1      -2.890   5.256   6.272  0.00  0.00    -0.161 OA
BRANCH  10  13
ATOM     13  C   UNL     1      -0.477   5.286   5.417  0.00  0.00    +0.097 A 
ATOM     14  C   UNL     1      -0.018   5.492   6.704  0.00  0.00    +0.029 A 
ATOM     15  C   UNL     1       1.295   5.865   6.919  0.00  0.00    +0.022 A 
ATOM     16  C   UNL     1       2.151   6.032   5.845  0.00  0.00    +0.041 A 
ATOM     17  C   UNL     1       1.692   5.826   4.557  0.00  0.00    +0.022 A 
ATOM     18  C   UNL     1       0.380   5.447   4.343  0.00  0.00    +0.029 A 
ATOM     19 CL   UNL     1       3.800   6.502   6.114  0.00  0.00    -0.084 Cl
ENDBRANCH  10  13
ENDBRANCH   8  10
ENDBRANCH   2   5
BRANCH   1  20
ATOM     20  C   UNL     1      -1.684  -1.240   1.453  0.00  0.00    +0.094 C 
BRANCH  20  21
ATOM     21  C   UNL     1      -1.290  -0.798   0.043  0.00  0.00    -0.020 C 
BRANCH  21  27
ATOM     22  C   UNL     1       0.199   1.214   0.082  0.00  0.00    +0.003 A 
ATOM     23  C   UNL     1       1.452   1.797   0.115  0.00  0.00    +0.020 A 
ATOM     24  C   UNL     1       2.583   1.002   0.145  0.00  0.00    +0.041 A 
ATOM     25  C   UNL     1       2.461  -0.376   0.142  0.00  0.00    +0.020 A 
ATOM     26  C   UNL     1       1.207  -0.958   0.109  0.00  0.00    +0.003 A 
ATOM     27  C   UNL     1       0.077  -0.163   0.079  0.00  0.00    -0.059 A 
ATOM     28 CL   UNL     1       4.157   1.734   0.187  0.00  0.00    -0.084 Cl
ENDBRANCH  21  27
BRANCH  21  29
ATOM     29  N   UNL     1      -1.263  -1.967  -0.847  0.00  0.00    +0.385 N 
ATOM     30  C   UNL     1      -0.830  -1.550  -2.187  0.00  0.00    -0.078 C 
ATOM     31  C   UNL     1      -0.723  -2.776  -3.096  0.00  0.00    -0.019 C 
ATOM     32  C   UNL     1      -2.091  -3.458  -3.189  0.00  0.00    -0.004 C 
ATOM     33  C   UNL     1      -2.567  -3.821  -1.779  0.00  0.00    -0.019 C 
ATOM     34  C   UNL     1      -2.606  -2.556  -0.918  0.00  0.00    -0.078 C 
ATOM     35  H   UNL     1      -0.616  -2.650  -0.484  0.00  0.00    -0.081 HD
ENDBRANCH  21  29
ENDBRANCH  20  21
ENDBRANCH   1  20
TORSDOF 7
