REMARK  Name = ZINC36704467
REMARK  8 active torsions:
REMARK  status: ('A' for Active; 'I' for Inactive)
REMARK    1  A    between atoms: C_1  and  N_2
REMARK    2  A    between atoms: N_2  and  C_3
REMARK    3  A    between atoms: N_2  and  C_4
REMARK    4  A    between atoms: C_4  and  C_5
REMARK    5  A    between atoms: C_5  and  N_6
REMARK    6  A    between atoms: C_17  and  C_19
REMARK    7  A    between atoms: N_24  and  S_25
REMARK    8  A    between atoms: S_25  and  C_28
REMARK                            x       y       z     vdW  Elec       q    Type
REMARK                         _______ _______ _______ _____ _____    ______ ____
ROOT
ATOM      1  N   UNL     1       2.566  -0.793  -2.365  0.00  0.00    -0.251 N 
ATOM      2  C   UNL     1       2.428  -0.267  -3.639  0.00  0.00    +0.168 A 
ATOM      3  N   UNL     1       1.832   0.842  -4.012  0.00  0.00    -0.224 NA
ATOM      4  C   UNL     1       1.773   1.236  -5.303  0.00  0.00    +0.080 A 
ATOM      5  C   UNL     1       1.166   2.397  -5.834  0.00  0.00    +0.032 A 
ATOM      6  C   UNL     1       1.194   2.650  -7.180  0.00  0.00    +0.040 A 
ATOM      7  C   UNL     1       1.816   1.780  -8.069  0.00  0.00    +0.125 A 
ATOM      8  C   UNL     1       2.420   0.634  -7.582  0.00  0.00    +0.055 A 
ATOM      9  C   UNL     1       2.396   0.374  -6.235  0.00  0.00    +0.043 A 
ATOM     10  S   UNL     1       3.021  -0.921  -5.192  0.00  0.00    -0.052 S 
ATOM     11  F   UNL     1       1.829   2.051  -9.392  0.00  0.00    -0.205 F 
ATOM     12  C   UNL     1       3.103  -2.017  -2.196  0.00  0.00    +0.240 C 
ATOM     13  O   UNL     1       3.290  -2.448  -1.078  0.00  0.00    -0.273 OA
ENDROOT
BRANCH  12  14
ATOM     14  C   UNL     1       3.471  -2.851  -3.396  0.00  0.00    +0.166 C 
ATOM     15  C   UNL     1       4.874  -2.453  -3.901  0.00  0.00    +0.031 C 
ATOM     16  C   UNL     1       5.793  -3.520  -3.251  0.00  0.00    +0.019 C 
ATOM     17  C   UNL     1       4.887  -4.776  -3.290  0.00  0.00    +0.110 C 
ATOM     18  N   UNL     1       3.525  -4.271  -3.021  0.00  0.00    -0.164 NA
BRANCH  18  19
ATOM     19  S   UNL     1       2.270  -5.154  -2.398  0.00  0.00    +0.068 S 
ATOM     20  O   UNL     1       2.850  -6.234  -1.680  0.00  0.00    -0.152 OA
ATOM     21  O   UNL     1       1.382  -4.225  -1.791  0.00  0.00    -0.152 OA
BRANCH  19  22
ATOM     22  C   UNL     1       1.405  -5.861  -3.760  0.00  0.00    +0.144 A 
ATOM     23  C   UNL     1       1.602  -7.055  -4.369  0.00  0.00    +0.038 A 
ATOM     24  C   UNL     1       0.793  -7.408  -5.434  0.00  0.00    +0.030 A 
ATOM     25  C   UNL     1      -0.175  -6.547  -5.836  0.00  0.00    +0.080 A 
ATOM     26  S   UNL     1       0.035  -5.194  -4.691  0.00  0.00    -0.057 S 
ATOM     27 CL   UNL     1      -1.325  -6.719  -7.125  0.00  0.00    -0.076 Cl
ENDBRANCH  19  22
ENDBRANCH  18  19
ENDBRANCH  12  14
BRANCH   1  28
ATOM     28  C   UNL     1       2.129  -0.018  -1.201  0.00  0.00    +0.097 C 
BRANCH  28  29
ATOM     29  C   UNL     1       0.701  -0.420  -0.827  0.00  0.00    -0.060 C 
BRANCH  29  31
ATOM     30  C   UNL     1       0.253   1.714   0.174  0.00  0.00    -0.097 C 
ATOM     31  N   UNL     1       0.307   0.265   0.411  0.00  0.00    +0.377 N 
ATOM     32  C   UNL     1      -1.017  -0.211   0.835  0.00  0.00    -0.097 C 
ATOM     33  H   UNL     1       0.983   0.067   1.134  0.00  0.00    -0.083 HD
ENDBRANCH  29  31
ENDBRANCH  28  29
ENDBRANCH   1  28
TORSDOF 6
