REMARK  Name = ZINC08790510
REMARK  9 active torsions:
REMARK  status: ('A' for Active; 'I' for Inactive)
REMARK    1  A    between atoms: C_1  and  C_2
REMARK    2  A    between atoms: C_7  and  C_8
REMARK    3  A    between atoms: C_17  and  C_19
REMARK    4  A    between atoms: C_19  and  C_20
REMARK    5  A    between atoms: C_20  and  S_21
REMARK    6  A    between atoms: S_21  and  C_22
REMARK    7  A    between atoms: N_25  and  C_28
REMARK    8  A    between atoms: C_28  and  C_29
REMARK    9  A    between atoms: C_29  and  C_30
REMARK                            x       y       z     vdW  Elec       q    Type
REMARK                         _______ _______ _______ _____ _____    ______ ____
ROOT
ATOM      1  C   UNL     1       1.282   4.571   5.295  0.00  0.00    +0.044 C 
ATOM      2  C   UNL     1       1.656   3.549   4.253  0.00  0.00    -0.046 A 
ATOM      3  C   UNL     1       0.738   2.588   3.870  0.00  0.00    +0.004 A 
ATOM      4  C   UNL     1       1.082   1.649   2.914  0.00  0.00    +0.005 A 
ATOM      5  C   UNL     1       2.335   1.672   2.345  0.00  0.00    -0.027 A 
ATOM      6  C   UNL     1       3.267   2.635   2.721  0.00  0.00    +0.039 A 
ATOM      7  C   UNL     1       2.913   3.576   3.685  0.00  0.00    -0.026 A 
ATOM      8  C   UNL     1       3.906   4.627   4.109  0.00  0.00    +0.046 C 
ATOM      9  N   UNL     1       4.457   2.459   2.011  0.00  0.00    -0.286 N 
ATOM     10  C   UNL     1       4.392   1.416   1.161  0.00  0.00    +0.211 C 
ATOM     11  O   UNL     1       5.271   1.031   0.420  0.00  0.00    -0.277 OA
ATOM     12  C   UNL     1       3.017   0.823   1.309  0.00  0.00    +0.050 C 
ATOM     13  C   UNL     1       2.257   0.832  -0.021  0.00  0.00    +0.088 C 
ATOM     14  C   UNL     1       1.435  -0.487  -0.013  0.00  0.00    +0.073 C 
ATOM     15  C   UNL     1       1.762  -1.147   1.343  0.00  0.00    -0.057 C 
ATOM     16  C   UNL     1       0.002  -0.004   0.002  0.00  0.00    +0.224 C 
ATOM     17  O   UNL     1      -0.978  -0.718   0.007  0.00  0.00    -0.275 OA
ATOM     18  N   UNL     1      -0.016   1.334   0.009  0.00  0.00    -0.241 N 
ATOM     19  C   UNL     1       1.194   1.906   0.001  0.00  0.00    +0.225 C 
ATOM     20  O   UNL     1       1.404   3.100   0.010  0.00  0.00    -0.275 OA
ATOM     21  H   UNL     1       5.239   3.023   2.118  0.00  0.00    +0.155 HD
ATOM     22  N   UNL     1       3.057  -0.572   1.713  0.00  0.00    +0.394 N 
ATOM     23  H   UNL     1       3.201  -0.644   2.727  0.00  0.00    -0.083 HD
ATOM     24  H   UNL     1       3.816  -1.062   1.223  0.00  0.00    -0.083 HD
ENDROOT
BRANCH  15  25
ATOM     25  C   UNL     1       1.850  -2.667   1.188  0.00  0.00    -0.004 C 
BRANCH  25  26
ATOM     26  C   UNL     1       2.050  -3.309   2.562  0.00  0.00    +0.067 C 
BRANCH  26  27
ATOM     27  S   UNL     1       2.154  -5.111   2.378  0.00  0.00    -0.164 S 
ATOM     28  C   UNL     1       2.389  -5.712   4.074  0.00  0.00    +0.084 C 
ENDBRANCH  26  27
ENDBRANCH  25  26
ENDBRANCH  15  25
BRANCH  18  29
ATOM     29  C   UNL     1      -1.259   2.109   0.020  0.00  0.00    +0.121 C 
BRANCH  29  30
ATOM     30  C   UNL     1      -1.684   2.372   1.466  0.00  0.00    +0.054 C 
BRANCH  30  31
ATOM     31  C   UNL     1      -2.963   3.169   1.476  0.00  0.00    -0.046 A 
ATOM     32  C   UNL     1      -2.916   4.551   1.489  0.00  0.00    +0.004 A 
ATOM     33  C   UNL     1      -4.089   5.282   1.494  0.00  0.00    +0.000 A 
ATOM     34  C   UNL     1      -5.309   4.633   1.496  0.00  0.00    +0.000 A 
ATOM     35  C   UNL     1      -5.356   3.251   1.489  0.00  0.00    +0.000 A 
ATOM     36  C   UNL     1      -4.183   2.519   1.479  0.00  0.00    +0.004 A 
ENDBRANCH  30  31
ENDBRANCH  29  30
ENDBRANCH  18  29
TORSDOF 6
