REMARK  Name = ZINC64074242
REMARK  4 active torsions:
REMARK  status: ('A' for Active; 'I' for Inactive)
REMARK    1  A    between atoms: C_1  and  O_2
REMARK    2  A    between atoms: O_2  and  C_3
REMARK    3  A    between atoms: C_6  and  C_10
REMARK    4  A    between atoms: C_25  and  C_27
REMARK                            x       y       z     vdW  Elec       q    Type
REMARK                         _______ _______ _______ _____ _____    ______ ____
ROOT
ATOM      1  C   UNL     1       2.540  -2.509   4.294  0.00  0.00    +0.136 C 
ATOM      2  C   UNL     1       3.918  -3.023   3.864  0.00  0.00    +0.131 C 
ATOM      3  C   UNL     1       4.828  -1.804   3.772  0.00  0.00    -0.035 C 
ATOM      4  C   UNL     1       5.323  -1.798   2.540  0.00  0.00    -0.001 A 
ATOM      5  C   UNL     1       6.303  -0.917   1.883  0.00  0.00    +0.010 A 
ATOM      6  C   UNL     1       6.580  -1.194   0.582  0.00  0.00    +0.001 A 
ATOM      7  C   UNL     1       5.987  -2.247  -0.123  0.00  0.00    +0.002 A 
ATOM      8  C   UNL     1       5.080  -3.108   0.403  0.00  0.00    +0.026 A 
ATOM      9  C   UNL     1       4.712  -2.921   1.767  0.00  0.00    +0.043 A 
ATOM     10  N   UNL     1       3.885  -3.617   2.526  0.00  0.00    -0.375 N 
ATOM     11  C   UNL     1       4.985  -0.823   4.908  0.00  0.00    +0.052 C 
ATOM     12  C   UNL     1       3.565  -0.422   5.346  0.00  0.00    +0.113 C 
ATOM     13  N   UNL     1       2.730  -1.624   5.454  0.00  0.00    -0.288 N 
ATOM     14  C   UNL     1       2.131  -1.920   6.624  0.00  0.00    +0.248 C 
ATOM     15  O   UNL     1       1.577  -2.994   6.770  0.00  0.00    -0.270 OA
ATOM     16  H   UNL     1       3.347  -4.378   2.257  0.00  0.00    +0.160 HD
ENDROOT
BRANCH  14  17
ATOM     17  C   UNL     1       2.147  -0.983   7.684  0.00  0.00    +0.073 C 
ATOM     18  C   UNL     1       1.705  -1.183   8.944  0.00  0.00    +0.100 C 
ATOM     19  N   UNL     1       1.853  -0.063   9.711  0.00  0.00    -0.269 N 
ATOM     20  N   UNL     1       2.194   1.014   8.904  0.00  0.00    -0.232 N 
ATOM     21  C   UNL     1       2.666   0.434   7.626  0.00  0.00    +0.245 C 
ATOM     22  N   UNL     1       2.030   1.197   6.550  0.00  0.00    -0.263 NA
ATOM     23  C   UNL     1       1.664   2.427   6.748  0.00  0.00    +0.109 C 
ATOM     24  C   UNL     1       1.815   3.089   7.986  0.00  0.00    +0.036 C 
ATOM     25  C   UNL     1       2.089   2.366   9.105  0.00  0.00    +0.095 C 
ATOM     26  H   UNL     1       1.736  -0.025  10.673  0.00  0.00    +0.170 HD
ENDBRANCH  14  17
BRANCH   1  30
ATOM     27  C   UNL     1       0.743  -0.329   1.086  0.00  0.00    +0.123 A 
ATOM     28  C   UNL     1       1.925   0.121   1.657  0.00  0.00    +0.046 A 
ATOM     29  C   UNL     1       2.503  -0.586   2.694  0.00  0.00    +0.012 A 
ATOM     30  C   UNL     1       1.906  -1.741   3.163  0.00  0.00    +0.011 A 
ATOM     31  C   UNL     1       0.727  -2.192   2.596  0.00  0.00    +0.132 A 
ATOM     32  C   UNL     1       0.141  -1.485   1.561  0.00  0.00    +0.084 A 
ATOM     33  F   UNL     1       0.145  -3.322   3.056  0.00  0.00    -0.205 F 
BRANCH  27  35
ATOM     34  C   UNL     1       0.848   1.546  -0.372  0.00  0.00    +0.277 C 
ATOM     35  O   UNL     1       0.172   0.365   0.066  0.00  0.00    -0.495 OA
ENDBRANCH  27  35
ENDBRANCH   1  30
TORSDOF 3
