REMARK  Name = ZINC20574132
REMARK  6 active torsions:
REMARK  status: ('A' for Active; 'I' for Inactive)
REMARK    1  A    between atoms: C_1  and  C_2
REMARK    2  A    between atoms: C_5  and  N_9
REMARK    3  A    between atoms: C_6  and  C_8
REMARK    4  A    between atoms: C_10  and  C_12
REMARK    5  A    between atoms: C_12  and  N_13
REMARK    6  A    between atoms: N_23  and  C_28
REMARK                            x       y       z     vdW  Elec       q    Type
REMARK                         _______ _______ _______ _____ _____    ______ ____
ROOT
ATOM      1  N   UNL     1       4.420  -2.243  -1.353  0.00  0.00    -0.259 N 
ATOM      2  C   UNL     1       4.832  -1.950  -0.050  0.00  0.00    +0.043 A 
ATOM      3  C   UNL     1       6.041  -1.458   0.433  0.00  0.00    +0.024 A 
ATOM      4  C   UNL     1       6.216  -1.247   1.784  0.00  0.00    +0.002 A 
ATOM      5  C   UNL     1       5.192  -1.523   2.672  0.00  0.00    +0.000 A 
ATOM      6  C   UNL     1       3.986  -2.012   2.202  0.00  0.00    +0.009 A 
ATOM      7  C   UNL     1       3.806  -2.224   0.853  0.00  0.00    +0.017 A 
ATOM      8  C   UNL     1       2.666  -2.727   0.024  0.00  0.00    +0.192 C 
ATOM      9  C   UNL     1       3.154  -2.707  -1.393  0.00  0.00    +0.259 C 
ATOM     10  O   UNL     1       2.534  -3.042  -2.380  0.00  0.00    -0.272 OA
ATOM     11  N   UNL     1       1.429  -1.978   0.220  0.00  0.00    -0.243 N 
ATOM     12  C   UNL     1       0.291  -2.650   0.389  0.00  0.00    +0.231 C 
ATOM     13  O   UNL     1      -0.761  -2.072   0.562  0.00  0.00    -0.274 OA
ATOM     14  C   UNL     1       0.362  -4.170   0.358  0.00  0.00    +0.168 C 
ATOM     15  S   UNL     1       2.184  -4.425   0.531  0.00  0.00    -0.111 S 
ENDROOT
BRANCH  11  16
ATOM     16  C   UNL     1       1.438  -0.579   0.225  0.00  0.00    +0.040 A 
ATOM     17  C   UNL     1       1.688   0.120  -0.950  0.00  0.00    +0.023 A 
ATOM     18  C   UNL     1       1.695   1.501  -0.942  0.00  0.00    +0.003 A 
ATOM     19  C   UNL     1       1.454   2.189   0.232  0.00  0.00    +0.020 A 
ATOM     20  C   UNL     1       1.204   1.497   1.404  0.00  0.00    +0.043 A 
ATOM     21  C   UNL     1       1.195   0.114   1.403  0.00  0.00    +0.043 A 
ATOM     22 CL   UNL     1       0.901   2.365   2.877  0.00  0.00    -0.083 Cl
ENDBRANCH  11  16
BRANCH   1  23
ATOM     23  C   UNL     1       5.264  -2.064  -2.537  0.00  0.00    +0.209 C 
BRANCH  23  25
ATOM     24  N   UNL     1       5.749  -0.284  -4.184  0.00  0.00    -0.284 N 
ATOM     25  C   UNL     1       5.070  -0.675  -3.088  0.00  0.00    +0.235 C 
ATOM     26  O   UNL     1       4.302   0.091  -2.545  0.00  0.00    -0.274 OA
ATOM     27  H   UNL     1       6.385  -1.002  -4.722  0.00  0.00    +0.155 HD
BRANCH  24  32
ATOM     28  C   UNL     1       5.329   5.066  -6.023  0.00  0.00    +0.044 C 
ATOM     29  C   UNL     1       5.441   3.645  -5.534  0.00  0.00    -0.050 A 
ATOM     30  C   UNL     1       4.394   3.071  -4.836  0.00  0.00    +0.005 A 
ATOM     31  C   UNL     1       4.491   1.767  -4.392  0.00  0.00    +0.024 A 
ATOM     32  C   UNL     1       5.646   1.036  -4.637  0.00  0.00    +0.036 A 
ATOM     33  C   UNL     1       6.695   1.615  -5.338  0.00  0.00    -0.029 A 
ATOM     34  C   UNL     1       6.590   2.918  -5.785  0.00  0.00    +0.008 A 
ATOM     35  C   UNL     1       7.948   0.823  -5.612  0.00  0.00    +0.045 C 
ENDBRANCH  24  32
ENDBRANCH  23  25
ENDBRANCH   1  23
TORSDOF 4
