REMARK  Name = ZINC13148716
REMARK  7 active torsions:
REMARK  status: ('A' for Active; 'I' for Inactive)
REMARK    1  A    between atoms: C_1  and  C_2
REMARK    2  A    between atoms: C_2  and  N_3
REMARK    3  A    between atoms: C_4  and  C_6
REMARK    4  A    between atoms: C_6  and  O_7
REMARK    5  A    between atoms: O_7  and  C_8
REMARK    6  A    between atoms: C_8  and  C_10
REMARK    7  A    between atoms: C_24  and  C_25
REMARK                            x       y       z     vdW  Elec       q    Type
REMARK                         _______ _______ _______ _____ _____    ______ ____
ROOT
ATOM      1  C   UNL     1      -7.311   0.936   0.727  0.00  0.00    +0.073 A 
ATOM      2  C   UNL     1      -7.293  -0.501   0.452  0.00  0.00    +0.015 A 
ATOM      3  C   UNL     1      -8.452  -1.279   0.543  0.00  0.00    +0.011 A 
ATOM      4  C   UNL     1      -8.390  -2.615   0.276  0.00  0.00    +0.001 A 
ATOM      5  C   UNL     1      -7.186  -3.215  -0.087  0.00  0.00    +0.002 A 
ATOM      6  C   UNL     1      -6.040  -2.488  -0.183  0.00  0.00    +0.028 A 
ATOM      7  C   UNL     1      -6.064  -1.107   0.086  0.00  0.00    +0.072 A 
ATOM      8  N   UNL     1      -4.958  -0.369   0.001  0.00  0.00    -0.247 NA
ATOM      9  C   UNL     1      -4.948   0.931   0.246  0.00  0.00    +0.072 A 
ATOM     10  C   UNL     1      -6.114   1.629   0.611  0.00  0.00    -0.007 A 
ATOM     11  C   UNL     1      -6.104   3.109   0.875  0.00  0.00    +0.038 C 
ATOM     12  C   UNL     1      -4.705   3.598   1.239  0.00  0.00    +0.009 C 
ATOM     13  C   UNL     1      -3.719   3.177   0.147  0.00  0.00    +0.037 C 
ATOM     14  C   UNL     1      -3.668   1.665   0.130  0.00  0.00    -0.021 C 
ATOM     15  C   UNL     1      -2.499   1.010   0.020  0.00  0.00    +0.013 C 
ENDROOT
BRANCH  15  16
ATOM     16  C   UNL     1      -1.262   1.755  -0.264  0.00  0.00    -0.021 A 
ATOM     17  C   UNL     1      -0.041   1.312   0.256  0.00  0.00    +0.012 A 
ATOM     18  C   UNL     1       1.115   2.014  -0.008  0.00  0.00    +0.050 A 
ATOM     19  C   UNL     1       1.074   3.159  -0.792  0.00  0.00    +0.166 A 
ATOM     20  C   UNL     1      -0.139   3.603  -1.318  0.00  0.00    +0.167 A 
ATOM     21  C   UNL     1      -1.302   2.905  -1.059  0.00  0.00    +0.057 A 
ATOM     22  O   UNL     1       0.091   4.737  -2.045  0.00  0.00    -0.453 OA
ATOM     23  C   UNL     1       1.384   5.209  -1.621  0.00  0.00    +0.466 C 
ATOM     24  O   UNL     1       2.061   4.013  -1.190  0.00  0.00    -0.453 OA
ENDBRANCH  15  16
BRANCH   1  25
ATOM     25  C   UNL     1      -8.560   1.625   1.114  0.00  0.00    +0.341 C 
ATOM     26  O   UNL     1      -9.282   2.099   0.260  0.00  0.00    -0.245 OA
BRANCH  25  27
ATOM     27  O   UNL     1      -8.898   1.727   2.414  0.00  0.00    -0.452 OA
BRANCH  27  28
ATOM     28  C   UNL     1     -10.138   2.417   2.721  0.00  0.00    +0.328 C 
BRANCH  28  30
ATOM     29  N   UNL     1     -11.442   3.024   4.733  0.00  0.00    -0.313 N 
ATOM     30  C   UNL     1     -10.348   2.433   4.213  0.00  0.00    +0.251 C 
ATOM     31  O   UNL     1      -9.533   1.914   4.946  0.00  0.00    -0.272 OA
ATOM     32  H   UNL     1     -12.094   3.439   4.147  0.00  0.00    +0.149 HD
BRANCH  29  34
ATOM     33  C   UNL     1     -12.953   3.767   6.507  0.00  0.00    +0.024 C 
ATOM     34  C   UNL     1     -11.646   3.040   6.184  0.00  0.00    +0.101 C 
ENDBRANCH  29  34
ENDBRANCH  28  30
ENDBRANCH  27  28
ENDBRANCH  25  27
ENDBRANCH   1  25
TORSDOF 6
