REMARK  Name = ZINC23384970
REMARK  6 active torsions:
REMARK  status: ('A' for Active; 'I' for Inactive)
REMARK    1  A    between atoms: C_8  and  C_10
REMARK    2  A    between atoms: N_13  and  C_16
REMARK    3  A    between atoms: C_16  and  N_17
REMARK    4  A    between atoms: N_20  and  C_30
REMARK    5  A    between atoms: C_21  and  C_23
REMARK    6  A    between atoms: C_30  and  C_31
REMARK                            x       y       z     vdW  Elec       q    Type
REMARK                         _______ _______ _______ _____ _____    ______ ____
ROOT
ATOM      1  N   UNL     1       5.284  -5.308   1.133  0.00  0.00    -0.257 N 
ATOM      2  C   UNL     1       5.244  -5.630   2.443  0.00  0.00    +0.177 A 
ATOM      3  S   UNL     1       3.856  -6.105   3.324  0.00  0.00    -0.011 S 
ATOM      4  N   UNL     1       6.494  -5.509   2.932  0.00  0.00    -0.301 N 
ATOM      5  C   UNL     1       7.324  -5.106   1.904  0.00  0.00    +0.163 A 
ATOM      6  N   UNL     1       6.612  -4.987   0.819  0.00  0.00    -0.152 NA
ENDROOT
BRANCH   5   7
ATOM      7  C   UNL     1       8.778  -4.856   2.015  0.00  0.00    +0.019 A 
ATOM      8  C   UNL     1       9.507  -5.420   3.062  0.00  0.00    +0.014 A 
ATOM      9  C   UNL     1      10.864  -5.189   3.158  0.00  0.00    +0.039 A 
ATOM     10  C   UNL     1      11.500  -4.389   2.223  0.00  0.00    +0.123 A 
ATOM     11  C   UNL     1      10.779  -3.821   1.184  0.00  0.00    +0.039 A 
ATOM     12  C   UNL     1       9.423  -4.051   1.076  0.00  0.00    +0.014 A 
ATOM     13  F   UNL     1      12.828  -4.161   2.324  0.00  0.00    -0.205 F 
ENDBRANCH   5   7
BRANCH   1  14
ATOM     14  C   UNL     1       4.149  -5.303   0.207  0.00  0.00    +0.072 C 
BRANCH  14  18
ATOM     15  C   UNL     1       1.357  -2.071   0.425  0.00  0.00    +0.072 C 
ATOM     16  C   UNL     1       2.391  -2.251   1.541  0.00  0.00    -0.006 C 
ATOM     17  C   UNL     1       2.911  -3.690   1.521  0.00  0.00    -0.075 C 
ATOM     18  N   UNL     1       3.517  -3.977   0.215  0.00  0.00    +0.393 N 
ATOM     19  C   UNL     1       2.530  -3.857  -0.866  0.00  0.00    -0.075 C 
ATOM     20  C   UNL     1       2.001  -2.423  -0.919  0.00  0.00    -0.006 C 
ATOM     21  H   UNL     1       4.301  -3.226   0.037  0.00  0.00    -0.079 HD
BRANCH  15  29
ATOM     22  C   UNL     1      -1.156   3.372   0.446  0.00  0.00    +0.002 A 
ATOM     23  C   UNL     1       0.142   3.802   0.210  0.00  0.00    +0.004 A 
ATOM     24  C   UNL     1       1.173   2.891   0.110  0.00  0.00    +0.048 A 
ATOM     25  C   UNL     1       0.913   1.536   0.245  0.00  0.00    +0.155 A 
ATOM     26  C   UNL     1      -0.399   1.097   0.483  0.00  0.00    +0.110 A 
ATOM     27  C   UNL     1      -1.431   2.031   0.587  0.00  0.00    +0.031 A 
ATOM     28  N   UNL     1      -0.343  -0.260   0.569  0.00  0.00    -0.213 NA
ATOM     29  C   UNL     1       0.887  -0.640   0.400  0.00  0.00    +0.200 A 
ATOM     30  O   UNL     1       1.680   0.425   0.200  0.00  0.00    -0.439 OA
ENDBRANCH  15  29
ENDBRANCH  14  18
ENDBRANCH   1  14
BRANCH   4  31
ATOM     31  C   UNL     1       6.903  -5.763   4.315  0.00  0.00    +0.157 C 
BRANCH  31  32
ATOM     32  C   UNL     1       7.221  -7.249   4.489  0.00  0.00    +0.138 C 
ATOM     33  C   UNL     1       7.708  -7.530   5.933  0.00  0.00    +0.035 C 
ATOM     34  C   UNL     1       7.346  -9.033   6.079  0.00  0.00    +0.031 C 
ATOM     35  C   UNL     1       6.051  -9.141   5.246  0.00  0.00    +0.160 C 
ATOM     36  O   UNL     1       6.028  -8.035   4.336  0.00  0.00    -0.375 OA
ENDBRANCH  31  32
ENDBRANCH   4  31
TORSDOF 6
