REMARK  Name = ZINC42401641
REMARK  4 active torsions:
REMARK  status: ('A' for Active; 'I' for Inactive)
REMARK    1  A    between atoms: C_3  and  C_11
REMARK    2  A    between atoms: C_6  and  N_7
REMARK    3  A    between atoms: C_11  and  C_12
REMARK    4  A    between atoms: C_18  and  N_20
REMARK                            x       y       z     vdW  Elec       q    Type
REMARK                         _______ _______ _______ _____ _____    ______ ____
ROOT
ATOM      1  C   UNL     1       3.672   2.184  -0.022  0.00  0.00    +0.038 C 
ENDROOT
BRANCH   1   4
ATOM      2  C   UNL     1       1.409  -0.822  -0.340  0.00  0.00    +0.033 A 
ATOM      3  C   UNL     1       2.539  -0.026  -0.337  0.00  0.00    +0.007 A 
ATOM      4  C   UNL     1       2.439   1.317  -0.026  0.00  0.00    -0.033 A 
ATOM      5  C   UNL     1       1.207   1.865   0.282  0.00  0.00    +0.023 A 
ATOM      6  C   UNL     1       0.076   1.069   0.279  0.00  0.00    +0.048 A 
ATOM      7  C   UNL     1       0.177  -0.274  -0.032  0.00  0.00    +0.127 A 
ATOM      8 BR   UNL     1       1.069   3.702   0.709  0.00  0.00    -0.050 Br
BRANCH   7   9
ATOM      9  N   UNL     1      -1.033  -1.127  -0.035  0.00  0.00    +0.056 N 
ATOM     10  O   UNL     1      -0.944  -2.301  -0.307  0.00  0.00    -0.126 OA
ATOM     11  O   UNL     1      -2.110  -0.648   0.234  0.00  0.00    -0.126 OA
ENDBRANCH   7   9
ENDBRANCH   1   4
BRANCH   1  12
ATOM     12  C   UNL     1       4.188   2.330   1.411  0.00  0.00    -0.021 C 
ATOM     13  C   UNL     1       4.660   0.968   1.924  0.00  0.00    +0.002 C 
ATOM     14  C   UNL     1       5.176   1.114   3.357  0.00  0.00    +0.000 C 
ATOM     15  C   UNL     1       6.346   2.100   3.380  0.00  0.00    -0.002 C 
ATOM     16  C   UNL     1       5.874   3.462   2.866  0.00  0.00    -0.016 C 
ATOM     17  C   UNL     1       5.357   3.316   1.434  0.00  0.00    -0.072 C 
BRANCH  17  18
ATOM     18  N   UNL     1       4.904   4.624   0.941  0.00  0.00    +0.380 N 
ATOM     19  H   UNL     1       4.162   4.968   1.532  0.00  0.00    -0.090 HD
ATOM     20  H   UNL     1       5.675   5.274   0.956  0.00  0.00    -0.090 HD
ATOM     21  H   UNL     1       4.564   4.528  -0.004  0.00  0.00    -0.090 HD
ENDBRANCH  17  18
ENDBRANCH   1  12
TORSDOF 4
