REMARK  Name = ZINC09232836
REMARK  5 active torsions:
REMARK  status: ('A' for Active; 'I' for Inactive)
REMARK    1  A    between atoms: C_1  and  C_2
REMARK    2  A    between atoms: C_2  and  C_3
REMARK    3  A    between atoms: N_21  and  C_24
REMARK    4  A    between atoms: C_28  and  C_31
REMARK    5  A    between atoms: C_29  and  C_30
REMARK                            x       y       z     vdW  Elec       q    Type
REMARK                         _______ _______ _______ _____ _____    ______ ____
ROOT
ATOM      1  C   UNL     1      -3.195   3.644   0.050  0.00  0.00    -0.047 A 
ATOM      2  C   UNL     1      -3.515   2.298   0.046  0.00  0.00    +0.005 A 
ATOM      3  C   UNL     1      -2.519   1.345   0.031  0.00  0.00    +0.024 A 
ATOM      4  C   UNL     1      -1.180   1.729   0.017  0.00  0.00    +0.036 A 
ATOM      5  C   UNL     1      -0.870   3.086   0.026  0.00  0.00    -0.027 A 
ATOM      6  C   UNL     1      -1.867   4.035   0.040  0.00  0.00    +0.008 A 
ATOM      7  C   UNL     1       0.631   3.164   0.013  0.00  0.00    +0.053 C 
ATOM      8  C   UNL     1       1.163   3.914   1.239  0.00  0.00    +0.089 C 
ATOM      9  C   UNL     1       2.397   4.699   0.717  0.00  0.00    +0.074 C 
ATOM     10  C   UNL     1       2.494   4.349  -0.780  0.00  0.00    -0.054 C 
ATOM     11  C   UNL     1       0.349   5.152  -1.334  0.00  0.00    -0.076 C 
ATOM     12  C   UNL     1       1.335   6.154  -1.968  0.00  0.00    -0.020 C 
ATOM     13  C   UNL     1       2.736   5.636  -1.589  0.00  0.00    -0.016 C 
ATOM     14  C   UNL     1       1.981   6.145   0.868  0.00  0.00    +0.228 C 
ATOM     15  O   UNL     1       2.660   7.104   0.571  0.00  0.00    -0.275 OA
ATOM     16  N   UNL     1       0.747   6.200   1.381  0.00  0.00    -0.210 N 
ATOM     17  C   UNL     1       0.186   4.997   1.639  0.00  0.00    +0.229 C 
ATOM     18  O   UNL     1      -0.915   4.808   2.108  0.00  0.00    -0.275 OA
ATOM     19  C   UNL     1       1.096   1.733   0.001  0.00  0.00    +0.212 C 
ATOM     20  O   UNL     1       2.245   1.345  -0.013  0.00  0.00    -0.277 OA
ATOM     21  N   UNL     1      -0.011   0.966   0.007  0.00  0.00    -0.286 N 
ATOM     22  H   UNL     1       0.002  -0.004   0.002  0.00  0.00    +0.155 HD
ATOM     23  N   UNL     1       1.153   3.931  -1.122  0.00  0.00    +0.395 N 
ATOM     24  H   UNL     1       1.154   3.354  -1.972  0.00  0.00    -0.079 HD
ENDROOT
BRANCH  16  25
ATOM     25  C   UNL     1       0.086   7.410   1.637  0.00  0.00    +0.047 A 
ATOM     26  C   UNL     1      -0.703   7.994   0.655  0.00  0.00    +0.024 A 
ATOM     27  C   UNL     1      -1.353   9.185   0.911  0.00  0.00    +0.002 A 
ATOM     28  C   UNL     1      -1.218   9.797   2.144  0.00  0.00    +0.004 A 
ATOM     29  C   UNL     1      -0.434   9.218   3.124  0.00  0.00    -0.046 A 
ATOM     30  C   UNL     1       0.214   8.023   2.876  0.00  0.00    -0.026 A 
ATOM     31  C   UNL     1       1.065   7.390   3.947  0.00  0.00    +0.046 C 
ATOM     32  C   UNL     1      -0.290   9.888   4.466  0.00  0.00    +0.044 C 
ENDBRANCH  16  25
BRANCH   1  34
ATOM     33  C   UNL     1      -4.672   5.040  -1.370  0.00  0.00    +0.009 C 
ATOM     34  C   UNL     1      -4.288   4.681   0.067  0.00  0.00    +0.032 C 
ENDBRANCH   1  34
TORSDOF 2
