REMARK  Name = ZINC40568683
REMARK  15 active torsions:
REMARK  status: ('A' for Active; 'I' for Inactive)
REMARK    1  A    between atoms: C_1  and  C_2
REMARK    2  A    between atoms: C_2  and  N_3
REMARK    3  A    between atoms: C_4  and  C_36
REMARK    4  A    between atoms: C_7  and  C_10
REMARK    5  A    between atoms: C_10  and  C_12
REMARK    6  A    between atoms: C_10  and  C_24
REMARK    7  A    between atoms: C_14  and  O_22
REMARK    8  A    between atoms: C_15  and  O_20
REMARK    9  A    between atoms: C_17  and  O_18
REMARK   10  A    between atoms: O_18  and  C_19
REMARK   11  A    between atoms: O_20  and  C_21
REMARK   12  A    between atoms: O_22  and  C_23
REMARK   13  A    between atoms: C_25  and  C_34
REMARK   14  A    between atoms: N_26  and  C_32
REMARK   15  A    between atoms: C_32  and  C_33
REMARK                            x       y       z     vdW  Elec       q    Type
REMARK                         _______ _______ _______ _____ _____    ______ ____
ROOT
ATOM      1  C   UNL     1       5.138  -0.427  -1.943  0.00  0.00    +0.097 C 
ENDROOT
BRANCH   1   6
ATOM      2  N   UNL     1       3.537   0.302  -5.265  0.00  0.00    -0.312 N 
ATOM      3  C   UNL     1       3.727  -0.864  -5.936  0.00  0.00    +0.023 A 
ATOM      4  C   UNL     1       4.364  -1.903  -5.355  0.00  0.00    +0.072 A 
ATOM      5  C   UNL     1       4.840  -1.782  -4.034  0.00  0.00    +0.190 A 
ATOM      6  C   UNL     1       4.643  -0.592  -3.357  0.00  0.00    +0.076 A 
ATOM      7  C   UNL     1       3.982   0.458  -4.004  0.00  0.00    +0.259 A 
ATOM      8  O   UNL     1       3.803   1.516  -3.421  0.00  0.00    -0.267 OA
ATOM      9  O   UNL     1       5.481  -2.815  -3.437  0.00  0.00    -0.287 OA
ATOM     10  C   UNL     1       3.221  -0.999  -7.349  0.00  0.00    +0.064 C 
BRANCH   2  12
ATOM     11  C   UNL     1       1.342   1.314  -5.638  0.00  0.00    +0.027 C 
ATOM     12  C   UNL     1       2.841   1.409  -5.926  0.00  0.00    +0.122 C 
ENDBRANCH   2  12
ENDBRANCH   1   6
BRANCH   1  13
ATOM     13  C   UNL     1       4.376  -1.354  -1.032  0.00  0.00    +0.031 A 
ATOM     14  C   UNL     1       5.027  -2.054  -0.079  0.00  0.00    +0.027 A 
ATOM     15  N   UNL     1       4.355  -2.894   0.752  0.00  0.00    -0.312 N 
ATOM     16  C   UNL     1       3.023  -3.054   0.649  0.00  0.00    +0.255 A 
ATOM     17  O   UNL     1       2.440  -3.814   1.406  0.00  0.00    -0.268 OA
ATOM     18  C   UNL     1       2.304  -2.350  -0.324  0.00  0.00    +0.121 A 
ATOM     19  C   UNL     1       2.980  -1.490  -1.170  0.00  0.00    +0.190 A 
ATOM     20  O   UNL     1       2.311  -0.791  -2.118  0.00  0.00    -0.287 OA
ATOM     21  C   UNL     1       6.519  -1.901   0.067  0.00  0.00    +0.064 C 
BRANCH  15  22
ATOM     22  C   UNL     1       5.093  -3.638   1.776  0.00  0.00    +0.122 C 
ATOM     23  C   UNL     1       5.270  -2.760   3.016  0.00  0.00    +0.027 C 
ENDBRANCH  15  22
ENDBRANCH   1  13
BRANCH   1  24
ATOM     24  C   UNL     1       4.928   0.998  -1.500  0.00  0.00    +0.010 A 
ATOM     25  C   UNL     1       3.722   1.375  -0.940  0.00  0.00    +0.057 A 
ATOM     26  C   UNL     1       3.526   2.684  -0.532  0.00  0.00    +0.162 A 
ATOM     27  C   UNL     1       4.545   3.620  -0.686  0.00  0.00    +0.165 A 
ATOM     28  C   UNL     1       5.752   3.240  -1.248  0.00  0.00    +0.095 A 
ATOM     29  C   UNL     1       5.946   1.927  -1.650  0.00  0.00    +0.128 A 
BRANCH  29  30
ATOM     30  O   UNL     1       7.133   1.552  -2.197  0.00  0.00    -0.495 OA
ATOM     31  C   UNL     1       8.138   2.560  -2.321  0.00  0.00    +0.277 C 
ENDBRANCH  29  30
BRANCH  27  32
ATOM     32  O   UNL     1       4.354   4.906  -0.286  0.00  0.00    -0.491 OA
ATOM     33  C   UNL     1       5.443   5.812  -0.475  0.00  0.00    +0.277 C 
ENDBRANCH  27  32
BRANCH  26  34
ATOM     34  O   UNL     1       2.339   3.055   0.019  0.00  0.00    -0.491 OA
ATOM     35  C   UNL     1       1.338   2.043   0.146  0.00  0.00    +0.277 C 
ENDBRANCH  26  34
ENDBRANCH   1  24
TORSDOF 8
