REMARK  Name = ZINC22137363
REMARK  14 active torsions:
REMARK  status: ('A' for Active; 'I' for Inactive)
REMARK    1  A    between atoms: C_1  and  C_2
REMARK    2  A    between atoms: C_2  and  C_4
REMARK    3  A    between atoms: C_2  and  S_14
REMARK    4  A    between atoms: N_6  and  C_7
REMARK    5  A    between atoms: C_7  and  C_8
REMARK    6  A    between atoms: C_7  and  C_9
REMARK    7  A    between atoms: C_7  and  C_11
REMARK    8  A    between atoms: C_11  and  C_12
REMARK    9  A    between atoms: C_11  and  C_13
REMARK   10  A    between atoms: S_14  and  C_15
REMARK   11  A    between atoms: C_18  and  C_27
REMARK   12  A    between atoms: N_19  and  C_20
REMARK   13  A    between atoms: C_32  and  O_33
REMARK   14  A    between atoms: O_33  and  C_34
REMARK                            x       y       z     vdW  Elec       q    Type
REMARK                         _______ _______ _______ _____ _____    ______ ____
ROOT
ATOM      1  C   UNL     1      -2.380  -0.117  -1.528  0.00  0.00    +0.197 A 
ATOM      2  N   UNL     1      -1.770   0.677  -2.379  0.00  0.00    -0.122 NA
ATOM      3  N   UNL     1      -2.522   0.896  -3.397  0.00  0.00    -0.128 NA
ATOM      4  C   UNL     1      -3.661   0.255  -3.261  0.00  0.00    +0.173 A 
ATOM      5  N   UNL     1      -3.603  -0.419  -2.061  0.00  0.00    -0.270 N 
ENDROOT
BRANCH   5   6
ATOM      6  C   UNL     1      -4.592  -1.242  -1.502  0.00  0.00    +0.051 A 
ATOM      7  C   UNL     1      -4.920  -2.446  -2.111  0.00  0.00    +0.028 A 
ATOM      8  C   UNL     1      -5.894  -3.254  -1.558  0.00  0.00    +0.022 A 
ATOM      9  C   UNL     1      -6.543  -2.864  -0.399  0.00  0.00    +0.041 A 
ATOM     10  C   UNL     1      -6.217  -1.665   0.209  0.00  0.00    +0.022 A 
ATOM     11  C   UNL     1      -5.240  -0.856  -0.337  0.00  0.00    +0.028 A 
ATOM     12 CL   UNL     1      -7.768  -3.882   0.292  0.00  0.00    -0.084 Cl
ENDBRANCH   5   6
BRANCH   4  13
ATOM     13  C   UNL     1      -4.787   0.253  -4.217  0.00  0.00    +0.061 A 
ATOM     14  C   UNL     1      -6.093   0.446  -3.763  0.00  0.00    +0.015 A 
ATOM     15  C   UNL     1      -7.140   0.443  -4.661  0.00  0.00    +0.001 A 
ATOM     16  C   UNL     1      -6.902   0.249  -6.010  0.00  0.00    +0.004 A 
ATOM     17  C   UNL     1      -5.613   0.057  -6.472  0.00  0.00    +0.046 A 
ATOM     18  C   UNL     1      -4.550   0.063  -5.584  0.00  0.00    +0.131 A 
BRANCH  18  19
ATOM     19  O   UNL     1      -3.282  -0.120  -6.037  0.00  0.00    -0.494 OA
ATOM     20  C   UNL     1      -3.117  -0.308  -7.444  0.00  0.00    +0.277 C 
ENDBRANCH  18  19
ENDBRANCH   4  13
BRANCH   1  21
ATOM     21  S   UNL     1      -1.738  -0.691   0.010  0.00  0.00    -0.073 S 
BRANCH  21  23
ATOM     22  C   UNL     1      -0.245   1.592   0.206  0.00  0.00    +0.029 C 
ATOM     23  C   UNL     1      -0.096   0.072   0.113  0.00  0.00    +0.137 C 
BRANCH  23  24
ATOM     24  C   UNL     1       0.619  -0.439   1.337  0.00  0.00    +0.227 C 
ATOM     25  O   UNL     1      -0.013  -0.933   2.247  0.00  0.00    -0.275 OA
ATOM     26  N   UNL     1       1.961  -0.346   1.421  0.00  0.00    -0.296 N 
ATOM     27  H   UNL     1       2.467   0.049   0.694  0.00  0.00    +0.150 HD
BRANCH  26  28
ATOM     28  C   UNL     1       2.657  -0.843   2.611  0.00  0.00    +0.121 C 
ATOM     29  C   UNL     1       2.378  -2.338   2.778  0.00  0.00    +0.048 C 
BRANCH  28  30
ATOM     30  C   UNL     1       4.162  -0.619   2.453  0.00  0.00    +0.020 C 
ATOM     31  C   UNL     1       4.453   0.882   2.411  0.00  0.00    +0.010 C 
ATOM     32  C   UNL     1       4.899  -1.249   3.637  0.00  0.00    +0.010 C 
ENDBRANCH  28  30
BRANCH  28  33
ATOM     33  C   UNL     1       2.175  -0.119   3.799  0.00  0.00    +0.088 C 
ATOM     34  N   UNL     1       1.804   0.440   4.715  0.00  0.00    -0.194 NA
ENDBRANCH  28  33
ENDBRANCH  26  28
ENDBRANCH  23  24
ENDBRANCH  21  23
ENDBRANCH   1  21
TORSDOF 9
