REMARK  Name = ZINC09223575
REMARK  4 active torsions:
REMARK  status: ('A' for Active; 'I' for Inactive)
REMARK    1  A    between atoms: C_4  and  N_28
REMARK    2  A    between atoms: C_5  and  N_7
REMARK    3  A    between atoms: C_10  and  C_13
REMARK    4  A    between atoms: C_19  and  C_21
REMARK                            x       y       z     vdW  Elec       q    Type
REMARK                         _______ _______ _______ _____ _____    ______ ____
ROOT
ATOM      1  C   UNL     1       3.049   3.305  -0.010  0.00  0.00    +0.224 C 
ATOM      2  O   UNL     1       3.842   2.388  -0.022  0.00  0.00    -0.275 OA
ATOM      3  N   UNL     1       1.725   3.051   0.002  0.00  0.00    -0.238 N 
ATOM      4  C   UNL     1       1.270   1.742  -0.001  0.00  0.00    +0.314 A 
ATOM      5  N   UNL     1       2.014   0.663  -0.014  0.00  0.00    -0.092 NA
ATOM      6  N   UNL     1       1.259  -0.379  -0.012  0.00  0.00    -0.106 NA
ATOM      7  C   UNL     1       0.002  -0.004   0.002  0.00  0.00    +0.250 A 
ATOM      8  O   UNL     1      -0.016   1.346   0.009  0.00  0.00    -0.405 OA
ATOM      9  H   UNL     1       1.091   3.785   0.011  0.00  0.00    +0.159 HD
ENDROOT
BRANCH   7  10
ATOM     10  C   UNL     1      -1.177  -0.895   0.009  0.00  0.00    +0.040 A 
ATOM     11  C   UNL     1      -2.464  -0.355   0.029  0.00  0.00    +0.013 A 
ATOM     12  C   UNL     1      -3.560  -1.192   0.030  0.00  0.00    +0.002 A 
ATOM     13  C   UNL     1      -3.387  -2.565   0.021  0.00  0.00    +0.015 A 
ATOM     14  C   UNL     1      -2.114  -3.107   0.005  0.00  0.00    +0.019 A 
ATOM     15  C   UNL     1      -1.008  -2.281  -0.001  0.00  0.00    +0.028 A 
ATOM     16 BR   UNL     1      -1.888  -4.985  -0.007  0.00  0.00    -0.050 Br
ENDBRANCH   7  10
BRANCH   1  20
ATOM     17  N   UNL     1       5.047   6.834  -1.290  0.00  0.00    -0.328 N 
ATOM     18  C   UNL     1       5.570   6.185  -0.081  0.00  0.00    +0.106 C 
ATOM     19  C   UNL     1       5.074   4.738  -0.022  0.00  0.00    +0.031 C 
ATOM     20  C   UNL     1       3.543   4.728  -0.007  0.00  0.00    +0.078 C 
ATOM     21  C   UNL     1       3.024   5.453  -1.252  0.00  0.00    +0.031 C 
ATOM     22  C   UNL     1       3.579   6.879  -1.276  0.00  0.00    +0.106 C 
BRANCH  17  27
ATOM     23  C   UNL     1       5.918  10.340  -0.617  0.00  0.00    +0.002 A 
ATOM     24  C   UNL     1       6.652  10.649  -1.748  0.00  0.00    +0.002 A 
ATOM     25  C   UNL     1       6.853   9.693  -2.728  0.00  0.00    +0.034 A 
ATOM     26  C   UNL     1       6.322   8.427  -2.578  0.00  0.00    +0.147 A 
ATOM     27  C   UNL     1       5.585   8.114  -1.444  0.00  0.00    +0.060 A 
ATOM     28  C   UNL     1       5.380   9.078  -0.464  0.00  0.00    +0.025 A 
BRANCH  26  29
ATOM     29  N   UNL     1       6.538   7.405  -3.627  0.00  0.00    +0.058 N 
ATOM     30  O   UNL     1       7.184   7.680  -4.622  0.00  0.00    -0.126 OA
ATOM     31  O   UNL     1       6.069   6.288  -3.495  0.00  0.00    -0.126 OA
ENDBRANCH  26  29
ENDBRANCH  17  27
ENDBRANCH   1  20
TORSDOF 4
