REMARK  Name = ZINC38963632
REMARK  6 active torsions:
REMARK  status: ('A' for Active; 'I' for Inactive)
REMARK    1  A    between atoms: C_1  and  O_2
REMARK    2  A    between atoms: O_2  and  C_3
REMARK    3  A    between atoms: C_3  and  C_4
REMARK    4  A    between atoms: C_8  and  S_10
REMARK    5  A    between atoms: S_10  and  C_11
REMARK    6  A    between atoms: C_13  and  C_24
REMARK                            x       y       z     vdW  Elec       q    Type
REMARK                         _______ _______ _______ _____ _____    ______ ____
ROOT
ATOM      1  C   UNL     1       0.888  -2.918  -3.761  0.00  0.00    +0.171 C 
ATOM      2  C   UNL     1       1.432  -3.915  -4.766  0.00  0.00    -0.008 C 
ATOM      3  C   UNL     1       0.662  -4.149  -5.909  0.00  0.00    +0.002 A 
ATOM      4  C   UNL     1       1.095  -5.061  -6.894  0.00  0.00    +0.011 A 
ATOM      5  C   UNL     1       0.331  -5.274  -7.998  0.00  0.00    +0.021 A 
ATOM      6  C   UNL     1      -0.879  -4.606  -8.181  0.00  0.00    +0.043 A 
ATOM      7  C   UNL     1      -1.353  -3.707  -7.257  0.00  0.00    +0.044 A 
ATOM      8  C   UNL     1      -0.611  -3.443  -6.093  0.00  0.00    +0.042 A 
ATOM      9  N   UNL     1      -1.073  -2.568  -5.193  0.00  0.00    -0.284 N 
ATOM     10  C   UNL     1      -0.437  -2.265  -4.080  0.00  0.00    +0.235 C 
ATOM     11  O   UNL     1      -0.919  -1.458  -3.306  0.00  0.00    -0.274 OA
ATOM     12 CL   UNL     1      -1.811  -4.919  -9.612  0.00  0.00    -0.083 Cl
ATOM     13  H   UNL     1      -1.922  -2.132  -5.371  0.00  0.00    +0.155 HD
ENDROOT
BRANCH   2  14
ATOM     14  C   UNL     1       2.666  -4.579  -4.557  0.00  0.00    -0.001 A 
ATOM     15  C   UNL     1       2.691  -5.957  -4.284  0.00  0.00    +0.010 A 
ATOM     16  C   UNL     1       3.894  -6.593  -4.082  0.00  0.00    +0.001 A 
ATOM     17  C   UNL     1       5.081  -5.879  -4.147  0.00  0.00    +0.001 A 
ATOM     18  C   UNL     1       5.070  -4.521  -4.415  0.00  0.00    +0.020 A 
ATOM     19  C   UNL     1       3.875  -3.865  -4.626  0.00  0.00    +0.048 A 
ATOM     20 CL   UNL     1       3.864  -2.163  -4.969  0.00  0.00    -0.083 Cl
ENDBRANCH   2  14
BRANCH   1  21
ATOM     21  S   UNL     1       0.721  -3.769  -2.168  0.00  0.00    -0.070 S 
BRANCH  21  26
ATOM     22  C   UNL     1      -0.039  -0.231  -0.645  0.00  0.00    +0.075 A 
ATOM     23  C   UNL     1      -0.243  -0.471   0.683  0.00  0.00    +0.095 A 
ATOM     24  C   UNL     1      -0.146  -1.791   1.158  0.00  0.00    +0.252 A 
ATOM     25  N   UNL     1       0.146  -2.776   0.282  0.00  0.00    -0.302 N 
ATOM     26  C   UNL     1       0.340  -2.477  -1.032  0.00  0.00    +0.170 A 
ATOM     27  N   UNL     1       0.241  -1.237  -1.471  0.00  0.00    -0.226 NA
ATOM     28  O   UNL     1      -0.323  -2.041   2.339  0.00  0.00    -0.268 OA
ATOM     29  H   UNL     1       0.218  -3.694   0.588  0.00  0.00    +0.171 HD
BRANCH  22  30
ATOM     30  C   UNL     1      -0.137   1.175  -1.179  0.00  0.00    +0.215 C 
BRANCH  30  32
ATOM     31  C   UNL     1       1.160   2.919  -2.189  0.00  0.00    +0.194 C 
ATOM     32  O   UNL     1       1.143   1.593  -1.658  0.00  0.00    -0.377 OA
ENDBRANCH  30  32
ENDBRANCH  22  30
ENDBRANCH  21  26
ENDBRANCH   1  21
TORSDOF 5
