REMARK  Name = ZINC35862177
REMARK  8 active torsions:
REMARK  status: ('A' for Active; 'I' for Inactive)
REMARK    1  A    between atoms: C_4  and  C_7
REMARK    2  A    between atoms: C_11  and  O_23
REMARK    3  A    between atoms: C_18  and  C_20
REMARK    4  A    between atoms: O_23  and  C_24
REMARK    5  A    between atoms: C_24  and  C_25
REMARK    6  A    between atoms: C_28  and  C_30
REMARK    7  A    between atoms: N_32  and  C_33
REMARK    8  A    between atoms: C_33  and  C_34
REMARK                            x       y       z     vdW  Elec       q    Type
REMARK                         _______ _______ _______ _____ _____    ______ ____
ROOT
ATOM      1  C   UNL     1       3.700  -0.717  -0.049  0.00  0.00    +0.137 C 
ATOM      2  C   UNL     1       3.952  -1.286  -1.423  0.00  0.00    -0.016 A 
ATOM      3  C   UNL     1       3.773  -0.446  -2.513  0.00  0.00    +0.051 A 
ATOM      4  C   UNL     1       3.998  -0.908  -3.799  0.00  0.00    +0.121 A 
ATOM      5  C   UNL     1       4.407  -2.219  -3.994  0.00  0.00    +0.046 A 
ATOM      6  C   UNL     1       4.580  -3.051  -2.910  0.00  0.00    +0.007 A 
ATOM      7  C   UNL     1       4.348  -2.590  -1.619  0.00  0.00    -0.040 A 
ATOM      8  C   UNL     1       4.532  -3.567  -0.487  0.00  0.00    +0.054 C 
ATOM      9  C   UNL     1       4.718  -2.833   0.840  0.00  0.00    +0.113 C 
ATOM     10  N   UNL     1       3.671  -1.803   0.937  0.00  0.00    -0.290 N 
ATOM     11  C   UNL     1       2.723  -1.854   1.894  0.00  0.00    +0.219 C 
ATOM     12  O   UNL     1       1.829  -1.035   1.907  0.00  0.00    -0.275 OA
ENDROOT
BRANCH   1  16
ATOM     13  C   UNL     1      -0.049   1.330  -0.025  0.00  0.00    +0.000 A 
ATOM     14  C   UNL     1       1.101   1.988   0.371  0.00  0.00    +0.000 A 
ATOM     15  C   UNL     1       2.314   1.326   0.364  0.00  0.00    +0.006 A 
ATOM     16  C   UNL     1       2.378   0.005  -0.040  0.00  0.00    -0.023 A 
ATOM     17  C   UNL     1       1.228  -0.653  -0.435  0.00  0.00    +0.006 A 
ATOM     18  C   UNL     1       0.015   0.010  -0.429  0.00  0.00    +0.000 A 
ENDBRANCH   1  16
BRANCH  11  19
ATOM     19  C   UNL     1       2.775  -2.930   2.948  0.00  0.00    +0.075 C 
ATOM     20  C   UNL     1       1.688  -4.006   2.914  0.00  0.00    +0.013 C 
ATOM     21  C   UNL     1       1.671  -2.935   4.007  0.00  0.00    +0.013 C 
ENDBRANCH  11  19
BRANCH   4  22
ATOM     22  O   UNL     1       3.820  -0.081  -4.862  0.00  0.00    -0.484 OA
BRANCH  22  23
ATOM     23  C   UNL     1       4.071  -0.628  -6.158  0.00  0.00    +0.303 C 
BRANCH  23  24
ATOM     24  C   UNL     1       3.823   0.426  -7.206  0.00  0.00    +0.143 A 
ATOM     25  C   UNL     1       4.744   1.291  -7.686  0.00  0.00    +0.049 A 
ATOM     26  C   UNL     1       4.098   2.095  -8.639  0.00  0.00    +0.055 A 
ATOM     27  C   UNL     1       2.800   1.675  -8.692  0.00  0.00    +0.190 A 
ATOM     28  O   UNL     1       2.654   0.658  -7.818  0.00  0.00    -0.452 OA
BRANCH  27  29
ATOM     29  C   UNL     1       1.749   2.229  -9.552  0.00  0.00    +0.280 C 
ATOM     30  O   UNL     1       2.003   3.149 -10.307  0.00  0.00    -0.267 OA
ATOM     31  N   UNL     1       0.502   1.720  -9.506  0.00  0.00    -0.305 N 
ATOM     32  H   UNL     1       0.299   0.987  -8.904  0.00  0.00    +0.149 HD
BRANCH  31  33
ATOM     33  C   UNL     1      -0.547   2.274 -10.365  0.00  0.00    +0.140 C 
BRANCH  33  34
ATOM     34  C   UNL     1      -1.838   1.534 -10.122  0.00  0.00    -0.027 A 
ATOM     35  C   UNL     1      -2.156   0.403 -10.858  0.00  0.00    +0.025 A 
ATOM     36  C   UNL     1      -3.348  -0.250 -10.607  0.00  0.00    +0.111 A 
ATOM     37  N   UNL     1      -4.178   0.193  -9.683  0.00  0.00    -0.263 NA
ATOM     38  C   UNL     1      -3.908   1.265  -8.965  0.00  0.00    +0.111 A 
ATOM     39  C   UNL     1      -2.732   1.966  -9.155  0.00  0.00    +0.025 A 
ENDBRANCH  33  34
ENDBRANCH  31  33
ENDBRANCH  27  29
ENDBRANCH  23  24
ENDBRANCH  22  23
ENDBRANCH   4  22
TORSDOF 8
