REMARK  Name = ZINC19908532
REMARK  12 active torsions:
REMARK  status: ('A' for Active; 'I' for Inactive)
REMARK    1  A    between atoms: C_1  and  C_2
REMARK    2  A    between atoms: C_6  and  N_8
REMARK    3  A    between atoms: C_9  and  C_11
REMARK    4  A    between atoms: C_15  and  N_16
REMARK    5  A    between atoms: C_17  and  C_19
REMARK    6  A    between atoms: C_19  and  N_20
REMARK    7  A    between atoms: N_20  and  C_21
REMARK    8  A    between atoms: C_21  and  C_22
REMARK    9  A    between atoms: C_28  and  C_32
REMARK   10  A    between atoms: C_32  and  C_33
REMARK   11  A    between atoms: C_32  and  C_34
REMARK   12  A    between atoms: C_32  and  C_35
REMARK                            x       y       z     vdW  Elec       q    Type
REMARK                         _______ _______ _______ _____ _____    ______ ____
ROOT
ATOM      1  C   UNL     1      -1.256   7.362  -0.163  0.00  0.00    +0.069 A 
ATOM      2  C   UNL     1      -1.214   8.026  -1.455  0.00  0.00    -0.023 A 
ATOM      3  C   UNL     1      -1.237   9.375  -1.409  0.00  0.00    -0.004 A 
ATOM      4  S   UNL     1      -1.300   9.768   0.316  0.00  0.00    -0.077 S 
ATOM      5  C   UNL     1      -1.303   8.163   0.969  0.00  0.00    +0.084 A 
ATOM      6  C   UNL     1      -1.208  10.319  -2.571  0.00  0.00    +0.046 C 
ATOM      7  C   UNL     1      -0.780   9.536  -3.820  0.00  0.00    -0.000 C 
ATOM      8  C   UNL     1      -1.600   8.245  -3.898  0.00  0.00    +0.009 C 
ATOM      9  C   UNL     1      -1.169   7.287  -2.787  0.00  0.00    +0.037 C 
ENDROOT
BRANCH   1  11
ATOM     10  N   UNL     1      -0.069   5.241   0.028  0.00  0.00    -0.281 N 
ATOM     11  C   UNL     1      -1.242   5.899  -0.059  0.00  0.00    +0.251 C 
ATOM     12  O   UNL     1      -2.290   5.280  -0.052  0.00  0.00    -0.270 OA
ATOM     13  H   UNL     1       0.873   5.803   0.109  0.00  0.00    +0.155 HD
BRANCH  10  19
ATOM     14  C   UNL     1       1.964   1.024   1.528  0.00  0.00    +0.044 C 
ATOM     15  C   UNL     1       0.925   1.773   0.734  0.00  0.00    -0.049 A 
ATOM     16  C   UNL     1      -0.010   1.076  -0.009  0.00  0.00    +0.003 A 
ATOM     17  C   UNL     1      -0.962   1.759  -0.743  0.00  0.00    +0.002 A 
ATOM     18  C   UNL     1      -0.988   3.140  -0.729  0.00  0.00    +0.023 A 
ATOM     19  C   UNL     1      -0.050   3.842   0.016  0.00  0.00    +0.034 A 
ATOM     20  C   UNL     1       0.908   3.153   0.749  0.00  0.00    +0.026 A 
ENDBRANCH  10  19
ENDBRANCH   1  11
BRANCH   5  21
ATOM     21  N   UNL     1      -1.344   7.774   2.299  0.00  0.00    -0.281 N 
ATOM     22  C   UNL     1      -1.387   8.705   3.272  0.00  0.00    +0.201 C 
ATOM     23  O   UNL     1      -1.391   9.883   2.985  0.00  0.00    -0.278 OA
ATOM     24  H   UNL     1      -1.341   6.705   2.560  0.00  0.00    +0.155 HD
BRANCH  22  25
ATOM     25  C   UNL     1      -1.432   8.282   4.718  0.00  0.00    +0.016 C 
BRANCH  25  26
ATOM     26  N   UNL     1      -1.474   9.474   5.576  0.00  0.00    +0.389 N 
ATOM     27  H   UNL     1      -0.576  10.084   5.400  0.00  0.00    -0.085 HD
ATOM     28  H   UNL     1      -2.371  10.064   5.339  0.00  0.00    -0.085 HD
BRANCH  26  29
ATOM     29  C   UNL     1      -1.518   9.099   6.996  0.00  0.00    -0.006 C 
BRANCH  29  30
ATOM     30  C   UNL     1      -1.561  10.345   7.843  0.00  0.00    +0.088 A 
ATOM     31  C   UNL     1      -2.674  10.983   8.248  0.00  0.00    +0.042 A 
ATOM     32  C   UNL     1      -2.253  12.093   9.015  0.00  0.00    +0.041 A 
ATOM     33  C   UNL     1      -0.908  12.068   9.033  0.00  0.00    +0.195 A 
ATOM     34  O   UNL     1      -0.495  11.003   8.326  0.00  0.00    -0.470 OA
ENDBRANCH  29  30
ENDBRANCH  26  29
ENDBRANCH  25  26
ENDBRANCH  22  25
ENDBRANCH   5  21
BRANCH   7  35
ATOM     35  C   UNL     1      -1.035  10.382  -5.069  0.00  0.00    -0.035 C 
ATOM     36  C   UNL     1      -0.228  11.679  -4.981  0.00  0.00    +0.011 C 
ATOM     37  C   UNL     1      -0.608   9.599  -6.312  0.00  0.00    +0.011 C 
ATOM     38  C   UNL     1      -2.526  10.715  -5.164  0.00  0.00    +0.011 C 
ENDBRANCH   7  35
TORSDOF 8
