REMARK  Name = ZINC14658814
REMARK  8 active torsions:
REMARK  status: ('A' for Active; 'I' for Inactive)
REMARK    1  A    between atoms: C_1  and  C_2
REMARK    2  A    between atoms: C_2  and  C_3
REMARK    3  A    between atoms: C_2  and  O_4
REMARK    4  A    between atoms: O_4  and  C_5
REMARK    5  A    between atoms: C_8  and  C_12
REMARK    6  A    between atoms: N_14  and  N_15
REMARK    7  A    between atoms: C_16  and  C_18
REMARK    8  A    between atoms: C_21  and  N_24
REMARK                            x       y       z     vdW  Elec       q    Type
REMARK                         _______ _______ _______ _____ _____    ______ ____
ROOT
ATOM      1  C   UNL     1       0.817  -4.103  -0.963  0.00  0.00    +0.260 C 
ATOM      2  O   UNL     1       1.925  -4.505  -1.258  0.00  0.00    -0.269 OA
ATOM      3  N   UNL     1      -0.212  -4.969  -0.870  0.00  0.00    -0.230 N 
ATOM      4  H   UNL     1      -1.096  -4.649  -0.634  0.00  0.00    +0.173 HD
ENDROOT
BRANCH   1   8
ATOM      5  C   UNL     1       0.185   0.032  -0.226  0.00  0.00    +0.135 A 
ATOM      6  C   UNL     1       1.453  -0.427  -0.563  0.00  0.00    +0.047 A 
ATOM      7  C   UNL     1       1.662  -1.767  -0.803  0.00  0.00    +0.017 A 
ATOM      8  C   UNL     1       0.597  -2.666  -0.707  0.00  0.00    +0.039 A 
ATOM      9  C   UNL     1      -0.677  -2.202  -0.367  0.00  0.00    +0.032 A 
ATOM     10  C   UNL     1      -0.876  -0.861  -0.124  0.00  0.00    +0.060 A 
ATOM     11 BR   UNL     1      -2.598  -0.231   0.342  0.00  0.00    -0.046 Br
BRANCH   5  12
ATOM     12  O   UNL     1      -0.016   1.353   0.009  0.00  0.00    -0.488 OA
BRANCH  12  14
ATOM     13  C   UNL     1       1.462   2.618  -1.424  0.00  0.00    +0.051 C 
ATOM     14  C   UNL     1       1.138   2.195   0.011  0.00  0.00    +0.167 C 
ATOM     15  C   UNL     1       0.862   3.438   0.859  0.00  0.00    +0.051 C 
ENDBRANCH  12  14
ENDBRANCH   5  12
ENDBRANCH   1   8
BRANCH   3  16
ATOM     16  N   UNL     1      -0.003  -6.333  -1.113  0.00  0.00    -0.230 N 
ATOM     17  C   UNL     1      -1.032  -7.199  -1.020  0.00  0.00    +0.260 C 
ATOM     18  O   UNL     1      -2.140  -6.797  -0.724  0.00  0.00    -0.269 OA
ATOM     19  H   UNL     1       0.881  -6.654  -1.349  0.00  0.00    +0.173 HD
BRANCH  17  20
ATOM     20  C   UNL     1      -0.811  -8.639  -1.276  0.00  0.00    +0.038 A 
ATOM     21  C   UNL     1       0.459  -9.103  -1.621  0.00  0.00    +0.015 A 
ATOM     22  C   UNL     1       0.659 -10.448  -1.854  0.00  0.00    +0.033 A 
ATOM     23  C   UNL     1      -0.399 -11.334  -1.758  0.00  0.00    +0.126 A 
ATOM     24  C   UNL     1      -1.662 -10.880  -1.422  0.00  0.00    +0.033 A 
ATOM     25  C   UNL     1      -1.874  -9.538  -1.181  0.00  0.00    +0.015 A 
BRANCH  23  26
ATOM     26  N   UNL     1      -0.179 -12.775  -2.015  0.00  0.00    +0.056 N 
ATOM     27  O   UNL     1      -1.108 -13.558  -1.931  0.00  0.00    -0.126 OA
ATOM     28  O   UNL     1       0.932 -13.178  -2.312  0.00  0.00    -0.126 OA
ENDBRANCH  23  26
ENDBRANCH  17  20
ENDBRANCH   3  16
TORSDOF 6
