REMARK  Name = ZINC35893546
REMARK  6 active torsions:
REMARK  status: ('A' for Active; 'I' for Inactive)
REMARK    1  A    between atoms: C_1  and  N_2
REMARK    2  A    between atoms: N_2  and  C_3
REMARK    3  A    between atoms: C_3  and  C_4
REMARK    4  A    between atoms: C_10  and  C_12
REMARK    5  A    between atoms: C_15  and  C_30
REMARK    6  A    between atoms: N_22  and  C_23
REMARK                            x       y       z     vdW  Elec       q    Type
REMARK                         _______ _______ _______ _____ _____    ______ ____
ROOT
ATOM      1  C   UNL     1      -0.543   0.152  -2.736  0.00  0.00    +0.093 C 
ATOM      2  C   UNL     1      -0.287  -0.869  -3.846  0.00  0.00    +0.024 C 
ATOM      3  C   UNL     1      -0.071  -0.140  -5.173  0.00  0.00    +0.037 C 
ATOM      4  C   UNL     1       1.158   0.767  -5.059  0.00  0.00    +0.117 C 
ATOM      5  N   UNL     1       0.983   1.657  -3.903  0.00  0.00    -0.284 N 
ATOM      6  C   UNL     1       0.680   1.063  -2.593  0.00  0.00    +0.122 C 
ATOM      7  C   UNL     1       1.098   2.993  -4.041  0.00  0.00    +0.307 C 
ATOM      8  O   UNL     1       0.860   3.724  -3.099  0.00  0.00    -0.252 OA
ATOM      9  N   UNL     1       1.476   3.518  -5.223  0.00  0.00    -0.267 N 
ATOM     10  H   UNL     1       1.603   2.941  -5.992  0.00  0.00    +0.156 HD
ENDROOT
BRANCH   9  11
ATOM     11  C   UNL     1       1.688   4.898  -5.340  0.00  0.00    +0.070 A 
ATOM     12  C   UNL     1       1.874   5.673  -4.204  0.00  0.00    +0.026 A 
ATOM     13  C   UNL     1       2.082   7.033  -4.323  0.00  0.00    +0.002 A 
ATOM     14  C   UNL     1       2.104   7.625  -5.572  0.00  0.00    +0.003 A 
ATOM     15  C   UNL     1       1.919   6.857  -6.708  0.00  0.00    +0.040 A 
ATOM     16  C   UNL     1       1.716   5.494  -6.596  0.00  0.00    +0.145 A 
ATOM     17  F   UNL     1       1.541   4.743  -7.705  0.00  0.00    -0.204 F 
ENDBRANCH   9  11
BRANCH   3  18
ATOM     18  C   UNL     1       0.148  -1.148  -6.272  0.00  0.00    -0.043 A 
ATOM     19  C   UNL     1       1.206  -2.033  -6.196  0.00  0.00    +0.004 A 
ATOM     20  C   UNL     1       1.407  -2.958  -7.204  0.00  0.00    +0.000 A 
ATOM     21  C   UNL     1       0.549  -2.998  -8.287  0.00  0.00    +0.000 A 
ATOM     22  C   UNL     1      -0.511  -2.113  -8.362  0.00  0.00    +0.000 A 
ATOM     23  C   UNL     1      -0.714  -1.191  -7.352  0.00  0.00    +0.004 A 
ENDBRANCH   3  18
BRANCH   1  26
ATOM     24  C   UNL     1      -1.067   1.598  -0.355  0.00  0.00    +0.132 C 
ATOM     25  N   UNL     1      -1.036   0.134  -0.312  0.00  0.00    -0.300 N 
ATOM     26  C   UNL     1      -0.788  -0.568  -1.435  0.00  0.00    +0.220 C 
ATOM     27  O   UNL     1      -0.762  -1.780  -1.399  0.00  0.00    -0.275 OA
BRANCH  25  28
ATOM     28  C   UNL     1      -1.274  -0.567   0.953  0.00  0.00    +0.142 C 
BRANCH  28  29
ATOM     29  C   UNL     1      -2.747  -0.845   1.103  0.00  0.00    -0.030 A 
ATOM     30  C   UNL     1      -3.566   0.080   1.723  0.00  0.00    +0.005 A 
ATOM     31  C   UNL     1      -4.917  -0.176   1.861  0.00  0.00    +0.000 A 
ATOM     32  C   UNL     1      -5.450  -1.357   1.379  0.00  0.00    +0.000 A 
ATOM     33  C   UNL     1      -4.631  -2.282   0.758  0.00  0.00    +0.000 A 
ATOM     34  C   UNL     1      -3.281  -2.024   0.616  0.00  0.00    +0.005 A 
ENDBRANCH  28  29
ENDBRANCH  25  28
ENDBRANCH   1  26
TORSDOF 5
