REMARK  Name = ZINC38545996
REMARK  11 active torsions:
REMARK  status: ('A' for Active; 'I' for Inactive)
REMARK    1  A    between atoms: C_1  and  C_2
REMARK    2  A    between atoms: C_3  and  C_33
REMARK    3  A    between atoms: C_5  and  N_25
REMARK    4  A    between atoms: C_6  and  C_7
REMARK    5  A    between atoms: C_7  and  C_9
REMARK    6  A    between atoms: C_7  and  N_19
REMARK    7  A    between atoms: C_12  and  O_17
REMARK    8  A    between atoms: C_13  and  O_15
REMARK    9  A    between atoms: O_15  and  C_16
REMARK   10  A    between atoms: O_17  and  C_18
REMARK   11  A    between atoms: C_26  and  C_28
REMARK                            x       y       z     vdW  Elec       q    Type
REMARK                         _______ _______ _______ _____ _____    ______ ____
ROOT
ATOM      1  C   UNL     1       0.511   0.209   2.429  0.00  0.00    -0.004 C 
ENDROOT
BRANCH   1   7
ATOM      2  C   UNL     1       0.405   1.901   0.059  0.00  0.00    +0.045 C 
ATOM      3  C   UNL     1       0.102   0.428  -0.039  0.00  0.00    -0.037 A 
ATOM      4  C   UNL     1      -0.218  -0.130  -1.232  0.00  0.00    -0.008 A 
ATOM      5  S   UNL     1      -0.469  -1.840  -0.788  0.00  0.00    -0.078 S 
ATOM      6  C   UNL     1      -0.131  -1.701   0.960  0.00  0.00    +0.074 A 
ATOM      7  C   UNL     1       0.153  -0.374   1.086  0.00  0.00    -0.025 A 
ATOM      8  C   UNL     1      -0.333   0.525  -2.584  0.00  0.00    +0.052 C 
BRANCH   6   9
ATOM      9  N   UNL     1      -0.149  -2.694   1.941  0.00  0.00    -0.275 N 
ATOM     10  C   UNL     1      -0.325  -3.984   1.591  0.00  0.00    +0.255 C 
ATOM     11  O   UNL     1      -0.469  -4.283   0.420  0.00  0.00    -0.269 OA
ATOM     12  H   UNL     1      -0.035  -2.456   2.874  0.00  0.00    +0.156 HD
BRANCH  10  13
ATOM     13  C   UNL     1      -0.344  -5.027   2.621  0.00  0.00    +0.074 A 
ATOM     14  C   UNL     1      -0.503  -6.396   2.476  0.00  0.00    +0.021 A 
ATOM     15  C   UNL     1      -0.476  -7.127   3.639  0.00  0.00    +0.008 A 
ATOM     16  C   UNL     1      -0.300  -6.482   4.819  0.00  0.00    +0.046 A 
ATOM     17  S   UNL     1      -0.158  -4.865   4.387  0.00  0.00    -0.092 S 
ENDBRANCH  10  13
ENDBRANCH   6   9
ENDBRANCH   1   7
BRANCH   1  18
ATOM     18  N   UNL     1       1.537  -0.627   3.067  0.00  0.00    +0.387 N 
ATOM     19  C   UNL     1       1.968   0.004   4.321  0.00  0.00    -0.078 C 
ATOM     20  C   UNL     1       2.977  -0.902   5.031  0.00  0.00    -0.019 C 
ATOM     21  C   UNL     1       4.191  -1.116   4.121  0.00  0.00    -0.004 C 
ATOM     22  C   UNL     1       3.720  -1.705   2.788  0.00  0.00    -0.019 C 
ATOM     23  C   UNL     1       2.683  -0.769   2.162  0.00  0.00    -0.078 C 
ATOM     24  H   UNL     1       1.151  -1.537   3.267  0.00  0.00    -0.080 HD
ENDBRANCH   1  18
BRANCH   1  25
ATOM     25  C   UNL     1      -0.717   0.252   3.301  0.00  0.00    -0.053 A 
ATOM     26  C   UNL     1      -0.968  -0.777   4.189  0.00  0.00    +0.006 A 
ATOM     27  C   UNL     1      -2.093  -0.742   4.992  0.00  0.00    +0.049 A 
ATOM     28  C   UNL     1      -2.971   0.326   4.908  0.00  0.00    +0.161 A 
ATOM     29  C   UNL     1      -2.718   1.363   4.015  0.00  0.00    +0.162 A 
ATOM     30  C   UNL     1      -1.586   1.324   3.216  0.00  0.00    +0.051 A 
BRANCH  29  31
ATOM     31  O   UNL     1      -3.576   2.413   3.929  0.00  0.00    -0.491 OA
ATOM     32  C   UNL     1      -3.253   3.441   2.989  0.00  0.00    +0.277 C 
ENDBRANCH  29  31
BRANCH  28  33
ATOM     33  O   UNL     1      -4.078   0.362   5.697  0.00  0.00    -0.491 OA
ATOM     34  C   UNL     1      -4.274  -0.736   6.590  0.00  0.00    +0.277 C 
ENDBRANCH  28  33
ENDBRANCH   1  25
TORSDOF 7
