REMARK  Name = ZINC39227586
REMARK  9 active torsions:
REMARK  status: ('A' for Active; 'I' for Inactive)
REMARK    1  A    between atoms: C_1  and  C_2
REMARK    2  A    between atoms: C_5  and  C_8
REMARK    3  A    between atoms: C_8  and  C_9
REMARK    4  A    between atoms: C_9  and  N_10
REMARK    5  A    between atoms: C_11  and  C_13
REMARK    6  A    between atoms: C_17  and  C_19
REMARK    7  A    between atoms: N_32  and  C_35
REMARK    8  A    between atoms: C_35  and  C_36
REMARK    9  A    between atoms: C_35  and  C_37
REMARK                            x       y       z     vdW  Elec       q    Type
REMARK                         _______ _______ _______ _____ _____    ______ ____
ROOT
ATOM      1  C   UNL     1       5.236 -11.177  -0.074  0.00  0.00    -0.017 A 
ATOM      2  C   UNL     1       6.442 -10.473  -0.065  0.00  0.00    +0.012 A 
ATOM      3  C   UNL     1       7.645 -11.143  -0.071  0.00  0.00    +0.047 A 
ATOM      4  C   UNL     1       7.673 -12.532  -0.085  0.00  0.00    +0.132 A 
ATOM      5  C   UNL     1       6.462 -13.246  -0.090  0.00  0.00    +0.060 A 
ATOM      6  C   UNL     1       5.244 -12.567  -0.081  0.00  0.00    +0.023 A 
ATOM      7  C   UNL     1       6.500 -14.720  -0.093  0.00  0.00    +0.170 C 
ATOM      8  O   UNL     1       5.506 -15.384   0.114  0.00  0.00    -0.292 OA
ATOM      9  C   UNL     1       7.848 -15.363  -0.368  0.00  0.00    +0.127 C 
ATOM     10  C   UNL     1       8.904 -14.531   0.371  0.00  0.00    +0.114 C 
ATOM     11  O   UNL     1       8.860 -13.183  -0.094  0.00  0.00    -0.485 OA
ATOM     12  C   UNL     1       8.614 -14.566   1.874  0.00  0.00    +0.030 C 
ATOM     13  C   UNL     1       9.717 -13.812   2.619  0.00  0.00    -0.075 C 
ATOM     14  N   UNL     1      11.014 -14.446   2.352  0.00  0.00    +0.381 N 
ATOM     15  C   UNL     1      11.332 -14.349   0.923  0.00  0.00    -0.075 C 
ATOM     16  C   UNL     1      10.291 -15.123   0.111  0.00  0.00    +0.030 C 
ATOM     17  H   UNL     1      10.973 -15.417   2.622  0.00  0.00    -0.081 HD
ENDROOT
BRANCH   1  22
ATOM     18  C   UNL     1       2.722  -8.369  -0.059  0.00  0.00    +0.037 A 
ATOM     19  C   UNL     1       1.523  -9.084  -0.061  0.00  0.00    +0.013 A 
ATOM     20  C   UNL     1       1.540 -10.464  -0.069  0.00  0.00    +0.001 A 
ATOM     21  C   UNL     1       2.742 -11.146  -0.073  0.00  0.00    +0.008 A 
ATOM     22  C   UNL     1       3.946 -10.443  -0.070  0.00  0.00    -0.017 A 
ATOM     23  C   UNL     1       3.937  -9.052  -0.069  0.00  0.00    +0.021 A 
BRANCH  18  25
ATOM     24  N   UNL     1       1.527  -6.231  -0.040  0.00  0.00    -0.311 N 
ATOM     25  C   UNL     1       2.703  -6.890  -0.050  0.00  0.00    +0.244 C 
ATOM     26  O   UNL     1       3.748  -6.269  -0.053  0.00  0.00    -0.270 OA
ATOM     27  H   UNL     1       0.694  -6.727  -0.038  0.00  0.00    +0.149 HD
BRANCH  24  28
ATOM     28  C   UNL     1       1.508  -4.767  -0.032  0.00  0.00    +0.109 C 
BRANCH  28  29
ATOM     29  C   UNL     1       0.059  -4.275  -0.021  0.00  0.00    +0.054 C 
BRANCH  29  34
ATOM     30  C   UNL     1      -0.018   1.503   0.010  0.00  0.00    +0.044 C 
ATOM     31  C   UNL     1       0.002  -0.004   0.002  0.00  0.00    -0.050 A 
ATOM     32  C   UNL     1       0.006  -0.689  -1.199  0.00  0.00    +0.003 A 
ATOM     33  C   UNL     1       0.025  -2.071  -1.206  0.00  0.00    +0.004 A 
ATOM     34  C   UNL     1       0.040  -2.768  -0.013  0.00  0.00    -0.046 A 
ATOM     35  C   UNL     1       0.037  -2.084   1.188  0.00  0.00    +0.004 A 
ATOM     36  C   UNL     1       0.023  -0.702   1.195  0.00  0.00    +0.003 A 
ENDBRANCH  29  34
ENDBRANCH  28  29
ENDBRANCH  24  28
ENDBRANCH  18  25
ENDBRANCH   1  22
BRANCH  14  37
ATOM     37  C   UNL     1      12.058 -13.768   3.132  0.00  0.00    -0.075 C 
ATOM     38  C   UNL     1      11.733 -13.877   4.623  0.00  0.00    -0.014 C 
ATOM     39  C   UNL     1      13.410 -14.428   2.855  0.00  0.00    -0.014 C 
ENDBRANCH  14  37
TORSDOF 6
