REMARK  Name = ZINC18211779
REMARK  9 active torsions:
REMARK  status: ('A' for Active; 'I' for Inactive)
REMARK    1  A    between atoms: C_1  and  C_2
REMARK    2  A    between atoms: C_3  and  O_28
REMARK    3  A    between atoms: C_4  and  C_8
REMARK    4  A    between atoms: C_11  and  O_15
REMARK    5  A    between atoms: C_13  and  O_14
REMARK    6  A    between atoms: O_15  and  C_16
REMARK    7  A    between atoms: C_16  and  C_17
REMARK    8  A    between atoms: N_20  and  C_22
REMARK    9  A    between atoms: O_28  and  C_29
REMARK                            x       y       z     vdW  Elec       q    Type
REMARK                         _______ _______ _______ _____ _____    ______ ____
ROOT
ATOM      1  C   UNL     1       0.041  -3.337  -1.534  0.00  0.00    +0.047 A 
ATOM      2  C   UNL     1       0.037  -3.192  -2.920  0.00  0.00    +0.017 A 
ATOM      3  C   UNL     1       0.048  -4.309  -3.730  0.00  0.00    +0.046 A 
ATOM      4  C   UNL     1       0.063  -5.579  -3.168  0.00  0.00    +0.124 A 
ATOM      5  C   UNL     1       0.066  -5.731  -1.789  0.00  0.00    +0.091 A 
ATOM      6  C   UNL     1       0.062  -4.616  -0.969  0.00  0.00    +0.130 A 
ENDROOT
BRANCH   1  10
ATOM      7  C   UNL     1      -0.018   1.503   0.010  0.00  0.00    +0.069 C 
ATOM      8  C   UNL     1       0.002  -0.004   0.002  0.00  0.00    +0.076 A 
ATOM      9  C   UNL     1       0.008  -0.796  -1.097  0.00  0.00    +0.176 A 
ATOM     10  C   UNL     1       0.029  -2.138  -0.661  0.00  0.00    +0.138 A 
ATOM     11  N   UNL     1       0.035  -2.140   0.655  0.00  0.00    -0.170 NA
ATOM     12  N   UNL     1       0.024  -0.811   1.096  0.00  0.00    -0.278 N 
ATOM     13  H   UNL     1       0.029  -0.517   2.020  0.00  0.00    +0.189 HD
BRANCH   9  14
ATOM     14  O   UNL     1      -0.005  -0.372  -2.391  0.00  0.00    -0.452 OA
BRANCH  14  15
ATOM     15  C   UNL     1       1.189  -0.157  -3.003  0.00  0.00    +0.129 A 
ATOM     16  C   UNL     1       2.373  -0.374  -2.313  0.00  0.00    +0.048 A 
ATOM     17  C   UNL     1       3.585  -0.155  -2.938  0.00  0.00    +0.023 A 
ATOM     18  C   UNL     1       3.619   0.281  -4.251  0.00  0.00    +0.041 A 
ATOM     19  C   UNL     1       2.439   0.498  -4.941  0.00  0.00    +0.023 A 
ATOM     20  C   UNL     1       1.225   0.275  -4.322  0.00  0.00    +0.048 A 
ATOM     21 CL   UNL     1       5.144   0.556  -5.034  0.00  0.00    -0.084 Cl
ENDBRANCH  14  15
ENDBRANCH   9  14
ENDBRANCH   1  10
BRANCH   6  22
ATOM     22  O   UNL     1       0.072  -4.763   0.381  0.00  0.00    -0.506 OA
ATOM     23  H   UNL     1      -0.809  -4.818   0.777  0.00  0.00    +0.292 HD
ENDBRANCH   6  22
BRANCH   4  24
ATOM     24  O   UNL     1       0.073  -6.675  -3.971  0.00  0.00    -0.487 OA
BRANCH  24  25
ATOM     25  C   UNL     1       0.068  -6.446  -5.381  0.00  0.00    +0.267 C 
BRANCH  25  26
ATOM     26  C   UNL     1       0.081  -7.767  -6.105  0.00  0.00    +0.027 A 
ATOM     27  C   UNL     1       1.220  -8.480  -6.497  0.00  0.00    +0.141 A 
ATOM     28  N   UNL     1       0.831  -9.576  -7.096  0.00  0.00    -0.174 NA
ATOM     29  N   UNL     1      -0.570  -9.597  -7.106  0.00  0.00    -0.239 N 
ATOM     30  C   UNL     1      -1.006  -8.477  -6.486  0.00  0.00    +0.121 A 
BRANCH  29  31
ATOM     31  C   UNL     1      -1.377 -10.603  -7.656  0.00  0.00    +0.065 A 
ATOM     32  C   UNL     1      -2.760 -10.493  -7.601  0.00  0.00    +0.028 A 
ATOM     33  C   UNL     1      -3.552 -11.485  -8.145  0.00  0.00    +0.002 A 
ATOM     34  C   UNL     1      -2.969 -12.587  -8.743  0.00  0.00    +0.000 A 
ATOM     35  C   UNL     1      -1.592 -12.699  -8.800  0.00  0.00    +0.002 A 
ATOM     36  C   UNL     1      -0.794 -11.708  -8.262  0.00  0.00    +0.028 A 
ENDBRANCH  29  31
ENDBRANCH  25  26
ENDBRANCH  24  25
ENDBRANCH   4  24
TORSDOF 8
