REMARK  Name = ZINC06197699
REMARK  6 active torsions:
REMARK  status: ('A' for Active; 'I' for Inactive)
REMARK    1  A    between atoms: C_7  and  N_16
REMARK    2  A    between atoms: C_8  and  O_15
REMARK    3  A    between atoms: N_9  and  C_10
REMARK    4  A    between atoms: C_10  and  N_46
REMARK    5  A    between atoms: N_17  and  C_18
REMARK    6  A    between atoms: C_18  and  C_20
REMARK                            x       y       z     vdW  Elec       q    Type
REMARK                         _______ _______ _______ _____ _____    ______ ____
ROOT
ATOM      1  C   UNL     1      -6.991  -4.102   0.009  0.00  0.00    +0.001 A 
ATOM      2  C   UNL     1      -6.487  -5.393  -0.001  0.00  0.00    +0.002 A 
ATOM      3  C   UNL     1      -5.126  -5.615  -0.009  0.00  0.00    +0.026 A 
ATOM      4  C   UNL     1      -4.246  -4.539  -0.006  0.00  0.00    +0.052 A 
ATOM      5  C   UNL     1      -4.758  -3.233   0.004  0.00  0.00    +0.031 A 
ATOM      6  C   UNL     1      -6.134  -3.022   0.012  0.00  0.00    +0.012 A 
ATOM      7  C   UNL     1      -3.587  -2.333   0.004  0.00  0.00    +0.152 A 
ATOM      8  C   UNL     1      -2.461  -3.164  -0.012  0.00  0.00    +0.220 A 
ATOM      9  N   UNL     1      -2.863  -4.457  -0.011  0.00  0.00    -0.327 N 
ENDROOT
BRANCH   8  10
ATOM     10  O   UNL     1      -1.179  -2.743  -0.023  0.00  0.00    -0.492 OA
ATOM     11  H   UNL     1      -0.796  -2.625   0.857  0.00  0.00    +0.294 HD
ENDBRANCH   8  10
BRANCH   7  12
ATOM     12  N   UNL     1      -3.600  -0.997   0.012  0.00  0.00    -0.151 NA
ATOM     13  N   UNL     1      -2.490  -0.341   0.011  0.00  0.00    -0.075 NA
BRANCH  13  14
ATOM     14  C   UNL     1      -2.503   1.007   0.019  0.00  0.00    +0.286 C 
ATOM     15  O   UNL     1      -3.564   1.605   0.027  0.00  0.00    -0.266 OA
BRANCH  14  16
ATOM     16  C   UNL     1      -1.231   1.759   0.017  0.00  0.00    +0.059 A 
ATOM     17  C   UNL     1      -0.013   1.076   0.008  0.00  0.00    +0.016 A 
ATOM     18  C   UNL     1       1.171   1.782   0.001  0.00  0.00    +0.021 A 
ATOM     19  C   UNL     1       1.155   3.168   0.008  0.00  0.00    +0.042 A 
ATOM     20  C   UNL     1      -0.049   3.852   0.023  0.00  0.00    +0.040 A 
ATOM     21  C   UNL     1      -1.241   3.156   0.030  0.00  0.00    +0.055 A 
ATOM     22 CL   UNL     1      -2.750   4.015   0.048  0.00  0.00    -0.083 Cl
ATOM     23 CL   UNL     1       2.650   4.050  -0.002  0.00  0.00    -0.083 Cl
ENDBRANCH  14  16
ENDBRANCH  13  14
ENDBRANCH   7  12
BRANCH   9  24
ATOM     24  C   UNL     1      -1.960  -5.610  -0.022  0.00  0.00    +0.050 C 
BRANCH  24  29
ATOM     25  C   UNL     1      -1.180  -4.819  -2.189  0.00  0.00    -0.076 C 
ATOM     26  C   UNL     1      -0.445  -5.470  -3.387  0.00  0.00    -0.020 C 
ATOM     27  C   UNL     1       0.232  -6.704  -2.748  0.00  0.00    -0.020 C 
ATOM     28  C   UNL     1      -0.576  -6.988  -1.468  0.00  0.00    -0.076 C 
ATOM     29  N   UNL     1      -1.647  -5.991  -1.433  0.00  0.00    +0.392 N 
ATOM     30  H   UNL     1      -2.492  -6.374  -1.873  0.00  0.00    -0.079 HD
ENDBRANCH  24  29
ENDBRANCH   9  24
TORSDOF 6
