REMARK  Name = ZINC36684469
REMARK  9 active torsions:
REMARK  status: ('A' for Active; 'I' for Inactive)
REMARK    1  A    between atoms: C_3  and  C_6
REMARK    2  A    between atoms: C_6  and  C_8
REMARK    3  A    between atoms: C_6  and  N_30
REMARK    4  A    between atoms: C_8  and  N_9
REMARK    5  A    between atoms: C_10  and  C_12
REMARK    6  A    between atoms: C_12  and  C_13
REMARK    7  A    between atoms: C_13  and  C_14
REMARK    8  A    between atoms: C_17  and  S_20
REMARK    9  A    between atoms: S_20  and  N_23
REMARK                            x       y       z     vdW  Elec       q    Type
REMARK                         _______ _______ _______ _____ _____    ______ ____
ROOT
ATOM      1  N   UNL     1       5.570   0.024  -1.358  0.00  0.00    -0.316 N 
ATOM      2  C   UNL     1       6.234  -0.409  -2.448  0.00  0.00    +0.213 C 
ATOM      3  O   UNL     1       5.635  -0.605  -3.484  0.00  0.00    -0.276 OA
ATOM      4  H   UNL     1       6.049   0.180  -0.529  0.00  0.00    +0.149 HD
ENDROOT
BRANCH   1   5
ATOM      5  C   UNL     1       4.126   0.260  -1.425  0.00  0.00    +0.096 C 
BRANCH   5   6
ATOM      6  C   UNL     1       3.602   0.617  -0.032  0.00  0.00    +0.016 C 
BRANCH   6   7
ATOM      7  N   UNL     1       3.975  -0.441   0.917  0.00  0.00    +0.387 N 
ATOM      8  C   UNL     1       3.460  -1.729   0.439  0.00  0.00    -0.078 C 
ATOM      9  C   UNL     1       3.914  -2.846   1.381  0.00  0.00    -0.019 C 
ATOM     10  C   UNL     1       3.374  -2.570   2.788  0.00  0.00    -0.004 C 
ATOM     11  C   UNL     1       3.857  -1.191   3.247  0.00  0.00    -0.019 C 
ATOM     12  C   UNL     1       3.405  -0.136   2.235  0.00  0.00    -0.078 C 
ATOM     13  H   UNL     1       4.980  -0.488   0.989  0.00  0.00    -0.081 HD
ENDBRANCH   6   7
BRANCH   6  16
ATOM     14  C   UNL     1       0.038   1.554  -0.081  0.00  0.00    +0.041 A 
ATOM     15  C   UNL     1       1.408   1.895   0.005  0.00  0.00    +0.043 A 
ATOM     16  C   UNL     1       2.102   0.746  -0.077  0.00  0.00    +0.093 A 
ATOM     17  O   UNL     1       1.230  -0.268  -0.207  0.00  0.00    -0.469 OA
ATOM     18  C   UNL     1      -0.023   0.217  -0.210  0.00  0.00    +0.195 A 
ENDBRANCH   6  16
ENDBRANCH   5   6
ENDBRANCH   1   5
BRANCH   2  19
ATOM     19  C   UNL     1       7.720  -0.651  -2.379  0.00  0.00    +0.100 C 
BRANCH  19  20
ATOM     20  C   UNL     1       8.221  -1.135  -3.741  0.00  0.00    +0.044 C 
BRANCH  20  21
ATOM     21  C   UNL     1       9.707  -1.377  -3.672  0.00  0.00    -0.047 A 
ATOM     22  C   UNL     1      10.588  -0.353  -3.964  0.00  0.00    +0.005 A 
ATOM     23  C   UNL     1      11.951  -0.576  -3.901  0.00  0.00    +0.029 A 
ATOM     24  C   UNL     1      12.433  -1.821  -3.546  0.00  0.00    +0.105 A 
ATOM     25  C   UNL     1      11.551  -2.845  -3.252  0.00  0.00    +0.029 A 
ATOM     26  C   UNL     1      10.188  -2.622  -3.312  0.00  0.00    +0.005 A 
BRANCH  24  27
ATOM     27  S   UNL     1      14.170  -2.105  -3.466  0.00  0.00    +0.061 S 
ATOM     28  O   UNL     1      14.362  -3.502  -3.640  0.00  0.00    -0.153 OA
ATOM     29  O   UNL     1      14.778  -1.141  -4.315  0.00  0.00    -0.153 OA
BRANCH  27  30
ATOM     30  N   UNL     1      14.654  -1.749  -1.923  0.00  0.00    -0.177 NA
ATOM     31  C   UNL     1      15.063  -0.396  -1.620  0.00  0.00    +0.109 C 
ATOM     32  C   UNL     1      16.582  -0.241  -1.882  0.00  0.00    +0.017 C 
ATOM     33  C   UNL     1      17.353  -0.966  -0.861  0.00  0.00    +0.001 C 
ATOM     34  C   UNL     1      17.123  -2.474  -0.853  0.00  0.00    +0.001 C 
ATOM     35  C   UNL     1      15.904  -2.789  -0.021  0.00  0.00    +0.017 C 
ATOM     36  C   UNL     1      14.645  -2.825  -0.913  0.00  0.00    +0.109 C 
ENDBRANCH  27  30
ENDBRANCH  24  27
ENDBRANCH  20  21
ENDBRANCH  19  20
ENDBRANCH   2  19
TORSDOF 9
