REMARK  Name = ZINC43525576
REMARK  9 active torsions:
REMARK  status: ('A' for Active; 'I' for Inactive)
REMARK    1  A    between atoms: C_1  and  N_2
REMARK    2  A    between atoms: C_3  and  C_15
REMARK    3  A    between atoms: C_5  and  C_7
REMARK    4  A    between atoms: C_10  and  O_13
REMARK    5  A    between atoms: O_13  and  C_14
REMARK    6  A    between atoms: C_24  and  C_26
REMARK    7  A    between atoms: C_26  and  N_27
REMARK    8  A    between atoms: N_27  and  S_28
REMARK    9  A    between atoms: S_28  and  C_31
REMARK                            x       y       z     vdW  Elec       q    Type
REMARK                         _______ _______ _______ _____ _____    ______ ____
ROOT
ATOM      1  C   UNL     1      -0.005  -0.316  -2.526  0.00  0.00    +0.024 C 
ATOM      2  C   UNL     1       1.432  -0.140  -3.022  0.00  0.00    -0.068 C 
ATOM      3  N   UNL     1       1.676  -1.015  -4.171  0.00  0.00    +0.383 N 
ATOM      4  C   UNL     1       1.511  -2.420  -3.793  0.00  0.00    -0.078 C 
ATOM      5  C   UNL     1       0.076  -2.671  -3.323  0.00  0.00    -0.015 C 
ATOM      6  C   UNL     1      -0.712  -1.355  -3.406  0.00  0.00    -0.007 C 
ATOM      7  C   UNL     1      -0.678  -0.862  -4.859  0.00  0.00    -0.010 C 
ATOM      8  C   UNL     1       0.784  -0.670  -5.280  0.00  0.00    -0.053 C 
ATOM      9  H   UNL     1       2.629  -0.883  -4.475  0.00  0.00    -0.081 HD
ENDROOT
BRANCH   1  12
ATOM     10  C   UNL     1      -2.056   0.406  -0.321  0.00  0.00    +0.172 C 
ATOM     11  N   UNL     1      -0.894  -0.468  -0.144  0.00  0.00    -0.271 N 
ATOM     12  C   UNL     1       0.008  -0.790  -1.096  0.00  0.00    +0.041 A 
ATOM     13  C   UNL     1       0.924  -1.614  -0.541  0.00  0.00    +0.053 A 
ATOM     14  C   UNL     1       0.570  -1.805   0.809  0.00  0.00    +0.093 A 
ATOM     15  N   UNL     1      -0.521  -1.109   1.045  0.00  0.00    -0.171 NA
BRANCH  14  16
ATOM     16  C   UNL     1       1.303  -2.640   1.793  0.00  0.00    +0.002 A 
ATOM     17  C   UNL     1       2.458  -3.319   1.411  0.00  0.00    +0.013 A 
ATOM     18  C   UNL     1       3.137  -4.094   2.327  0.00  0.00    +0.046 A 
ATOM     19  C   UNL     1       2.671  -4.198   3.631  0.00  0.00    +0.120 A 
ATOM     20  C   UNL     1       1.520  -3.523   4.015  0.00  0.00    +0.046 A 
ATOM     21  C   UNL     1       0.840  -2.742   3.104  0.00  0.00    +0.013 A 
BRANCH  19  22
ATOM     22  O   UNL     1       3.341  -4.963   4.532  0.00  0.00    -0.495 OA
ATOM     23  C   UNL     1       2.806  -5.026   5.855  0.00  0.00    +0.277 C 
ENDBRANCH  19  22
ENDBRANCH  14  16
ENDBRANCH   1  12
BRANCH   8  24
ATOM     24  C   UNL     1       1.091  -1.572  -6.478  0.00  0.00    +0.091 C 
BRANCH  24  25
ATOM     25  N   UNL     1       2.512  -1.468  -6.816  0.00  0.00    -0.191 NA
ATOM     26  H   UNL     1       3.045  -0.741  -6.455  0.00  0.00    +0.148 HD
BRANCH  25  27
ATOM     27  S   UNL     1       3.211  -2.590  -7.813  0.00  0.00    +0.065 S 
ATOM     28  O   UNL     1       4.570  -2.206  -7.968  0.00  0.00    -0.153 OA
ATOM     29  O   UNL     1       2.832  -3.867  -7.315  0.00  0.00    -0.153 OA
BRANCH  27  30
ATOM     30  C   UNL     1       2.456  -2.423  -9.396  0.00  0.00    +0.142 A 
ATOM     31  C   UNL     1       2.828  -1.643 -10.441  0.00  0.00    +0.036 A 
ATOM     32  C   UNL     1       2.076  -1.674 -11.600  0.00  0.00    +0.010 A 
ATOM     33  C   UNL     1       0.989  -2.482 -11.659  0.00  0.00    +0.047 A 
ATOM     34  S   UNL     1       1.007  -3.241 -10.043  0.00  0.00    -0.077 S 
ENDBRANCH  27  30
ENDBRANCH  25  27
ENDBRANCH  24  25
ENDBRANCH   8  24
TORSDOF 7
