REMARK  Name = ZINC42707891
REMARK  5 active torsions:
REMARK  status: ('A' for Active; 'I' for Inactive)
REMARK    1  A    between atoms: C_1  and  C_2
REMARK    2  A    between atoms: C_2  and  C_4
REMARK    3  A    between atoms: C_2  and  C_15
REMARK    4  A    between atoms: C_4  and  N_5
REMARK    5  A    between atoms: N_5  and  C_6
REMARK                            x       y       z     vdW  Elec       q    Type
REMARK                         _______ _______ _______ _____ _____    ______ ____
ROOT
ATOM      1  N   UNL     1       2.125  -0.091  -1.209  0.00  0.00    -0.288 N 
ATOM      2  C   UNL     1       3.121  -0.971  -0.594  0.00  0.00    +0.133 C 
ATOM      3  C   UNL     1       2.502   1.093  -1.732  0.00  0.00    +0.308 C 
ATOM      4  O   UNL     1       1.675   1.823  -2.242  0.00  0.00    -0.252 OA
ATOM      5  N   UNL     1       3.796   1.467  -1.688  0.00  0.00    -0.247 N 
ATOM      6  C   UNL     1       4.186   2.688  -2.227  0.00  0.00    +0.189 A 
ATOM      7  N   UNL     1       3.449   3.612  -2.811  0.00  0.00    -0.126 NA
ATOM      8  N   UNL     1       3.950   4.683  -3.256  0.00  0.00    -0.148 NA
ATOM      9  C   UNL     1       5.247   4.884  -3.133  0.00  0.00    +0.183 A 
ATOM     10  S   UNL     1       5.723   3.378  -2.297  0.00  0.00    -0.039 S 
ATOM     11  H   UNL     1       4.456   0.884  -1.281  0.00  0.00    +0.158 HD
ENDROOT
BRANCH   1  12
ATOM     12  C   UNL     1       0.718  -0.497  -1.257  0.00  0.00    +0.123 C 
BRANCH  12  14
ATOM     13  C   UNL     1      -0.019   1.526   0.010  0.00  0.00    +0.021 C 
ATOM     14  C   UNL     1       0.002  -0.004   0.002  0.00  0.00    +0.116 C 
BRANCH  14  15
ATOM     15  C   UNL     1      -1.412  -0.526   0.013  0.00  0.00    +0.360 C 
ATOM     16  O   UNL     1      -1.810  -1.227  -0.902  0.00  0.00    -0.246 OA
ATOM     17  O   UNL     1      -2.158  -0.246   0.936  0.00  0.00    -0.246 OA
ENDBRANCH  14  15
ENDBRANCH  12  14
ENDBRANCH   1  12
TORSDOF 3
