REMARK  Name = ZINC03040358
REMARK  10 active torsions:
REMARK  status: ('A' for Active; 'I' for Inactive)
REMARK    1  A    between atoms: C_1  and  C_2
REMARK    2  A    between atoms: C_5  and  C_8
REMARK    3  A    between atoms: C_8  and  N_9
REMARK    4  A    between atoms: C_12  and  C_25
REMARK    5  A    between atoms: N_27  and  C_28
REMARK    6  A    between atoms: C_28  and  C_29
REMARK    7  A    between atoms: C_29  and  C_31
REMARK    8  A    between atoms: C_29  and  C_32
REMARK    9  A    between atoms: C_32  and  N_75
REMARK   10  A    between atoms: C_35  and  C_38
REMARK                            x       y       z     vdW  Elec       q    Type
REMARK                         _______ _______ _______ _____ _____    ______ ____
ROOT
ATOM      1  N   UNL     1       5.389  -0.373   0.656  0.00  0.00    -0.262 N 
ATOM      2  C   UNL     1       5.685   0.577   1.624  0.00  0.00    +0.051 A 
ATOM      3  C   UNL     1       6.422   0.183   2.734  0.00  0.00    +0.037 A 
ATOM      4  C   UNL     1       6.746   1.107   3.729  0.00  0.00    +0.039 A 
ATOM      5  C   UNL     1       6.328   2.436   3.610  0.00  0.00    +0.014 A 
ATOM      6  C   UNL     1       5.597   2.825   2.510  0.00  0.00    +0.017 A 
ATOM      7  C   UNL     1       5.273   1.904   1.519  0.00  0.00    +0.034 A 
ATOM      8  S   UNL     1       4.333   2.434   0.125  0.00  0.00    -0.087 S 
ATOM      9  C   UNL     1       2.879   1.444   0.203  0.00  0.00    +0.025 A 
ATOM     10  C   UNL     1       1.634   2.049   0.320  0.00  0.00    +0.016 A 
ATOM     11  C   UNL     1       0.492   1.277   0.377  0.00  0.00    +0.001 A 
ATOM     12  C   UNL     1       0.582  -0.104   0.318  0.00  0.00    +0.001 A 
ATOM     13  C   UNL     1       1.808  -0.720   0.203  0.00  0.00    +0.014 A 
ATOM     14  C   UNL     1       2.980   0.047   0.145  0.00  0.00    +0.051 A 
ATOM     15  C   UNL     1       4.272  -0.626   0.029  0.00  0.00    +0.252 C 
ATOM     16  O   UNL     1       4.311  -1.550  -0.761  0.00  0.00    -0.270 OA
ENDROOT
BRANCH   4  17
ATOM     17  C   UNL     1       7.529   0.682   4.904  0.00  0.00    +0.244 C 
ATOM     18  O   UNL     1       7.892  -0.474   5.007  0.00  0.00    -0.270 OA
ATOM     19  N   UNL     1       7.841   1.575   5.865  0.00  0.00    -0.311 N 
ATOM     20  H   UNL     1       7.551   2.497   5.783  0.00  0.00    +0.149 HD
BRANCH  19  21
ATOM     21  C   UNL     1       8.619   1.152   7.032  0.00  0.00    +0.106 C 
BRANCH  21  22
ATOM     22  C   UNL     1       8.834   2.348   7.962  0.00  0.00    -0.014 C 
ATOM     23  C   UNL     1       9.699   3.394   7.256  0.00  0.00    +0.007 C 
BRANCH  22  24
ATOM     24  C   UNL     1       9.536   1.882   9.238  0.00  0.00    -0.074 C 
BRANCH  24  31
ATOM     25  C   UNL     1      10.702   2.757  11.171  0.00  0.00    -0.079 C 
ATOM     26  C   UNL     1      10.900   4.008  12.032  0.00  0.00    -0.016 C 
ATOM     27  C   UNL     1       9.580   4.360  12.723  0.00  0.00    -0.018 C 
ATOM     28  C   UNL     1       8.498   4.572  11.661  0.00  0.00    -0.016 C 
ATOM     29  C   UNL     1       8.369   3.305  10.811  0.00  0.00    -0.079 C 
ATOM     30  C   UNL     1       9.756   5.644  13.536  0.00  0.00    +0.007 C 
ATOM     31  N   UNL     1       9.666   3.035  10.154  0.00  0.00    +0.380 N 
ATOM     32  H   UNL     1       9.944   3.861   9.612  0.00  0.00    -0.082 HD
ENDBRANCH  24  31
ENDBRANCH  22  24
ENDBRANCH  21  22
ENDBRANCH  19  21
ENDBRANCH   4  17
BRANCH   1  33
ATOM     33  C   UNL     1       6.513  -1.232   0.276  0.00  0.00    +0.149 C 
BRANCH  33  38
ATOM     34  C   UNL     1       9.442   1.235  -4.051  0.00  0.00    +0.044 C 
ATOM     35  C   UNL     1       8.679   0.591  -2.923  0.00  0.00    -0.050 A 
ATOM     36  C   UNL     1       9.033   0.850  -1.612  0.00  0.00    +0.003 A 
ATOM     37  C   UNL     1       8.332   0.260  -0.577  0.00  0.00    +0.005 A 
ATOM     38  C   UNL     1       7.277  -0.589  -0.853  0.00  0.00    -0.030 A 
ATOM     39  C   UNL     1       6.926  -0.853  -2.164  0.00  0.00    +0.005 A 
ATOM     40  C   UNL     1       7.624  -0.259  -3.199  0.00  0.00    +0.003 A 
ENDBRANCH  33  38
ENDBRANCH   1  33
TORSDOF 7
