REMARK  Name = ZINC43111555
REMARK  6 active torsions:
REMARK  status: ('A' for Active; 'I' for Inactive)
REMARK    1  A    between atoms: C_1  and  C_2
REMARK    2  A    between atoms: C_2  and  C_4
REMARK    3  A    between atoms: C_2  and  N_19
REMARK    4  A    between atoms: C_4  and  C_6
REMARK    5  A    between atoms: C_4  and  O_11
REMARK    6  A    between atoms: O_11  and  C_12
REMARK                            x       y       z     vdW  Elec       q    Type
REMARK                         _______ _______ _______ _____ _____    ______ ____
ROOT
ATOM      1  C   UNL     1       0.755  -0.539   1.304  0.00  0.00    +0.196 C 
ENDROOT
BRANCH   1   2
ATOM      2  C   UNL     1       0.813  -2.030   1.514  0.00  0.00    +0.028 A 
ATOM      3  C   UNL     1      -0.020  -2.825   2.230  0.00  0.00    +0.015 A 
ATOM      4  C   UNL     1       0.230  -4.183   2.282  0.00  0.00    +0.008 A 
ATOM      5  C   UNL     1       1.300  -4.681   1.615  0.00  0.00    +0.045 A 
ATOM      6  S   UNL     1       1.991  -3.210   0.876  0.00  0.00    -0.098 S 
ENDBRANCH   1   2
BRANCH   1   8
ATOM      7  C   UNL     1      -0.044   1.278  -0.213  0.00  0.00    -0.010 C 
ATOM      8  C   UNL     1       0.015  -0.236  -0.000  0.00  0.00    -0.032 C 
BRANCH   8   9
ATOM      9  N   UNL     1      -1.350  -0.773   0.074  0.00  0.00    +0.382 N 
ATOM     10  H   UNL     1      -1.838  -0.573  -0.786  0.00  0.00    -0.089 HD
ATOM     11  H   UNL     1      -1.311  -1.772   0.215  0.00  0.00    -0.089 HD
ATOM     12  H   UNL     1      -1.839  -0.344   0.846  0.00  0.00    -0.089 HD
ENDBRANCH   8   9
ENDBRANCH   1   8
BRANCH   1  13
ATOM     13  O   UNL     1       2.083  -0.016   1.231  0.00  0.00    -0.484 OA
BRANCH  13  14
ATOM     14  C   UNL     1       2.287   1.224   1.748  0.00  0.00    +0.134 A 
ATOM     15  C   UNL     1       1.239   1.908   2.348  0.00  0.00    +0.047 A 
ATOM     16  C   UNL     1       1.449   3.169   2.872  0.00  0.00    +0.004 A 
ATOM     17  C   UNL     1       2.702   3.750   2.799  0.00  0.00    +0.001 A 
ATOM     18  C   UNL     1       3.747   3.071   2.202  0.00  0.00    +0.018 A 
ATOM     19  C   UNL     1       3.544   1.807   1.681  0.00  0.00    +0.055 A 
ATOM     20  I   UNL     1       5.132   0.775   0.784  0.00  0.00    -0.040 I 
ENDBRANCH  13  14
ENDBRANCH   1  13
TORSDOF 5
