REMARK  Name = ZINC22367049
REMARK  10 active torsions:
REMARK  status: ('A' for Active; 'I' for Inactive)
REMARK    1  A    between atoms: C_1  and  C_2
REMARK    2  A    between atoms: C_9  and  C_38
REMARK    3  A    between atoms: C_9  and  C_39
REMARK    4  A    between atoms: C_11  and  N_13
REMARK    5  A    between atoms: C_14  and  C_16
REMARK    6  A    between atoms: C_16  and  N_17
REMARK    7  A    between atoms: N_17  and  C_18
REMARK    8  A    between atoms: N_17  and  S_34
REMARK    9  A    between atoms: C_21  and  C_24
REMARK   10  A    between atoms: S_34  and  C_37
REMARK                            x       y       z     vdW  Elec       q    Type
REMARK                         _______ _______ _______ _____ _____    ______ ____
ROOT
ATOM      1  N   UNL     1       2.353   3.888   0.000  0.00  0.00    -0.199 N 
ENDROOT
BRANCH   1   2
ATOM      2  C   UNL     1       1.157   3.167   0.019  0.00  0.00    +0.051 A 
ATOM      3  C   UNL     1       1.042   2.029   0.807  0.00  0.00    +0.025 A 
ATOM      4  C   UNL     1      -0.142   1.319   0.824  0.00  0.00    +0.006 A 
ATOM      5  C   UNL     1      -1.211   1.736   0.052  0.00  0.00    -0.041 A 
ATOM      6  C   UNL     1      -1.102   2.872  -0.730  0.00  0.00    +0.006 A 
ATOM      7  C   UNL     1       0.079   3.587  -0.750  0.00  0.00    +0.025 A 
BRANCH   5   8
ATOM      8  C   UNL     1      -2.499   0.954   0.067  0.00  0.00    -0.003 C 
ATOM      9  C   UNL     1      -3.060   0.922   1.490  0.00  0.00    +0.015 C 
ATOM     10  C   UNL     1      -4.368   0.129   1.506  0.00  0.00    -0.010 C 
ATOM     11  C   UNL     1      -5.381   0.797   0.574  0.00  0.00    +0.007 C 
ATOM     12  C   UNL     1      -4.820   0.829  -0.849  0.00  0.00    -0.010 C 
ATOM     13  C   UNL     1      -3.512   1.623  -0.865  0.00  0.00    +0.015 C 
ATOM     14  C   UNL     1      -4.555  -0.601  -1.325  0.00  0.00    +0.007 C 
ATOM     15  C   UNL     1      -3.542  -1.269  -0.393  0.00  0.00    -0.010 C 
ATOM     16  C   UNL     1      -4.103  -1.301   1.030  0.00  0.00    +0.007 C 
ATOM     17  C   UNL     1      -2.234  -0.475  -0.409  0.00  0.00    +0.015 C 
ENDBRANCH   5   8
ENDBRANCH   1   2
BRANCH   1  18
ATOM     18  S   UNL     1       3.751   3.159  -0.508  0.00  0.00    +0.043 S 
ATOM     19  O   UNL     1       4.781   3.785   0.244  0.00  0.00    -0.155 OA
ATOM     20  O   UNL     1       3.502   1.766  -0.377  0.00  0.00    -0.155 OA
ATOM     21  C   UNL     1       3.898   3.605  -2.260  0.00  0.00    +0.218 C 
ENDBRANCH   1  18
BRANCH   1  22
ATOM     22  C   UNL     1       2.372   5.288   0.430  0.00  0.00    +0.226 C 
BRANCH  22  24
ATOM     23  N   UNL     1       2.567   6.547   2.550  0.00  0.00    -0.307 N 
ATOM     24  C   UNL     1       2.525   5.352   1.927  0.00  0.00    +0.233 C 
ATOM     25  O   UNL     1       2.611   4.329   2.572  0.00  0.00    -0.274 OA
ATOM     26  H   UNL     1       2.490   7.475   1.965  0.00  0.00    +0.149 HD
BRANCH  23  37
ATOM     27  C   UNL     1       8.339   6.213   5.313  0.00  0.00    +0.044 C 
ATOM     28  C   UNL     1       6.874   6.326   4.978  0.00  0.00    -0.047 A 
ATOM     29  C   UNL     1       6.325   5.521   3.997  0.00  0.00    +0.004 A 
ATOM     30  C   UNL     1       4.981   5.623   3.692  0.00  0.00    +0.009 A 
ATOM     31  C   UNL     1       4.179   6.530   4.364  0.00  0.00    +0.015 A 
ATOM     32  C   UNL     1       4.726   7.338   5.345  0.00  0.00    +0.126 A 
ATOM     33  C   UNL     1       6.080   7.231   5.650  0.00  0.00    +0.049 A 
ATOM     34  O   UNL     1       3.978   8.244   6.026  0.00  0.00    -0.486 OA
ATOM     35  C   UNL     1       2.557   8.101   5.986  0.00  0.00    +0.107 C 
ATOM     36  C   UNL     1       2.130   7.926   4.522  0.00  0.00    +0.074 C 
ATOM     37  C   UNL     1       2.717   6.609   4.006  0.00  0.00    +0.110 C 
ATOM     38  C   UNL     1       1.897   9.353   6.568  0.00  0.00    +0.055 C 
ATOM     39  C   UNL     1       2.138   6.873   6.796  0.00  0.00    +0.055 C 
ENDBRANCH  23  37
ENDBRANCH  22  24
ENDBRANCH   1  22
TORSDOF 6
