REMARK  Name = ZINC03477702
REMARK  4 active torsions:
REMARK  status: ('A' for Active; 'I' for Inactive)
REMARK    1  A    between atoms: C_4  and  C_7
REMARK    2  A    between atoms: C_7  and  C_8
REMARK    3  A    between atoms: C_14  and  C_16
REMARK    4  A    between atoms: C_16  and  N_17
REMARK                            x       y       z     vdW  Elec       q    Type
REMARK                         _______ _______ _______ _____ _____    ______ ____
ROOT
ATOM      1  N   UNL     1       3.114   4.810  -0.119  0.00  0.00    -0.215 N 
ATOM      2  C   UNL     1       2.263   4.120  -0.906  0.00  0.00    +0.252 C 
ATOM      3  O   UNL     1       2.341   3.957  -2.105  0.00  0.00    -0.272 OA
ATOM      4  C   UNL     1       1.193   3.592   0.021  0.00  0.00    +0.144 C 
ATOM      5  C   UNL     1      -0.171   4.152  -0.368  0.00  0.00    +0.081 C 
ATOM      6  C   UNL     1      -1.248   3.393   0.418  0.00  0.00    +0.232 C 
ATOM      7  O   UNL     1      -1.217   2.022   0.019  0.00  0.00    -0.492 OA
ATOM      8  C   UNL     1      -0.017   1.386   0.010  0.00  0.00    +0.126 A 
ATOM      9  C   UNL     1       1.177   2.089   0.002  0.00  0.00    +0.027 A 
ATOM     10  C   UNL     1       2.379   1.403  -0.018  0.00  0.00    +0.010 A 
ATOM     11  C   UNL     1       2.394   0.021  -0.028  0.00  0.00    +0.001 A 
ATOM     12  C   UNL     1       1.204  -0.682  -0.017  0.00  0.00    +0.004 A 
ATOM     13  C   UNL     1       0.002  -0.004   0.002  0.00  0.00    +0.046 A 
ATOM     14  N   UNL     1       1.593   4.085   1.345  0.00  0.00    -0.281 N 
ATOM     15  C   UNL     1       2.728   4.787   1.163  0.00  0.00    +0.310 C 
ATOM     16  O   UNL     1       3.334   5.339   2.060  0.00  0.00    -0.252 OA
ATOM     17  H   UNL     1       1.131   3.936   2.185  0.00  0.00    +0.152 HD
ENDROOT
BRANCH   1  18
ATOM     18  C   UNL     1       4.312   5.498  -0.606  0.00  0.00    +0.213 C 
BRANCH  18  25
ATOM     19  C   UNL     1       6.538   9.027  -3.384  0.00  0.00    -0.004 C 
ATOM     20  C   UNL     1       5.052   9.373  -3.269  0.00  0.00    +0.023 C 
ATOM     21  C   UNL     1       4.583   9.124  -1.832  0.00  0.00    +0.108 C 
ATOM     22  N   UNL     1       4.912   7.741  -1.460  0.00  0.00    -0.300 N 
ATOM     23  C   UNL     1       6.298   7.278  -1.613  0.00  0.00    +0.108 C 
ATOM     24  C   UNL     1       6.746   7.546  -3.058  0.00  0.00    +0.023 C 
ATOM     25  C   UNL     1       3.960   6.914  -0.983  0.00  0.00    +0.234 C 
ATOM     26  O   UNL     1       2.821   7.309  -0.857  0.00  0.00    -0.274 OA
BRANCH  19  27
ATOM     27  C   UNL     1       7.018   9.306  -4.809  0.00  0.00    +0.038 C 
BRANCH  27  31
ATOM     28  C   UNL     1      11.236   8.674  -5.043  0.00  0.00    +0.000 A 
ATOM     29  C   UNL     1      10.366   7.629  -5.293  0.00  0.00    +0.000 A 
ATOM     30  C   UNL     1       9.001   7.834  -5.218  0.00  0.00    +0.003 A 
ATOM     31  C   UNL     1       8.506   9.083  -4.892  0.00  0.00    -0.047 A 
ATOM     32  C   UNL     1       9.377  10.129  -4.646  0.00  0.00    +0.003 A 
ATOM     33  C   UNL     1      10.742   9.923  -4.717  0.00  0.00    +0.000 A 
ENDBRANCH  27  31
ENDBRANCH  19  27
ENDBRANCH  18  25
ENDBRANCH   1  18
TORSDOF 4
