REMARK  Name = ZINC09462120
REMARK  7 active torsions:
REMARK  status: ('A' for Active; 'I' for Inactive)
REMARK    1  A    between atoms: C_1  and  C_2
REMARK    2  A    between atoms: C_2  and  C_3
REMARK    3  A    between atoms: C_2  and  C_4
REMARK    4  A    between atoms: C_2  and  C_5
REMARK    5  A    between atoms: C_5  and  C_7
REMARK    6  A    between atoms: C_9  and  C_31
REMARK    7  A    between atoms: C_31  and  C_33
REMARK                            x       y       z     vdW  Elec       q    Type
REMARK                         _______ _______ _______ _____ _____    ______ ____
ROOT
ATOM      1  C   UNL     1      -0.899   2.040  -0.994  0.00  0.00    +0.136 C 
ATOM      2  C   UNL     1      -0.132   1.077  -0.050  0.00  0.00    +0.108 C 
ATOM      3  C   UNL     1      -0.916   1.238   1.269  0.00  0.00    +0.107 C 
ATOM      4  C   UNL     1      -0.723   0.079   2.181  0.00  0.00    -0.008 A 
ATOM      5  C   UNL     1      -0.978  -1.268   2.032  0.00  0.00    +0.006 A 
ATOM      6  C   UNL     1      -0.670  -2.093   3.108  0.00  0.00    +0.000 A 
ATOM      7  C   UNL     1      -0.132  -1.585   4.273  0.00  0.00    +0.002 A 
ATOM      8  C   UNL     1       0.127  -0.233   4.433  0.00  0.00    +0.023 A 
ATOM      9  C   UNL     1      -0.177   0.607   3.360  0.00  0.00    +0.038 A 
ATOM     10  N   UNL     1      -0.022   1.978   3.248  0.00  0.00    -0.284 N 
ATOM     11  C   UNL     1      -0.432   2.436   2.043  0.00  0.00    +0.231 C 
ATOM     12  O   UNL     1      -0.414   3.587   1.661  0.00  0.00    -0.274 OA
ATOM     13  C   UNL     1      -2.361   1.404   0.805  0.00  0.00    +0.107 C 
ATOM     14  C   UNL     1      -3.408   2.547  -1.171  0.00  0.00    +0.054 C 
ATOM     15  C   UNL     1      -4.321   3.137  -0.372  0.00  0.00    +0.022 C 
ATOM     16  C   UNL     1      -4.072   3.205   1.083  0.00  0.00    -0.019 A 
ATOM     17  C   UNL     1      -3.125   2.363   1.680  0.00  0.00    -0.020 A 
ATOM     18  C   UNL     1      -2.907   2.418   3.037  0.00  0.00    +0.006 A 
ATOM     19  C   UNL     1      -3.622   3.313   3.816  0.00  0.00    +0.000 A 
ATOM     20  C   UNL     1      -4.555   4.153   3.236  0.00  0.00    +0.001 A 
ATOM     21  C   UNL     1      -4.785   4.106   1.876  0.00  0.00    +0.008 A 
ATOM     22  H   UNL     1       0.339   2.543   3.949  0.00  0.00    +0.155 HD
ATOM     23  N   UNL     1      -2.296   1.673  -0.612  0.00  0.00    -0.384 NA
ATOM     24  H   UNL     1      -2.456   0.761  -1.054  0.00  0.00    +0.127 HD
ENDROOT
BRANCH   1  25
ATOM     25  C   UNL     1      -0.810   1.552  -2.417  0.00  0.00    +0.158 C 
ATOM     26  O   UNL     1      -1.116   0.415  -2.686  0.00  0.00    -0.295 OA
BRANCH  25  28
ATOM     27  C   UNL     1      -0.265   1.722  -4.830  0.00  0.00    +0.018 C 
ATOM     28  C   UNL     1      -0.341   2.483  -3.506  0.00  0.00    +0.022 C 
ATOM     29  C   UNL     1      -1.325   3.646  -3.641  0.00  0.00    +0.018 C 
ATOM     30  C   UNL     1       1.044   3.026  -3.150  0.00  0.00    +0.018 C 
ENDBRANCH  25  28
ENDBRANCH   1  25
BRANCH   2  31
ATOM     31  C   UNL     1       1.301   1.514   0.118  0.00  0.00    +0.170 C 
ATOM     32  O   UNL     1       1.561   2.505   0.767  0.00  0.00    -0.292 OA
BRANCH  31  33
ATOM     33  C   UNL     1       2.384   0.739  -0.506  0.00  0.00    +0.018 A 
ATOM     34  C   UNL     1       2.085  -0.381  -1.289  0.00  0.00    +0.013 A 
ATOM     35  C   UNL     1       3.105  -1.100  -1.875  0.00  0.00    +0.020 A 
ATOM     36  C   UNL     1       4.424  -0.722  -1.681  0.00  0.00    +0.041 A 
ATOM     37  C   UNL     1       4.727   0.384  -0.903  0.00  0.00    +0.020 A 
ATOM     38  C   UNL     1       3.718   1.115  -0.315  0.00  0.00    +0.013 A 
ATOM     39 CL   UNL     1       5.702  -1.638  -2.416  0.00  0.00    -0.084 Cl
ENDBRANCH  31  33
ENDBRANCH   2  31
TORSDOF 4
