REMARK  Name = ZINC01040842
REMARK  12 active torsions:
REMARK  status: ('A' for Active; 'I' for Inactive)
REMARK    1  A    between atoms: C_4  and  S_7
REMARK    2  A    between atoms: S_7  and  C_10
REMARK    3  A    between atoms: C_13  and  N_16
REMARK    4  A    between atoms: N_16  and  S_17
REMARK    5  A    between atoms: S_17  and  C_20
REMARK    6  A    between atoms: C_23  and  O_34
REMARK    7  A    between atoms: C_24  and  C_32
REMARK    8  A    between atoms: C_25  and  O_26
REMARK    9  A    between atoms: O_26  and  C_27
REMARK   10  A    between atoms: C_27  and  C_28
REMARK   11  A    between atoms: O_34  and  C_35
REMARK   12  A    between atoms: C_35  and  C_36
REMARK                            x       y       z     vdW  Elec       q    Type
REMARK                         _______ _______ _______ _____ _____    ______ ____
ROOT
ATOM      1  S   UNL     1       4.545  -1.103  -5.852  0.00  0.00    +0.076 S 
ATOM      2  O   UNL     1       5.152  -0.982  -7.131  0.00  0.00    -0.150 OA
ATOM      3  O   UNL     1       5.302  -1.273  -4.662  0.00  0.00    -0.150 OA
ENDROOT
BRANCH   1   4
ATOM      4  C   UNL     1       3.441  -2.474  -5.947  0.00  0.00    +0.151 A 
ATOM      5  C   UNL     1       3.491  -3.466  -4.984  0.00  0.00    +0.036 A 
ATOM      6  C   UNL     1       2.627  -4.543  -5.043  0.00  0.00    +0.049 A 
ATOM      7  C   UNL     1       1.709  -4.646  -6.076  0.00  0.00    +0.142 A 
ATOM      8  C   UNL     1       1.654  -3.649  -7.061  0.00  0.00    +0.137 A 
ATOM      9  C   UNL     1       2.531  -2.557  -6.988  0.00  0.00    +0.168 A 
BRANCH   8  10
ATOM     10  C   UNL     1       0.710  -3.745  -8.133  0.00  0.00    +0.107 C 
ATOM     11  N   UNL     1      -0.039  -3.821  -8.983  0.00  0.00    -0.191 NA
ENDBRANCH   8  10
BRANCH   9  12
ATOM     12  O   UNL     1       2.489  -1.585  -7.934  0.00  0.00    -0.480 OA
BRANCH  12  13
ATOM     13  C   UNL     1       3.212  -1.825  -9.144  0.00  0.00    +0.342 C 
BRANCH  13  14
ATOM     14  C   UNL     1       3.125  -0.591 -10.043  0.00  0.00    +0.424 C 
ATOM     15  F   UNL     1       3.777   0.482  -9.427  0.00  0.00    -0.167 F 
ATOM     16  F   UNL     1       3.737  -0.865 -11.271  0.00  0.00    -0.167 F 
ATOM     17  F   UNL     1       1.782  -0.262 -10.255  0.00  0.00    -0.167 F 
ENDBRANCH  13  14
ENDBRANCH  12  13
ENDBRANCH   9  12
BRANCH   7  18
ATOM     18  O   UNL     1       0.866  -5.707  -6.135  0.00  0.00    -0.482 OA
BRANCH  18  19
ATOM     19  C   UNL     1       0.979  -6.684  -5.098  0.00  0.00    +0.342 C 
BRANCH  19  20
ATOM     20  C   UNL     1      -0.045  -7.796  -5.331  0.00  0.00    +0.424 C 
ATOM     21  F   UNL     1       0.197  -8.401  -6.569  0.00  0.00    -0.167 F 
ATOM     22  F   UNL     1       0.066  -8.752  -4.316  0.00  0.00    -0.167 F 
ATOM     23  F   UNL     1      -1.334  -7.253  -5.321  0.00  0.00    -0.167 F 
ENDBRANCH  19  20
ENDBRANCH  18  19
ENDBRANCH   7  18
ENDBRANCH   1   4
BRANCH   1  24
ATOM     24  N   UNL     1       3.622   0.255  -5.636  0.00  0.00    -0.216 N 
ATOM     25  H   UNL     1       3.577   0.927  -6.334  0.00  0.00    +0.174 HD
BRANCH  24  29
ATOM     26  C   UNL     1       1.492   0.783  -2.097  0.00  0.00    +0.094 A 
ATOM     27  C   UNL     1       1.459  -0.437  -2.747  0.00  0.00    +0.029 A 
ATOM     28  C   UNL     1       2.159  -0.614  -3.924  0.00  0.00    +0.026 A 
ATOM     29  C   UNL     1       2.908   0.432  -4.449  0.00  0.00    +0.048 A 
ATOM     30  C   UNL     1       2.943   1.655  -3.791  0.00  0.00    +0.026 A 
ATOM     31  C   UNL     1       2.236   1.827  -2.618  0.00  0.00    +0.029 A 
BRANCH  26  32
ATOM     32  S   UNL     1       0.591   1.007  -0.600  0.00  0.00    +0.025 S 
ATOM     33  O   UNL     1       1.227   2.066   0.103  0.00  0.00    -0.164 OA
ATOM     34  O   UNL     1       0.415  -0.285  -0.035  0.00  0.00    -0.164 OA
BRANCH  32  38
ATOM     35  C   UNL     1      -3.532   2.498  -1.730  0.00  0.00    +0.000 A 
ATOM     36  C   UNL     1      -3.291   1.140  -1.629  0.00  0.00    +0.002 A 
ATOM     37  C   UNL     1      -2.034   0.685  -1.278  0.00  0.00    +0.027 A 
ATOM     38  C   UNL     1      -1.014   1.587  -1.040  0.00  0.00    +0.094 A 
ATOM     39  C   UNL     1      -1.253   2.945  -1.146  0.00  0.00    +0.027 A 
ATOM     40  C   UNL     1      -2.512   3.400  -1.492  0.00  0.00    +0.002 A 
ENDBRANCH  32  38
ENDBRANCH  26  32
ENDBRANCH  24  29
ENDBRANCH   1  24
TORSDOF 12
