REMARK  Name = ZINC09764718
REMARK  18 active torsions:
REMARK  status: ('A' for Active; 'I' for Inactive)
REMARK    1  A    between atoms: C_1  and  C_2
REMARK    2  A    between atoms: C_2  and  C_3
REMARK    3  A    between atoms: C_3  and  C_4
REMARK    4  A    between atoms: C_4  and  N_5
REMARK    5  A    between atoms: N_5  and  C_6
REMARK    6  A    between atoms: N_5  and  S_10
REMARK    7  A    between atoms: C_6  and  C_7
REMARK    8  A    between atoms: C_7  and  C_8
REMARK    9  A    between atoms: C_8  and  C_9
REMARK   10  A    between atoms: S_10  and  C_13
REMARK   11  A    between atoms: C_16  and  C_19
REMARK   12  A    between atoms: C_19  and  N_21
REMARK   13  A    between atoms: N_23  and  C_33
REMARK   14  A    between atoms: C_25  and  O_31
REMARK   15  A    between atoms: O_31  and  C_32
REMARK   16  A    between atoms: C_33  and  C_34
REMARK   17  A    between atoms: C_34  and  O_35
REMARK   18  A    between atoms: O_35  and  C_36
REMARK                            x       y       z     vdW  Elec       q    Type
REMARK                         _______ _______ _______ _____ _____    ______ ____
ROOT
ATOM      1  C   UNL     1      -5.872  10.527   0.117  0.00  0.00    +0.106 A 
ATOM      2  C   UNL     1      -4.539  10.897   0.106  0.00  0.00    +0.029 A 
ATOM      3  C   UNL     1      -3.553   9.933   0.091  0.00  0.00    +0.015 A 
ATOM      4  C   UNL     1      -3.901   8.582   0.087  0.00  0.00    +0.039 A 
ATOM      5  C   UNL     1      -5.247   8.216   0.092  0.00  0.00    +0.015 A 
ATOM      6  C   UNL     1      -6.225   9.189   0.113  0.00  0.00    +0.029 A 
ENDROOT
BRANCH   1   7
ATOM      7  S   UNL     1      -7.127  11.765   0.136  0.00  0.00    +0.061 S 
ATOM      8  O   UNL     1      -8.285  11.160   0.695  0.00  0.00    -0.153 OA
ATOM      9  O   UNL     1      -6.536  12.933   0.688  0.00  0.00    -0.153 OA
BRANCH   7  10
ATOM     10  N   UNL     1      -7.490  12.117  -1.440  0.00  0.00    -0.177 NA
BRANCH  10  11
ATOM     11  C   UNL     1      -8.542  11.370  -2.134  0.00  0.00    +0.109 C 
BRANCH  11  12
ATOM     12  C   UNL     1      -9.861  12.140  -2.040  0.00  0.00    +0.017 C 
BRANCH  12  14
ATOM     13  C   UNL     1     -12.279  12.129  -2.671  0.00  0.00    +0.004 C 
ATOM     14  C   UNL     1     -10.960  11.359  -2.765  0.00  0.00    -0.002 C 
ENDBRANCH  12  14
ENDBRANCH  11  12
ENDBRANCH  10  11
BRANCH  10  15
ATOM     15  C   UNL     1      -6.760  13.176  -2.141  0.00  0.00    +0.109 C 
BRANCH  15  16
ATOM     16  C   UNL     1      -5.601  12.562  -2.928  0.00  0.00    +0.017 C 
BRANCH  16  17
ATOM     17  C   UNL     1      -4.838  13.668  -3.660  0.00  0.00    -0.002 C 
ATOM     18  C   UNL     1      -3.679  13.053  -4.447  0.00  0.00    +0.004 C 
ENDBRANCH  16  17
ENDBRANCH  15  16
ENDBRANCH  10  15
ENDBRANCH   7  10
ENDBRANCH   1   7
BRANCH   4  19
ATOM     19  C   UNL     1      -2.847   7.542   0.071  0.00  0.00    +0.269 C 
ATOM     20  O   UNL     1      -1.672   7.866   0.061  0.00  0.00    -0.268 OA
BRANCH  19  21
ATOM     21  N   UNL     1      -3.184   6.249   0.067  0.00  0.00    -0.152 NA
ATOM     22  C   UNL     1      -2.238   5.316   0.052  0.00  0.00    +0.167 A 
ATOM     23  N   UNL     1      -2.387   3.964   0.046  0.00  0.00    -0.316 N 
ATOM     24  C   UNL     1      -1.272   3.144   0.031  0.00  0.00    +0.100 A 
ATOM     25  C   UNL     1      -1.223   1.737   0.017  0.00  0.00    +0.145 A 
ATOM     26  C   UNL     1      -0.013   1.076   0.008  0.00  0.00    +0.048 A 
ATOM     27  C   UNL     1       1.184   1.772   0.000  0.00  0.00    +0.005 A 
ATOM     28  C   UNL     1       1.162   3.156   0.008  0.00  0.00    +0.017 A 
ATOM     29  C   UNL     1      -0.044   3.818   0.023  0.00  0.00    +0.042 A 
ATOM     30  S   UNL     1      -0.517   5.529   0.037  0.00  0.00    -0.052 S 
BRANCH  25  31
ATOM     31  O   UNL     1      -2.380   1.023   0.019  0.00  0.00    -0.493 OA
ATOM     32  C   UNL     1      -2.263  -0.402   0.010  0.00  0.00    +0.277 C 
ENDBRANCH  25  31
BRANCH  23  33
ATOM     33  C   UNL     1      -3.729   3.375   0.055  0.00  0.00    +0.152 C 
BRANCH  33  34
ATOM     34  C   UNL     1      -4.209   3.179  -1.384  0.00  0.00    +0.181 C 
BRANCH  34  35
ATOM     35  O   UNL     1      -5.518   2.604  -1.375  0.00  0.00    -0.381 OA
ATOM     36  C   UNL     1      -6.062   2.378  -2.677  0.00  0.00    +0.194 C 
ENDBRANCH  34  35
ENDBRANCH  33  34
ENDBRANCH  23  33
ENDBRANCH  19  21
ENDBRANCH   4  19
TORSDOF 14
