REMARK  Name = ZINC59040085
REMARK  14 active torsions:
REMARK  status: ('A' for Active; 'I' for Inactive)
REMARK    1  A    between atoms: C_1  and  O_2
REMARK    2  A    between atoms: O_2  and  C_3
REMARK    3  A    between atoms: C_6  and  C_9
REMARK    4  A    between atoms: C_9  and  C_10
REMARK    5  A    between atoms: C_10  and  N_11
REMARK    6  A    between atoms: C_12  and  C_14
REMARK    7  A    between atoms: C_14  and  S_15
REMARK    8  A    between atoms: S_15  and  C_16
REMARK    9  A    between atoms: N_21  and  N_22
REMARK   10  A    between atoms: C_23  and  C_24
REMARK   11  A    between atoms: C_26  and  O_34
REMARK   12  A    between atoms: C_27  and  O_33
REMARK   13  A    between atoms: C_29  and  N_30
REMARK   14  A    between atoms: O_34  and  C_35
REMARK                            x       y       z     vdW  Elec       q    Type
REMARK                         _______ _______ _______ _____ _____    ______ ____
ROOT
ATOM      1  C   UNL     1       8.960  -5.601  -7.290  0.00  0.00    +0.211 A 
ATOM      2  N   UNL     1      10.226  -5.948  -7.496  0.00  0.00    -0.186 NA
ATOM      3  C   UNL     1      10.303  -6.465  -8.719  0.00  0.00    +0.232 A 
ATOM      4  N   UNL     1       9.044  -6.425  -9.256  0.00  0.00    -0.245 N 
ATOM      5  N   UNL     1       8.254  -5.907  -8.379  0.00  0.00    -0.144 NA
ATOM      6  N   UNL     1      11.416  -6.941  -9.319  0.00  0.00    -0.205 N 
ATOM      7  H   UNL     1      11.366  -7.299 -10.219  0.00  0.00    +0.177 HD
ATOM      8  H   UNL     1       8.791  -6.734 -10.139  0.00  0.00    +0.192 HD
ENDROOT
BRANCH   6   9
ATOM      9  N   UNL     1      12.545  -6.918  -8.695  0.00  0.00    -0.187 NA
ATOM     10  C   UNL     1      13.641  -7.386  -9.286  0.00  0.00    +0.140 C 
BRANCH  10  11
ATOM     11  C   UNL     1      14.871  -7.362  -8.607  0.00  0.00    +0.028 A 
ATOM     12  C   UNL     1      14.974  -6.726  -7.349  0.00  0.00    +0.061 A 
ATOM     13  C   UNL     1      16.171  -6.707  -6.696  0.00  0.00    +0.162 A 
ATOM     14  C   UNL     1      17.299  -7.318  -7.273  0.00  0.00    +0.161 A 
ATOM     15  C   UNL     1      17.201  -7.948  -8.517  0.00  0.00    +0.082 A 
ATOM     16  C   UNL     1      16.011  -7.980  -9.177  0.00  0.00    +0.138 A 
BRANCH  16  17
ATOM     17  N   UNL     1      15.910  -8.654 -10.492  0.00  0.00    +0.057 N 
ATOM     18  O   UNL     1      16.934  -9.335 -10.963  0.00  0.00    -0.126 OA
ATOM     19  O   UNL     1      14.796  -8.572 -11.189  0.00  0.00    -0.126 OA
ENDBRANCH  16  17
BRANCH  14  20
ATOM     20  O   UNL     1      18.484  -7.296  -6.622  0.00  0.00    -0.503 OA
ATOM     21  H   UNL     1      18.623  -8.049  -6.031  0.00  0.00    +0.292 HD
ENDBRANCH  14  20
BRANCH  13  22
ATOM     22  O   UNL     1      16.275  -6.096  -5.487  0.00  0.00    -0.491 OA
ATOM     23  C   UNL     1      15.090  -5.495  -4.960  0.00  0.00    +0.277 C 
ENDBRANCH  13  22
ENDBRANCH  10  11
ENDBRANCH   6   9
BRANCH   1  24
ATOM     24  S   UNL     1       8.319  -4.868  -5.821  0.00  0.00    -0.075 S 
BRANCH  24  25
ATOM     25  C   UNL     1       6.552  -4.655  -6.171  0.00  0.00    +0.173 C 
BRANCH  25  27
ATOM     26  N   UNL     1       4.553  -3.774  -5.011  0.00  0.00    -0.314 N 
ATOM     27  C   UNL     1       5.876  -4.028  -4.979  0.00  0.00    +0.223 C 
ATOM     28  O   UNL     1       6.523  -3.752  -3.991  0.00  0.00    -0.275 OA
ATOM     29  H   UNL     1       4.036  -3.995  -5.802  0.00  0.00    +0.149 HD
BRANCH  26  30
ATOM     30  C   UNL     1       3.896  -3.165  -3.853  0.00  0.00    +0.109 C 
BRANCH  30  31
ATOM     31  C   UNL     1       2.405  -2.985  -4.148  0.00  0.00    +0.054 C 
BRANCH  31  35
ATOM     32  C   UNL     1       0.488  -1.207  -0.768  0.00  0.00    +0.120 A 
ATOM     33  C   UNL     1       1.020  -0.405  -1.766  0.00  0.00    +0.046 A 
ATOM     34  C   UNL     1       1.639  -0.982  -2.858  0.00  0.00    +0.007 A 
ATOM     35  C   UNL     1       1.729  -2.358  -2.956  0.00  0.00    -0.046 A 
ATOM     36  C   UNL     1       1.199  -3.160  -1.962  0.00  0.00    +0.007 A 
ATOM     37  C   UNL     1       0.584  -2.588  -0.865  0.00  0.00    +0.046 A 
BRANCH  32  39
ATOM     38  C   UNL     1      -0.185   0.785   0.342  0.00  0.00    +0.277 C 
ATOM     39  O   UNL     1      -0.122  -0.642   0.307  0.00  0.00    -0.495 OA
ENDBRANCH  32  39
ENDBRANCH  31  35
ENDBRANCH  30  31
ENDBRANCH  26  30
ENDBRANCH  25  27
ENDBRANCH  24  25
ENDBRANCH   1  24
TORSDOF 12
