REMARK  Name = ZINC64450352
REMARK  4 active torsions:
REMARK  status: ('A' for Active; 'I' for Inactive)
REMARK    1  A    between atoms: C_1  and  C_2
REMARK    2  A    between atoms: C_4  and  C_23
REMARK    3  A    between atoms: N_12  and  C_14
REMARK    4  A    between atoms: C_26  and  C_29
REMARK                            x       y       z     vdW  Elec       q    Type
REMARK                         _______ _______ _______ _____ _____    ______ ____
ROOT
ATOM      1  C   UNL     1      -0.079   1.439  -0.670  0.00  0.00    +0.062 C 
ATOM      2  C   UNL     1      -0.086  -0.068  -0.635  0.00  0.00    +0.019 C 
ATOM      3  C   UNL     1      -1.103  -0.789  -0.257  0.00  0.00    -0.008 C 
ATOM      4  C   UNL     1      -2.526  -0.406   0.066  0.00  0.00    +0.058 C 
ATOM      5  C   UNL     1      -3.408  -1.132  -0.961  0.00  0.00    +0.108 C 
ATOM      6  C   UNL     1      -2.892  -2.500  -1.270  0.00  0.00    +0.215 C 
ATOM      7  O   UNL     1      -3.686  -3.274  -1.761  0.00  0.00    -0.276 OA
ATOM      8  N   UNL     1      -1.660  -2.970  -1.067  0.00  0.00    -0.295 N 
ATOM      9  C   UNL     1      -0.662  -2.244  -0.293  0.00  0.00    +0.194 C 
ATOM     10  N   UNL     1       0.656  -2.193  -0.934  0.00  0.00    -0.164 NA
ATOM     11  N   UNL     1       0.985  -0.865  -1.007  0.00  0.00    -0.277 N 
ATOM     12  H   UNL     1      -1.419  -3.828  -1.450  0.00  0.00    +0.151 HD
ATOM     13  H   UNL     1       1.853  -0.527  -1.280  0.00  0.00    +0.166 HD
ENDROOT
BRANCH  10  14
ATOM     14  C   UNL     1       1.650  -2.943  -0.154  0.00  0.00    +0.270 C 
ATOM     15  N   UNL     1       1.267  -4.359  -0.081  0.00  0.00    -0.350 N 
ATOM     16  C   UNL     1       1.099  -4.654   1.176  0.00  0.00    +0.061 A 
ATOM     17  C   UNL     1       0.720  -5.892   1.870  0.00  0.00    +0.027 A 
ATOM     18  C   UNL     1       0.623  -5.898   3.214  0.00  0.00    +0.002 A 
ATOM     19  C   UNL     1       0.870  -4.756   3.998  0.00  0.00    +0.002 A 
ATOM     20  C   UNL     1       1.224  -3.571   3.462  0.00  0.00    +0.027 A 
ATOM     21  C   UNL     1       1.362  -3.445   2.005  0.00  0.00    +0.061 A 
ATOM     22  N   UNL     1       1.682  -2.451   1.228  0.00  0.00    -0.350 N 
ATOM     23  H   UNL     1       1.159  -4.964  -0.831  0.00  0.00    +0.163 HD
ATOM     24  H   UNL     1       1.902  -1.550   1.512  0.00  0.00    +0.163 HD
ENDBRANCH  10  14
BRANCH   4  25
ATOM     25  C   UNL     1      -2.703   1.085  -0.059  0.00  0.00    -0.040 A 
ATOM     26  C   UNL     1      -2.891   1.655  -1.306  0.00  0.00    +0.005 A 
ATOM     27  C   UNL     1      -3.053   3.019  -1.428  0.00  0.00    +0.015 A 
ATOM     28  C   UNL     1      -3.026   3.826  -0.288  0.00  0.00    +0.063 A 
ATOM     29  C   UNL     1      -2.836   3.245   0.968  0.00  0.00    +0.015 A 
ATOM     30  C   UNL     1      -2.681   1.878   1.075  0.00  0.00    +0.005 A 
BRANCH  28  31
ATOM     31  C   UNL     1      -3.198   5.287  -0.410  0.00  0.00    +0.387 C 
ATOM     32  O   UNL     1      -3.364   5.793  -1.511  0.00  0.00    -0.241 OA
ATOM     33  O   UNL     1      -3.174   5.991   0.590  0.00  0.00    -0.241 OA
ENDBRANCH  28  31
ENDBRANCH   4  25
TORSDOF 3
