REMARK  Name = ZINC00656860
REMARK  4 active torsions:
REMARK  status: ('A' for Active; 'I' for Inactive)
REMARK    1  A    between atoms: C_5  and  C_7
REMARK    2  A    between atoms: C_8  and  C_9
REMARK    3  A    between atoms: N_11  and  C_12
REMARK    4  A    between atoms: C_13  and  C_23
REMARK                            x       y       z     vdW  Elec       q    Type
REMARK                         _______ _______ _______ _____ _____    ______ ____
ROOT
ATOM      1  C   UNL     1       3.676  -6.301  -0.065  0.00  0.00    +0.085 A 
ATOM      2  C   UNL     1       4.775  -7.140  -0.080  0.00  0.00    +0.068 A 
ATOM      3  C   UNL     1       4.545  -8.590  -0.073  0.00  0.00    -0.023 A 
ATOM      4  C   UNL     1       3.245  -8.935  -0.099  0.00  0.00    -0.004 A 
ATOM      5  S   UNL     1       2.345  -7.407  -0.050  0.00  0.00    -0.077 S 
ATOM      6  C   UNL     1       2.644 -10.310  -0.174  0.00  0.00    +0.043 C 
ATOM      7  C   UNL     1       2.732 -10.763  -1.643  0.00  0.00    +0.005 C 
ATOM      8  C   UNL     1       4.190 -10.633  -2.098  0.00  0.00    +0.000 C 
ATOM      9  C   UNL     1       4.974 -11.576  -1.210  0.00  0.00    +0.000 C 
ATOM     10  C   UNL     1       5.347 -10.986   0.138  0.00  0.00    +0.005 C 
ATOM     11  C   UNL     1       5.752  -9.521   0.036  0.00  0.00    +0.037 C 
ENDROOT
BRANCH   2  12
ATOM     12  C   UNL     1       6.136  -6.595  -0.103  0.00  0.00    +0.244 C 
ATOM     13  O   UNL     1       6.717  -6.366   0.942  0.00  0.00    -0.270 OA
ATOM     14  N   UNL     1       6.743  -6.348  -1.280  0.00  0.00    -0.325 N 
ATOM     15  H   UNL     1       6.280  -6.531  -2.113  0.00  0.00    +0.145 HD
ATOM     16  H   UNL     1       7.644  -5.988  -1.295  0.00  0.00    +0.145 HD
ENDBRANCH   2  12
BRANCH   1  19
ATOM     17  C   UNL     1       2.467  -4.267  -0.043  0.00  0.00    +0.241 C 
ATOM     18  O   UNL     1       1.426  -4.897  -0.036  0.00  0.00    -0.270 OA
ATOM     19  N   UNL     1       3.648  -4.917  -0.058  0.00  0.00    -0.276 N 
ATOM     20  H   UNL     1       4.478  -4.415  -0.064  0.00  0.00    +0.156 HD
BRANCH  17  22
ATOM     21  C   UNL     1       1.256  -2.154  -0.021  0.00  0.00    +0.014 C 
ATOM     22  C   UNL     1       2.438  -2.804  -0.036  0.00  0.00    +0.068 C 
BRANCH  21  27
ATOM     23  C   UNL     1       2.384   1.423  -0.013  0.00  0.00    +0.001 A 
ATOM     24  C   UNL     1       1.170   2.088   0.002  0.00  0.00    +0.001 A 
ATOM     25  C   UNL     1      -0.017   1.377   0.010  0.00  0.00    +0.020 A 
ATOM     26  C   UNL     1       0.002  -0.004   0.002  0.00  0.00    +0.048 A 
ATOM     27  C   UNL     1       1.226  -0.683  -0.013  0.00  0.00    -0.007 A 
ATOM     28  C   UNL     1       2.421   0.045  -0.021  0.00  0.00    +0.009 A 
ATOM     29 CL   UNL     1      -1.488  -0.895   0.011  0.00  0.00    -0.083 Cl
ENDBRANCH  21  27
ENDBRANCH  17  22
ENDBRANCH   1  19
TORSDOF 4
