REMARK  Name = ZINC36029901
REMARK  13 active torsions:
REMARK  status: ('A' for Active; 'I' for Inactive)
REMARK    1  A    between atoms: C_1  and  C_2
REMARK    2  A    between atoms: C_2  and  C_3
REMARK    3  A    between atoms: C_2  and  C_4
REMARK    4  A    between atoms: C_4  and  C_5
REMARK    5  A    between atoms: N_9  and  C_26
REMARK    6  A    between atoms: N_14  and  S_17
REMARK    7  A    between atoms: S_17  and  C_20
REMARK    8  A    between atoms: C_26  and  C_27
REMARK    9  A    between atoms: C_27  and  C_28
REMARK   10  A    between atoms: C_31  and  O_36
REMARK   11  A    between atoms: C_32  and  O_34
REMARK   12  A    between atoms: O_34  and  C_35
REMARK   13  A    between atoms: O_36  and  C_37
REMARK                            x       y       z     vdW  Elec       q    Type
REMARK                         _______ _______ _______ _____ _____    ______ ____
ROOT
ATOM      1  C   UNL     1      -0.273  -0.052   2.502  0.00  0.00    +0.019 C 
ATOM      2  C   UNL     1       0.428  -0.702   3.675  0.00  0.00    +0.200 C 
ATOM      3  O   UNL     1       0.915  -1.813   3.683  0.00  0.00    -0.277 OA
ATOM      4  N   UNL     1       0.420   0.163   4.711  0.00  0.00    -0.313 N 
ATOM      5  C   UNL     1      -0.266   1.395   4.314  0.00  0.00    +0.006 C 
ATOM      6  N   UNL     1      -0.313   1.393   2.835  0.00  0.00    +0.401 N 
ATOM      7  C   UNL     1       0.512   2.615   4.805  0.00  0.00    +0.023 C 
ATOM      8  C   UNL     1       0.586   2.589   6.335  0.00  0.00    +0.109 C 
ATOM      9  N   UNL     1      -0.777   2.475   6.872  0.00  0.00    -0.177 NA
ATOM     10  C   UNL     1      -1.632   1.376   6.404  0.00  0.00    +0.109 C 
ATOM     11  C   UNL     1      -1.688   1.412   4.873  0.00  0.00    +0.023 C 
ATOM     12  H   UNL     1       0.490   1.869   2.453  0.00  0.00    -0.082 HD
ATOM     13  H   UNL     1      -1.169   1.811   2.503  0.00  0.00    -0.082 HD
ENDROOT
BRANCH   9  14
ATOM     14  S   UNL     1      -1.339   3.566   7.984  0.00  0.00    +0.061 S 
ATOM     15  O   UNL     1      -2.381   2.916   8.699  0.00  0.00    -0.153 OA
ATOM     16  O   UNL     1      -0.197   4.111   8.631  0.00  0.00    -0.153 OA
BRANCH  14  17
ATOM     17  C   UNL     1      -2.088   4.885   7.088  0.00  0.00    +0.105 A 
ATOM     18  C   UNL     1      -1.330   5.974   6.700  0.00  0.00    +0.028 A 
ATOM     19  C   UNL     1      -1.918   7.009   5.997  0.00  0.00    +0.002 A 
ATOM     20  C   UNL     1      -3.263   6.955   5.682  0.00  0.00    +0.000 A 
ATOM     21  C   UNL     1      -4.020   5.866   6.070  0.00  0.00    +0.002 A 
ATOM     22  C   UNL     1      -3.432   4.829   6.769  0.00  0.00    +0.028 A 
ENDBRANCH  14  17
ENDBRANCH   9  14
BRANCH   1  23
ATOM     23  C   UNL     1       0.520  -0.280   1.214  0.00  0.00    -0.004 C 
BRANCH  23  25
ATOM     24  C   UNL     1       0.638   0.254  -1.224  0.00  0.00    +0.007 C 
ATOM     25  C   UNL     1      -0.219   0.362   0.039  0.00  0.00    -0.018 C 
ATOM     26  C   UNL     1      -1.549  -0.360  -0.184  0.00  0.00    +0.007 C 
ENDBRANCH  23  25
ENDBRANCH   1  23
BRANCH   4  27
ATOM     27  C   UNL     1       1.007  -0.092   6.029  0.00  0.00    +0.110 C 
BRANCH  27  28
ATOM     28  C   UNL     1       2.480   0.320   6.020  0.00  0.00    +0.054 C 
BRANCH  28  29
ATOM     29  C   UNL     1       3.083   0.061   7.376  0.00  0.00    -0.042 A 
ATOM     30  C   UNL     1       3.047   1.045   8.347  0.00  0.00    +0.007 A 
ATOM     31  C   UNL     1       3.599   0.812   9.592  0.00  0.00    +0.049 A 
ATOM     32  C   UNL     1       4.189  -0.410   9.871  0.00  0.00    +0.161 A 
ATOM     33  C   UNL     1       4.225  -1.401   8.895  0.00  0.00    +0.162 A 
ATOM     34  C   UNL     1       3.666  -1.162   7.650  0.00  0.00    +0.053 A 
BRANCH  33  35
ATOM     35  O   UNL     1       4.803  -2.602   9.164  0.00  0.00    -0.491 OA
ATOM     36  C   UNL     1       4.803  -3.571   8.114  0.00  0.00    +0.277 C 
ENDBRANCH  33  35
BRANCH  32  37
ATOM     37  O   UNL     1       4.733  -0.640  11.096  0.00  0.00    -0.491 OA
ATOM     38  C   UNL     1       4.660   0.422  12.049  0.00  0.00    +0.277 C 
ENDBRANCH  32  37
ENDBRANCH  28  29
ENDBRANCH  27  28
ENDBRANCH   4  27
TORSDOF 9
