REMARK  Name = ZINC09375335
REMARK  11 active torsions:
REMARK  status: ('A' for Active; 'I' for Inactive)
REMARK    1  A    between atoms: C_1  and  C_2
REMARK    2  A    between atoms: C_3  and  C_28
REMARK    3  A    between atoms: C_4  and  C_23
REMARK    4  A    between atoms: C_6  and  C_21
REMARK    5  A    between atoms: C_7  and  S_9
REMARK    6  A    between atoms: S_9  and  C_10
REMARK    7  A    between atoms: C_10  and  C_11
REMARK    8  A    between atoms: N_13  and  C_14
REMARK    9  A    between atoms: N_30  and  C_31
REMARK   10  A    between atoms: C_36  and  O_37
REMARK   11  A    between atoms: O_37  and  C_38
REMARK                            x       y       z     vdW  Elec       q    Type
REMARK                         _______ _______ _______ _____ _____    ______ ____
ROOT
ATOM      1  C   UNL     1       9.187  -4.251  -1.330  0.00  0.00    +0.061 C 
ATOM      2  C   UNL     1       9.558  -2.835  -0.971  0.00  0.00    +0.015 C 
ATOM      3  C   UNL     1      10.830  -2.429  -1.112  0.00  0.00    +0.047 C 
ATOM      4  C   UNL     1      11.258  -1.034  -0.761  0.00  0.00    +0.134 C 
ATOM      5  C   UNL     1      10.068  -0.124  -0.646  0.00  0.00    +0.072 C 
ATOM      6  C   UNL     1       8.809  -0.623  -0.516  0.00  0.00    +0.080 C 
ATOM      7  N   UNL     1       8.594  -1.983  -0.505  0.00  0.00    -0.312 N 
ATOM      8  H   UNL     1       7.644  -2.384  -0.122  0.00  0.00    +0.152 HD
ENDROOT
BRANCH   4   9
ATOM      9  C   UNL     1      11.999  -1.058   0.552  0.00  0.00    +0.118 A 
ATOM     10  C   UNL     1      13.272  -0.669   0.744  0.00  0.00    +0.045 A 
ATOM     11  C   UNL     1      13.556  -0.857   2.116  0.00  0.00    +0.041 A 
ATOM     12  C   UNL     1      12.441  -1.358   2.679  0.00  0.00    +0.195 A 
ATOM     13  O   UNL     1      11.502  -1.478   1.726  0.00  0.00    -0.467 OA
ENDBRANCH   4   9
BRANCH   3  14
ATOM     14  C   UNL     1      11.794  -3.342  -1.606  0.00  0.00    +0.247 C 
ATOM     15  O   UNL     1      11.464  -4.478  -1.896  0.00  0.00    -0.270 OA
ATOM     16  N   UNL     1      13.076  -2.953  -1.755  0.00  0.00    -0.279 N 
ATOM     17  H   UNL     1      13.389  -1.953  -1.423  0.00  0.00    +0.155 HD
BRANCH  16  18
ATOM     18  C   UNL     1      14.008  -3.823  -2.334  0.00  0.00    +0.076 A 
ATOM     19  C   UNL     1      13.916  -5.190  -2.112  0.00  0.00    +0.027 A 
ATOM     20  C   UNL     1      14.838  -6.046  -2.684  0.00  0.00    +0.002 A 
ATOM     21  C   UNL     1      15.852  -5.545  -3.478  0.00  0.00    +0.004 A 
ATOM     22  C   UNL     1      15.951  -4.184  -3.704  0.00  0.00    +0.047 A 
ATOM     23  C   UNL     1      15.027  -3.320  -3.139  0.00  0.00    +0.141 A 
BRANCH  23  24
ATOM     24  O   UNL     1      15.119  -1.982  -3.365  0.00  0.00    -0.493 OA
ATOM     25  C   UNL     1      16.190  -1.537  -4.201  0.00  0.00    +0.277 C 
ENDBRANCH  23  24
ENDBRANCH  16  18
ENDBRANCH   3  14
BRANCH   5  26
ATOM     26  C   UNL     1      10.262   1.294  -0.668  0.00  0.00    +0.098 C 
ATOM     27  N   UNL     1      10.417   2.420  -0.686  0.00  0.00    -0.191 NA
ENDBRANCH   5  26
BRANCH   6  28
ATOM     28  S   UNL     1       7.442   0.480  -0.368  0.00  0.00    -0.100 S 
BRANCH  28  29
ATOM     29  C   UNL     1       6.088  -0.714  -0.240  0.00  0.00    +0.171 C 
BRANCH  29  30
ATOM     30  C   UNL     1       4.781   0.023  -0.100  0.00  0.00    +0.227 C 
ATOM     31  O   UNL     1       4.766   1.235  -0.089  0.00  0.00    -0.275 OA
ATOM     32  N   UNL     1       3.628  -0.666   0.011  0.00  0.00    -0.285 N 
ATOM     33  H   UNL     1       3.648  -1.762   0.097  0.00  0.00    +0.155 HD
BRANCH  32  34
ATOM     34  C   UNL     1       2.404   0.014   0.018  0.00  0.00    +0.034 A 
ATOM     35  C   UNL     1       2.292   1.250  -0.604  0.00  0.00    +0.026 A 
ATOM     36  C   UNL     1       1.084   1.920  -0.596  0.00  0.00    +0.040 A 
ATOM     37  C   UNL     1      -0.015   1.359   0.032  0.00  0.00    +0.124 A 
ATOM     38  C   UNL     1       0.094   0.126   0.652  0.00  0.00    +0.040 A 
ATOM     39  C   UNL     1       1.300  -0.547   0.646  0.00  0.00    +0.026 A 
ATOM     40  F   UNL     1      -1.195   2.018   0.043  0.00  0.00    -0.205 F 
ENDBRANCH  32  34
ENDBRANCH  29  30
ENDBRANCH  28  29
ENDBRANCH   6  28
TORSDOF 9
