REMARK  Name = ZINC36643626
REMARK  12 active torsions:
REMARK  status: ('A' for Active; 'I' for Inactive)
REMARK    1  A    between atoms: C_1  and  C_2
REMARK    2  A    between atoms: N_7  and  S_9
REMARK    3  A    between atoms: S_9  and  C_12
REMARK    4  A    between atoms: C_15  and  C_18
REMARK    5  A    between atoms: N_20  and  C_21
REMARK    6  A    between atoms: C_21  and  C_22
REMARK    7  A    between atoms: C_22  and  C_23
REMARK    8  A    between atoms: C_23  and  N_24
REMARK    9  A    between atoms: N_24  and  C_25
REMARK   10  A    between atoms: N_24  and  C_26
REMARK   11  A    between atoms: C_31  and  O_36
REMARK   12  A    between atoms: O_36  and  C_37
REMARK                            x       y       z     vdW  Elec       q    Type
REMARK                         _______ _______ _______ _____ _____    ______ ____
ROOT
ATOM      1  C   UNL     1       3.690  -3.975  -3.807  0.00  0.00    +0.252 C 
ATOM      2  O   UNL     1       3.275  -5.064  -4.151  0.00  0.00    -0.270 OA
ATOM      3  N   UNL     1       4.562  -3.308  -4.589  0.00  0.00    -0.246 N 
ATOM      4  C   UNL     1       4.892  -3.805  -5.838  0.00  0.00    +0.168 A 
ATOM      5  N   UNL     1       4.460  -4.894  -6.431  0.00  0.00    -0.224 NA
ATOM      6  C   UNL     1       4.871  -5.261  -7.665  0.00  0.00    +0.084 A 
ATOM      7  C   UNL     1       4.486  -6.400  -8.409  0.00  0.00    +0.074 A 
ATOM      8  C   UNL     1       5.004  -6.627  -9.662  0.00  0.00    +0.122 A 
ATOM      9  C   UNL     1       5.919  -5.750 -10.238  0.00  0.00    +0.047 A 
ATOM     10  C   UNL     1       6.314  -4.628  -9.534  0.00  0.00    +0.021 A 
ATOM     11  C   UNL     1       5.801  -4.395  -8.283  0.00  0.00    +0.041 A 
ATOM     12  S   UNL     1       6.007  -3.124  -7.058  0.00  0.00    -0.052 S 
ENDROOT
BRANCH   1  16
ATOM     13  C   UNL     1       2.393  -2.269  -0.140  0.00  0.00    +0.106 A 
ATOM     14  C   UNL     1       1.471  -2.843  -0.997  0.00  0.00    +0.029 A 
ATOM     15  C   UNL     1       1.885  -3.399  -2.189  0.00  0.00    +0.015 A 
ATOM     16  C   UNL     1       3.239  -3.381  -2.531  0.00  0.00    +0.037 A 
ATOM     17  C   UNL     1       4.164  -2.800  -1.662  0.00  0.00    +0.015 A 
ATOM     18  C   UNL     1       3.735  -2.243  -0.475  0.00  0.00    +0.029 A 
BRANCH  13  19
ATOM     19  S   UNL     1       1.855  -1.562   1.382  0.00  0.00    +0.061 S 
ATOM     20  O   UNL     1       2.978  -1.571   2.253  0.00  0.00    -0.153 OA
ATOM     21  O   UNL     1       0.628  -2.199   1.714  0.00  0.00    -0.153 OA
BRANCH  19  27
ATOM     22  C   UNL     1       3.570   3.038   0.096  0.00  0.00    +0.009 C 
ATOM     23  C   UNL     1       2.598   1.870  -0.077  0.00  0.00    +0.002 C 
ATOM     24  C   UNL     1       1.206   2.409  -0.413  0.00  0.00    +0.006 C 
ATOM     25  C   UNL     1       0.240   1.239  -0.619  0.00  0.00    +0.017 C 
ATOM     26  C   UNL     1       0.145   0.427   0.676  0.00  0.00    +0.109 C 
ATOM     27  N   UNL     1       1.498   0.027   1.084  0.00  0.00    -0.176 NA
ATOM     28  C   UNL     1       2.530   1.064   1.224  0.00  0.00    +0.112 C 
ENDBRANCH  19  27
ENDBRANCH  13  19
ENDBRANCH   1  16
BRANCH   8  29
ATOM     29  O   UNL     1       4.615  -7.732 -10.353  0.00  0.00    -0.495 OA
ATOM     30  C   UNL     1       5.184  -7.919 -11.650  0.00  0.00    +0.277 C 
ENDBRANCH   8  29
BRANCH   3  31
ATOM     31  C   UNL     1       5.162  -2.058  -4.117  0.00  0.00    +0.114 C 
BRANCH  31  32
ATOM     32  C   UNL     1       6.554  -2.342  -3.549  0.00  0.00    +0.001 C 
BRANCH  32  33
ATOM     33  C   UNL     1       7.125  -1.062  -2.935  0.00  0.00    -0.078 C 
BRANCH  33  34
ATOM     34  N   UNL     1       8.461  -1.335  -2.389  0.00  0.00    +0.376 N 
ATOM     35  C   UNL     1       9.376  -1.681  -3.486  0.00  0.00    -0.097 C 
ATOM     36  C   UNL     1       8.960  -0.140  -1.695  0.00  0.00    -0.097 C 
ATOM     37  H   UNL     1       8.409  -2.105  -1.739  0.00  0.00    -0.083 HD
ENDBRANCH  33  34
ENDBRANCH  32  33
ENDBRANCH  31  32
ENDBRANCH   3  31
TORSDOF 8
