REMARK  Name = ZINC36145926
REMARK  13 active torsions:
REMARK  status: ('A' for Active; 'I' for Inactive)
REMARK    1  A    between atoms: C_1  and  C_2
REMARK    2  A    between atoms: C_7  and  C_8
REMARK    3  A    between atoms: C_11  and  C_14
REMARK    4  A    between atoms: C_14  and  N_15
REMARK    5  A    between atoms: N_15  and  C_16
REMARK    6  A    between atoms: N_15  and  C_24
REMARK    7  A    between atoms: C_16  and  C_17
REMARK    8  A    between atoms: C_24  and  C_25
REMARK    9  A    between atoms: C_25  and  C_27
REMARK   10  A    between atoms: C_25  and  O_36
REMARK   11  A    between atoms: C_27  and  O_28
REMARK   12  A    between atoms: O_28  and  C_29
REMARK   13  A    between atoms: C_34  and  C_35
REMARK                            x       y       z     vdW  Elec       q    Type
REMARK                         _______ _______ _______ _____ _____    ______ ____
ROOT
ATOM      1  N   UNL     1      -0.425   1.570   6.803  0.00  0.00    +0.387 N 
ATOM      2  H   UNL     1      -1.298   1.580   7.310  0.00  0.00    -0.081 HD
ENDROOT
BRANCH   1   3
ATOM      3  C   UNL     1      -0.427   0.452   5.849  0.00  0.00    -0.030 C 
BRANCH   3   7
ATOM      4  C   UNL     1      -2.177  -2.745   6.271  0.00  0.00    +0.091 C 
ATOM      5  N   UNL     1      -2.662  -1.993   7.200  0.00  0.00    -0.089 NA
ATOM      6  O   UNL     1      -2.017  -0.738   7.284  0.00  0.00    -0.392 OA
ATOM      7  C   UNL     1      -0.759  -0.847   6.587  0.00  0.00    +0.194 C 
ATOM      8  C   UNL     1      -1.047  -1.995   5.592  0.00  0.00    +0.104 C 
BRANCH   4  15
ATOM      9  C   UNL     1      -4.392  -3.908   7.723  0.00  0.00    +0.044 C 
ATOM     10  C   UNL     1      -3.706  -4.678   6.624  0.00  0.00    -0.041 A 
ATOM     11  C   UNL     1      -4.136  -5.947   6.297  0.00  0.00    +0.004 A 
ATOM     12  C   UNL     1      -3.508  -6.656   5.288  0.00  0.00    +0.000 A 
ATOM     13  C   UNL     1      -2.445  -6.097   4.601  0.00  0.00    +0.001 A 
ATOM     14  C   UNL     1      -2.005  -4.829   4.917  0.00  0.00    +0.010 A 
ATOM     15  C   UNL     1      -2.638  -4.106   5.930  0.00  0.00    +0.002 A 
ENDBRANCH   4  15
ENDBRANCH   3   7
ENDBRANCH   1   3
BRANCH   1  16
ATOM     16  C   UNL     1      -0.268   2.835   6.073  0.00  0.00    -0.043 C 
BRANCH  16  17
ATOM     17  C   UNL     1      -1.436   3.027   5.141  0.00  0.00    -0.063 A 
ATOM     18  C   UNL     1      -1.345   2.614   3.825  0.00  0.00    +0.002 A 
ATOM     19  C   UNL     1      -2.416   2.789   2.969  0.00  0.00    +0.002 A 
ATOM     20  C   UNL     1      -3.579   3.378   3.429  0.00  0.00    +0.020 A 
ATOM     21  C   UNL     1      -3.671   3.792   4.746  0.00  0.00    +0.041 A 
ATOM     22  C   UNL     1      -2.600   3.610   5.604  0.00  0.00    +0.021 A 
ATOM     23 CL   UNL     1      -5.131   4.532   5.324  0.00  0.00    -0.084 Cl
ENDBRANCH  16  17
ENDBRANCH   1  16
BRANCH   1  24
ATOM     24  C   UNL     1       0.688   1.407   7.747  0.00  0.00    -0.043 C 
BRANCH  24  25
ATOM     25  C   UNL     1       0.580   2.461   8.850  0.00  0.00    +0.135 C 
BRANCH  25  26
ATOM     26  O   UNL     1       0.839   3.754   8.300  0.00  0.00    -0.390 OA
ATOM     27  H   UNL     1       1.716   3.845   7.903  0.00  0.00    +0.210 HD
ENDBRANCH  25  26
BRANCH  25  28
ATOM     28  C   UNL     1       1.603   2.160   9.946  0.00  0.00    +0.258 C 
BRANCH  28  29
ATOM     29  O   UNL     1       1.425   3.074  11.030  0.00  0.00    -0.489 OA
BRANCH  29  30
ATOM     30  C   UNL     1       2.261   2.942  12.093  0.00  0.00    +0.124 A 
ATOM     31  C   UNL     1       3.236   1.956  12.091  0.00  0.00    +0.046 A 
ATOM     32  C   UNL     1       4.085   1.823  13.173  0.00  0.00    +0.004 A 
ATOM     33  C   UNL     1       3.962   2.673  14.258  0.00  0.00    +0.000 A 
ATOM     34  C   UNL     1       2.991   3.657  14.262  0.00  0.00    +0.007 A 
ATOM     35  C   UNL     1       2.143   3.797  13.179  0.00  0.00    -0.009 A 
ATOM     36  C   UNL     1       1.088   4.873  13.182  0.00  0.00    +0.047 C 
ENDBRANCH  29  30
ENDBRANCH  28  29
ENDBRANCH  25  28
ENDBRANCH  24  25
ENDBRANCH   1  24
TORSDOF 11
