REMARK  Name = ZINC35544637
REMARK  5 active torsions:
REMARK  status: ('A' for Active; 'I' for Inactive)
REMARK    1  A    between atoms: C_5  and  C_7
REMARK    2  A    between atoms: C_7  and  N_8
REMARK    3  A    between atoms: C_9  and  C_11
REMARK    4  A    between atoms: C_16  and  N_34
REMARK    5  A    between atoms: N_24  and  C_27
REMARK                            x       y       z     vdW  Elec       q    Type
REMARK                         _______ _______ _______ _____ _____    ______ ____
ROOT
ATOM      1  C   UNL     1       1.800  -4.499   2.941  0.00  0.00    +0.101 C 
ATOM      2  C   UNL     1       3.144  -3.961   3.429  0.00  0.00    +0.051 C 
ATOM      3  C   UNL     1       4.237  -4.527   2.559  0.00  0.00    -0.023 A 
ATOM      4  C   UNL     1       5.398  -3.803   2.364  0.00  0.00    +0.038 A 
ATOM      5  C   UNL     1       6.402  -4.309   1.559  0.00  0.00    +0.127 A 
ATOM      6  C   UNL     1       6.245  -5.539   0.946  0.00  0.00    +0.034 A 
ATOM      7  C   UNL     1       5.089  -6.267   1.142  0.00  0.00    +0.025 A 
ATOM      8  C   UNL     1       4.079  -5.762   1.956  0.00  0.00    +0.033 A 
ATOM      9  N   UNL     1       2.925  -6.539   2.156  0.00  0.00    -0.323 N 
ATOM     10  C   UNL     1       1.819  -6.030   2.945  0.00  0.00    +0.103 C 
ATOM     11  C   UNL     1       0.464  -6.527   2.470  0.00  0.00    +0.128 C 
ATOM     12  N   UNL     1       0.513  -7.864   1.913  0.00  0.00    -0.327 N 
ATOM     13  C   UNL     1       1.592  -8.312   1.049  0.00  0.00    +0.124 C 
ATOM     14  C   UNL     1       2.937  -7.883   1.580  0.00  0.00    +0.124 C 
ENDROOT
BRANCH  12  15
ATOM     15  C   UNL     1      -0.517  -8.757   2.218  0.00  0.00    +0.031 A 
ATOM     16  C   UNL     1      -0.558 -10.006   1.611  0.00  0.00    +0.023 A 
ATOM     17  C   UNL     1      -1.577 -10.887   1.915  0.00  0.00    +0.003 A 
ATOM     18  C   UNL     1      -2.557 -10.527   2.823  0.00  0.00    +0.020 A 
ATOM     19  C   UNL     1      -2.519  -9.284   3.430  0.00  0.00    +0.043 A 
ATOM     20  C   UNL     1      -1.498  -8.400   3.134  0.00  0.00    +0.043 A 
ATOM     21 CL   UNL     1      -3.751  -8.837   4.568  0.00  0.00    -0.083 Cl
ENDBRANCH  12  15
BRANCH   1  23
ATOM     22  N   UNL     1       1.478  -2.682   1.293  0.00  0.00    -0.311 N 
ATOM     23  C   UNL     1       1.543  -4.005   1.540  0.00  0.00    +0.219 C 
ATOM     24  O   UNL     1       1.394  -4.799   0.635  0.00  0.00    -0.275 OA
ATOM     25  H   UNL     1       1.598  -2.047   2.017  0.00  0.00    +0.149 HD
BRANCH  22  26
ATOM     26  C   UNL     1       1.228  -2.202  -0.068  0.00  0.00    +0.142 C 
BRANCH  26  31
ATOM     27  C   UNL     1      -0.026   1.359  -0.079  0.00  0.00    +0.000 A 
ATOM     28  C   UNL     1       1.159   2.071  -0.084  0.00  0.00    +0.003 A 
ATOM     29  C   UNL     1       2.368   1.401  -0.083  0.00  0.00    +0.038 A 
ATOM     30  C   UNL     1       2.392   0.016  -0.078  0.00  0.00    +0.128 A 
ATOM     31  C   UNL     1       1.204  -0.695  -0.073  0.00  0.00    +0.005 A 
ATOM     32  C   UNL     1      -0.004  -0.023  -0.074  0.00  0.00    +0.008 A 
ATOM     33  F   UNL     1       3.573  -0.639  -0.078  0.00  0.00    -0.205 F 
ENDBRANCH  26  31
ENDBRANCH  22  26
ENDBRANCH   1  23
BRANCH   5  34
ATOM     34  N   UNL     1       7.645  -3.533   1.352  0.00  0.00    +0.056 N 
ATOM     35  O   UNL     1       7.783  -2.458   1.887  0.00  0.00    -0.126 OA
ATOM     36  O   UNL     1       8.523  -3.975   0.648  0.00  0.00    -0.126 OA
ENDBRANCH   5  34
TORSDOF 5
