REMARK  Name = ZINC14983230
REMARK  6 active torsions:
REMARK  status: ('A' for Active; 'I' for Inactive)
REMARK    1  A    between atoms: C_3  and  C_6
REMARK    2  A    between atoms: C_6  and  N_7
REMARK    3  A    between atoms: N_7  and  C_8
REMARK    4  A    between atoms: C_8  and  C_9
REMARK    5  A    between atoms: C_17  and  N_18
REMARK    6  A    between atoms: C_27  and  C_29
REMARK                            x       y       z     vdW  Elec       q    Type
REMARK                         _______ _______ _______ _____ _____    ______ ____
ROOT
ATOM      1  C   UNL     1       6.543  -1.326   4.669  0.00  0.00    +0.009 A 
ATOM      2  C   UNL     1       6.952  -0.057   4.948  0.00  0.00    +0.018 A 
ATOM      3  C   UNL     1       6.986   0.354   6.296  0.00  0.00    -0.001 A 
ATOM      4  C   UNL     1       7.398   1.644   6.657  0.00  0.00    +0.014 A 
ATOM      5  C   UNL     1       7.419   2.012   7.971  0.00  0.00    -0.043 A 
ATOM      6  C   UNL     1       7.032   1.115   8.966  0.00  0.00    -0.042 A 
ATOM      7  C   UNL     1       6.627  -0.149   8.647  0.00  0.00    +0.030 A 
ATOM      8  C   UNL     1       6.595  -0.560   7.305  0.00  0.00    +0.048 A 
ATOM      9  C   UNL     1       6.165  -2.183   5.713  0.00  0.00    +0.104 A 
ATOM     10  C   UNL     1       7.150   1.781  10.322  0.00  0.00    +0.036 C 
ATOM     11  C   UNL     1       8.058   3.007  10.093  0.00  0.00    +0.009 C 
ATOM     12  C   UNL     1       7.818   3.329   8.604  0.00  0.00    +0.036 C 
ATOM     13  N   UNL     1       6.182  -1.845   7.026  0.00  0.00    -0.343 N 
ATOM     14  H   UNL     1       5.905  -2.503   7.764  0.00  0.00    +0.167 HD
ENDROOT
BRANCH   9  15
ATOM     15  N   UNL     1       5.746  -3.471   5.413  0.00  0.00    -0.312 N 
ATOM     16  C   UNL     1       4.601  -3.860   6.248  0.00  0.00    +0.134 C 
ATOM     17  C   UNL     1       4.134  -5.261   5.844  0.00  0.00    +0.178 C 
ATOM     18  O   UNL     1       5.228  -6.175   5.965  0.00  0.00    -0.377 OA
ATOM     19  C   UNL     1       6.360  -5.827   5.165  0.00  0.00    +0.178 C 
ATOM     20  C   UNL     1       6.849  -4.431   5.561  0.00  0.00    +0.134 C 
ENDBRANCH   9  15
BRANCH   1  21
ATOM     21  C   UNL     1       6.492  -1.806   3.242  0.00  0.00    +0.147 C 
BRANCH  21  22
ATOM     22  N   UNL     1       5.126  -1.667   2.729  0.00  0.00    -0.286 N 
ATOM     23  C   UNL     1       4.704  -0.481   2.249  0.00  0.00    +0.247 C 
ATOM     24  O   UNL     1       5.490   0.437   2.119  0.00  0.00    -0.270 OA
BRANCH  23  25
ATOM     25  C   UNL     1       3.286  -0.295   1.883  0.00  0.00    +0.041 A 
ATOM     26  C   UNL     1       2.692   0.964   1.998  0.00  0.00    +0.017 A 
ATOM     27  C   UNL     1       1.368   1.134   1.657  0.00  0.00    +0.050 A 
ATOM     28  C   UNL     1       0.620   0.059   1.196  0.00  0.00    +0.166 A 
ATOM     29  C   UNL     1       1.208  -1.202   1.078  0.00  0.00    +0.167 A 
ATOM     30  C   UNL     1       2.535  -1.379   1.420  0.00  0.00    +0.062 A 
ATOM     31  O   UNL     1       0.271  -2.077   0.609  0.00  0.00    -0.453 OA
ATOM     32  C   UNL     1      -0.775  -1.258   0.055  0.00  0.00    +0.466 C 
ATOM     33  O   UNL     1      -0.682  -0.031   0.802  0.00  0.00    -0.453 OA
ENDBRANCH  23  25
BRANCH  22  34
ATOM     34  C   UNL     1       4.220  -2.819   2.737  0.00  0.00    +0.182 C 
BRANCH  34  37
ATOM     35  C   UNL     1       5.345  -5.340   0.295  0.00  0.00    +0.041 A 
ATOM     36  C   UNL     1       5.325  -4.805   1.604  0.00  0.00    +0.046 A 
ATOM     37  C   UNL     1       4.537  -3.716   1.569  0.00  0.00    +0.122 A 
ATOM     38  O   UNL     1       4.077  -3.566   0.316  0.00  0.00    -0.466 OA
ATOM     39  C   UNL     1       4.567  -4.545  -0.462  0.00  0.00    +0.195 A 
ENDBRANCH  34  37
ENDBRANCH  22  34
ENDBRANCH  21  22
ENDBRANCH   1  21
TORSDOF 6
