REMARK  Name = ZINC46792235
REMARK  11 active torsions:
REMARK  status: ('A' for Active; 'I' for Inactive)
REMARK    1  A    between atoms: C_1  and  C_2
REMARK    2  A    between atoms: C_4  and  C_15
REMARK    3  A    between atoms: C_6  and  S_9
REMARK    4  A    between atoms: C_7  and  C_8
REMARK    5  A    between atoms: S_9  and  N_12
REMARK    6  A    between atoms: N_12  and  C_13
REMARK    7  A    between atoms: N_12  and  C_14
REMARK    8  A    between atoms: N_17  and  C_18
REMARK    9  A    between atoms: C_18  and  C_19
REMARK   10  A    between atoms: C_27  and  C_34
REMARK   11  A    between atoms: C_30  and  C_33
REMARK                            x       y       z     vdW  Elec       q    Type
REMARK                         _______ _______ _______ _____ _____    ______ ____
ROOT
ATOM      1  C   UNL     1      -0.220  -2.825  -2.430  0.00  0.00    +0.244 C 
ATOM      2  O   UNL     1      -0.290  -4.038  -2.464  0.00  0.00    -0.270 OA
ATOM      3  N   UNL     1      -0.223  -2.118  -3.578  0.00  0.00    -0.307 N 
ATOM      4  H   UNL     1      -0.168  -1.150  -3.551  0.00  0.00    +0.149 HD
ENDROOT
BRANCH   1   8
ATOM      5  C   UNL     1       0.118   1.418   0.174  0.00  0.00    +0.044 C 
ATOM      6  C   UNL     1       0.031  -0.086   0.127  0.00  0.00    -0.045 A 
ATOM      7  C   UNL     1      -0.051  -0.733  -1.089  0.00  0.00    +0.016 A 
ATOM      8  C   UNL     1      -0.131  -2.126  -1.131  0.00  0.00    +0.039 A 
ATOM      9  C   UNL     1      -0.128  -2.855   0.059  0.00  0.00    +0.041 A 
ATOM     10  C   UNL     1      -0.045  -2.196   1.268  0.00  0.00    +0.109 A 
ATOM     11  C   UNL     1       0.039  -0.815   1.303  0.00  0.00    -0.021 A 
ATOM     12  C   UNL     1       0.135  -0.102   2.627  0.00  0.00    +0.046 C 
BRANCH  10  13
ATOM     13  S   UNL     1      -0.042  -3.115   2.772  0.00  0.00    +0.061 S 
ATOM     14  O   UNL     1       1.315  -3.214   3.184  0.00  0.00    -0.153 OA
ATOM     15  O   UNL     1      -1.049  -2.547   3.597  0.00  0.00    -0.153 OA
BRANCH  13  16
ATOM     16  N   UNL     1      -0.539  -4.652   2.408  0.00  0.00    -0.183 NA
ATOM     17  C   UNL     1       0.451  -5.699   2.144  0.00  0.00    +0.131 C 
ATOM     18  C   UNL     1      -1.969  -4.964   2.349  0.00  0.00    +0.131 C 
ENDBRANCH  13  16
ENDBRANCH  10  13
ENDBRANCH   1   8
BRANCH   3  19
ATOM     19  C   UNL     1      -0.311  -2.811  -4.865  0.00  0.00    +0.141 C 
BRANCH  19  20
ATOM     20  C   UNL     1      -0.296  -1.800  -5.982  0.00  0.00    -0.014 A 
ATOM     21  C   UNL     1      -1.485  -1.258  -6.453  0.00  0.00    +0.010 A 
ATOM     22  C   UNL     1      -1.427  -0.333  -7.480  0.00  0.00    +0.042 A 
ATOM     23  C   UNL     1      -0.187   0.021  -8.003  0.00  0.00    +0.099 A 
ATOM     24  N   UNL     1       0.924  -0.519  -7.527  0.00  0.00    -0.349 N 
ATOM     25  C   UNL     1       0.899  -1.399  -6.544  0.00  0.00    +0.089 A 
ATOM     26  N   UNL     1      -0.115   0.949  -9.035  0.00  0.00    -0.312 N 
ATOM     27  C   UNL     1      -1.314   1.669  -9.493  0.00  0.00    +0.137 C 
ATOM     28  C   UNL     1      -1.403   1.540 -11.018  0.00  0.00    +0.133 C 
ATOM     29  O   UNL     1      -0.160   1.944 -11.597  0.00  0.00    -0.371 OA
ATOM     30  C   UNL     1       0.955   1.134 -11.217  0.00  0.00    +0.133 C 
ATOM     31  C   UNL     1       1.165   1.246  -9.699  0.00  0.00    +0.137 C 
ATOM     32  C   UNL     1       2.211   1.619 -11.944  0.00  0.00    +0.039 C 
ATOM     33  C   UNL     1      -2.527   2.435 -11.542  0.00  0.00    +0.039 C 
ATOM     34  H   UNL     1       1.777  -0.258  -7.907  0.00  0.00    +0.167 HD
ENDBRANCH  19  20
ENDBRANCH   3  19
TORSDOF 5
