REMARK  Name = ZINC39490122
REMARK  4 active torsions:
REMARK  status: ('A' for Active; 'I' for Inactive)
REMARK    1  A    between atoms: C_1  and  N_2
REMARK    2  A    between atoms: C_10  and  C_12
REMARK    3  A    between atoms: N_26  and  C_27
REMARK    4  A    between atoms: C_27  and  C_28
REMARK                            x       y       z     vdW  Elec       q    Type
REMARK                         _______ _______ _______ _____ _____    ______ ____
ROOT
ATOM      1  C   UNL     1       1.426  -0.503   2.121  0.00  0.00    +0.019 C 
ATOM      2  C   UNL     1       2.713  -0.728   1.363  0.00  0.00    +0.010 A 
ATOM      3  H   UNL     1       2.418   0.189  -0.484  0.00  0.00    +0.166 HD
ATOM      4  C   UNL     1       3.765  -1.401   1.884  0.00  0.00    -0.022 A 
ATOM      5  C   UNL     1       4.803  -1.417   0.879  0.00  0.00    +0.003 A 
ATOM      6  C   UNL     1       6.092  -1.958   0.851  0.00  0.00    +0.010 A 
ATOM      7  C   UNL     1       6.817  -1.778  -0.301  0.00  0.00    +0.001 A 
ATOM      8  C   UNL     1       6.308  -1.093  -1.392  0.00  0.00    +0.002 A 
ATOM      9  C   UNL     1       5.036  -0.546  -1.392  0.00  0.00    +0.026 A 
ATOM     10  C   UNL     1       4.276  -0.715  -0.237  0.00  0.00    +0.047 A 
ATOM     11  N   UNL     1       3.013  -0.314   0.094  0.00  0.00    -0.359 N 
ATOM     12  C   UNL     1       3.765  -1.987   3.273  0.00  0.00    +0.019 C 
ATOM     13  C   UNL     1       2.596  -1.360   4.047  0.00  0.00    -0.073 C 
ATOM     14  N   UNL     1       1.368  -1.450   3.245  0.00  0.00    +0.390 N 
ATOM     15  H   UNL     1       1.272  -2.389   2.887  0.00  0.00    -0.080 HD
ENDROOT
BRANCH   1  25
ATOM     16  C   UNL     1       0.244   1.659   0.137  0.00  0.00    +0.131 C 
ATOM     17  N   UNL     1       0.285   0.197   0.058  0.00  0.00    -0.314 N 
ATOM     18  C   UNL     1       0.387  -0.570  -1.111  0.00  0.00    +0.052 A 
ATOM     19  C   UNL     1       0.470  -0.179  -2.442  0.00  0.00    +0.025 A 
ATOM     20  C   UNL     1       0.563  -1.130  -3.440  0.00  0.00    +0.002 A 
ATOM     21  C   UNL     1       0.573  -2.474  -3.119  0.00  0.00    +0.002 A 
ATOM     22  C   UNL     1       0.490  -2.873  -1.798  0.00  0.00    +0.025 A 
ATOM     23  C   UNL     1       0.397  -1.923  -0.787  0.00  0.00    +0.050 A 
ATOM     24  N   UNL     1       0.302  -2.080   0.602  0.00  0.00    -0.325 N 
ATOM     25  C   UNL     1       0.235  -0.737   1.190  0.00  0.00    +0.150 C 
ATOM     26  H   UNL     1       0.288  -2.921   1.086  0.00  0.00    +0.148 HD
ENDBRANCH   1  25
BRANCH  14  27
ATOM     27  C   UNL     1       0.207  -1.134   4.088  0.00  0.00    -0.040 C 
BRANCH  27  28
ATOM     28  C   UNL     1       0.062  -2.184   5.159  0.00  0.00    -0.038 A 
ATOM     29  C   UNL     1       0.411  -1.902   6.444  0.00  0.00    +0.004 A 
ATOM     30  C   UNL     1       0.286  -2.858   7.449  0.00  0.00    +0.001 A 
ATOM     31  C   UNL     1      -0.191  -4.104   7.173  0.00  0.00    +0.010 A 
ATOM     32  C   UNL     1      -0.561  -4.429   5.859  0.00  0.00    +0.001 A 
ATOM     33  C   UNL     1      -0.439  -3.457   4.836  0.00  0.00    +0.072 A 
ATOM     34  N   UNL     1      -0.794  -3.761   3.583  0.00  0.00    -0.255 NA
ATOM     35  C   UNL     1      -1.262  -4.946   3.276  0.00  0.00    +0.111 A 
ATOM     36  C   UNL     1      -1.412  -5.946   4.235  0.00  0.00    +0.020 A 
ATOM     37  C   UNL     1      -1.057  -5.705   5.532  0.00  0.00    +0.011 A 
ENDBRANCH  27  28
ENDBRANCH  14  27
TORSDOF 3
