REMARK  Name = ZINC64491138
REMARK  7 active torsions:
REMARK  status: ('A' for Active; 'I' for Inactive)
REMARK    1  A    between atoms: C_7  and  C_10
REMARK    2  A    between atoms: C_10  and  C_11
REMARK    3  A    between atoms: C_11  and  N_12
REMARK    4  A    between atoms: C_13  and  C_15
REMARK    5  A    between atoms: C_19  and  N_21
REMARK    6  A    between atoms: C_25  and  C_28
REMARK    7  A    between atoms: C_26  and  N_27
REMARK                            x       y       z     vdW  Elec       q    Type
REMARK                         _______ _______ _______ _____ _____    ______ ____
ROOT
ATOM      1  C   UNL     1      -1.935  -6.357  -2.668  0.00  0.00    +0.038 A 
ATOM      2  C   UNL     1      -2.242  -6.962  -1.448  0.00  0.00    +0.013 A 
ATOM      3  C   UNL     1      -2.902  -8.174  -1.426  0.00  0.00    +0.003 A 
ATOM      4  C   UNL     1      -3.262  -8.792  -2.609  0.00  0.00    +0.023 A 
ATOM      5  C   UNL     1      -2.961  -8.198  -3.829  0.00  0.00    +0.036 A 
ATOM      6  C   UNL     1      -2.303  -6.977  -3.862  0.00  0.00    +0.036 A 
ENDROOT
BRANCH   5   7
ATOM      7  N   UNL     1      -3.326  -8.828  -5.023  0.00  0.00    -0.281 N 
ATOM      8  C   UNL     1      -4.697  -9.046  -5.507  0.00  0.00    +0.191 C 
ATOM      9  C   UNL     1      -4.527  -9.762  -6.830  0.00  0.00    +0.182 C 
ATOM     10  O   UNL     1      -5.409 -10.137  -7.580  0.00  0.00    -0.290 OA
ATOM     11  C   UNL     1      -3.156  -9.901  -7.013  0.00  0.00    +0.062 C 
ATOM     12  C   UNL     1      -2.473  -9.347  -5.955  0.00  0.00    +0.098 C 
BRANCH  11  13
ATOM     13  C   UNL     1      -2.509 -10.561  -8.204  0.00  0.00    +0.171 C 
ATOM     14  N   UNL     1      -2.994 -11.937  -8.374  0.00  0.00    -0.327 N 
ATOM     15  C   UNL     1      -3.673 -12.240  -9.553  0.00  0.00    +0.042 A 
ATOM     16  C   UNL     1      -4.207 -13.497  -9.891  0.00  0.00    +0.024 A 
ATOM     17  C   UNL     1      -4.862 -13.695 -11.084  0.00  0.00    +0.002 A 
ATOM     18  C   UNL     1      -5.018 -12.665 -11.993  0.00  0.00    +0.001 A 
ATOM     19  C   UNL     1      -4.503 -11.417 -11.687  0.00  0.00    +0.016 A 
ATOM     20  C   UNL     1      -3.848 -11.219 -10.493  0.00  0.00    +0.031 A 
ATOM     21  S   UNL     1      -3.071  -9.788  -9.774  0.00  0.00    -0.096 S 
ATOM     22  H   UNL     1      -2.847 -12.610  -7.691  0.00  0.00    +0.147 HD
ENDBRANCH  11  13
BRANCH  12  23
ATOM     23  N   UNL     1      -1.109  -9.323  -5.848  0.00  0.00    -0.346 N 
ATOM     24  H   UNL     1      -0.692  -8.995  -5.036  0.00  0.00    +0.143 HD
ATOM     25  H   UNL     1      -0.559  -9.634  -6.585  0.00  0.00    +0.143 HD
ENDBRANCH  12  23
ENDBRANCH   5   7
BRANCH   1  27
ATOM     26  N   UNL     1      -0.872  -4.461  -1.540  0.00  0.00    -0.311 N 
ATOM     27  C   UNL     1      -1.227  -5.059  -2.695  0.00  0.00    +0.244 C 
ATOM     28  O   UNL     1      -0.965  -4.531  -3.758  0.00  0.00    -0.270 OA
ATOM     29  H   UNL     1      -1.081  -4.882  -0.692  0.00  0.00    +0.149 HD
BRANCH  26  30
ATOM     30  C   UNL     1      -0.171  -3.175  -1.567  0.00  0.00    +0.109 C 
BRANCH  30  31
ATOM     31  C   UNL     1       0.113  -2.720  -0.134  0.00  0.00    +0.052 C 
BRANCH  31  38
ATOM     32  C   UNL     1      -1.352   1.617   0.176  0.00  0.00    +0.001 A 
ATOM     33  C   UNL     1      -0.322   2.565   0.103  0.00  0.00    +0.002 A 
ATOM     34  C   UNL     1       0.975   2.223  -0.045  0.00  0.00    +0.026 A 
ATOM     35  C   UNL     1       1.351   0.854  -0.134  0.00  0.00    +0.043 A 
ATOM     36  N   UNL     1       2.520   0.278  -0.277  0.00  0.00    -0.380 N 
ATOM     37  C   UNL     1       2.324  -1.176  -0.309  0.00  0.00    +0.144 C 
ATOM     38  C   UNL     1       0.835  -1.397  -0.161  0.00  0.00    -0.040 C 
ATOM     39  C   UNL     1       0.282  -0.167  -0.058  0.00  0.00    -0.001 A 
ATOM     40  C   UNL     1      -1.104   0.290   0.103  0.00  0.00    +0.010 A 
ATOM     41  H   UNL     1       3.372   0.735  -0.350  0.00  0.00    +0.160 HD
ENDBRANCH  31  38
ENDBRANCH  30  31
ENDBRANCH  26  30
ENDBRANCH   1  27
TORSDOF 7
