REMARK  Name = ZINC39887412
REMARK  6 active torsions:
REMARK  status: ('A' for Active; 'I' for Inactive)
REMARK    1  A    between atoms: C_1  and  C_2
REMARK    2  A    between atoms: C_2  and  C_3
REMARK    3  A    between atoms: C_8  and  N_9
REMARK    4  A    between atoms: C_10  and  C_20
REMARK    5  A    between atoms: C_15  and  C_18
REMARK    6  A    between atoms: C_23  and  C_25
REMARK                            x       y       z     vdW  Elec       q    Type
REMARK                         _______ _______ _______ _____ _____    ______ ____
ROOT
ATOM      1  N   UNL     1      -1.308  -0.339   2.505  0.00  0.00    -0.267 N 
ATOM      2  C   UNL     1      -2.326  -1.362   2.242  0.00  0.00    +0.234 C 
ATOM      3  N   UNL     1      -3.359  -0.816   1.360  0.00  0.00    -0.286 N 
ATOM      4  C   UNL     1      -3.666   0.496   1.392  0.00  0.00    +0.258 C 
ATOM      5  O   UNL     1      -4.556   0.934   0.686  0.00  0.00    -0.269 OA
ATOM      6  C   UNL     1      -2.923   1.392   2.282  0.00  0.00    +0.142 C 
ATOM      7  C   UNL     1      -1.715   0.929   2.837  0.00  0.00    +0.103 C 
ATOM      8  S   UNL     1      -0.756   1.941   3.914  0.00  0.00    -0.033 SA
ATOM      9  H   UNL     1      -3.828  -1.404   0.747  0.00  0.00    +0.151 HD
ENDROOT
BRANCH   1  15
ATOM     10  C   UNL     1       0.731  -0.503   1.223  0.00  0.00    -0.026 A 
ATOM     11  C   UNL     1       2.076  -0.808   1.149  0.00  0.00    +0.005 A 
ATOM     12  C   UNL     1       2.746  -1.266   2.268  0.00  0.00    +0.000 A 
ATOM     13  C   UNL     1       2.071  -1.420   3.466  0.00  0.00    +0.002 A 
ATOM     14  C   UNL     1       0.727  -1.117   3.547  0.00  0.00    +0.024 A 
ATOM     15  C   UNL     1       0.052  -0.652   2.425  0.00  0.00    +0.040 A 
BRANCH  10  17
ATOM     16  C   UNL     1      -0.019   1.526   0.010  0.00  0.00    +0.009 C 
ATOM     17  C   UNL     1       0.002  -0.004   0.002  0.00  0.00    +0.033 C 
ENDBRANCH  10  17
ENDBRANCH   1  15
BRANCH   2  18
ATOM     18  C   UNL     1      -2.954  -1.790   3.543  0.00  0.00    +0.144 A 
ATOM     19  C   UNL     1      -4.217  -2.233   3.698  0.00  0.00    +0.049 A 
ATOM     20  C   UNL     1      -4.389  -2.522   5.066  0.00  0.00    +0.050 A 
ATOM     21  C   UNL     1      -3.209  -2.236   5.678  0.00  0.00    +0.137 A 
ATOM     22  O   UNL     1      -2.346  -1.799   4.741  0.00  0.00    -0.456 OA
BRANCH  21  23
ATOM     23  C   UNL     1      -2.921  -2.385   7.120  0.00  0.00    +0.037 A 
ATOM     24  C   UNL     1      -3.796  -1.852   8.068  0.00  0.00    +0.033 A 
ATOM     25  C   UNL     1      -3.522  -1.995   9.414  0.00  0.00    +0.042 A 
ATOM     26  C   UNL     1      -2.381  -2.666   9.823  0.00  0.00    +0.021 A 
ATOM     27  C   UNL     1      -1.510  -3.196   8.889  0.00  0.00    +0.022 A 
ATOM     28  C   UNL     1      -1.776  -3.066   7.540  0.00  0.00    +0.052 A 
ATOM     29 CL   UNL     1      -0.685  -3.738   6.369  0.00  0.00    -0.083 Cl
ATOM     30 CL   UNL     1      -4.608  -1.333  10.594  0.00  0.00    -0.084 Cl
ENDBRANCH  21  23
ENDBRANCH   2  18
BRANCH   6  31
ATOM     31  C   UNL     1      -3.414   2.702   2.583  0.00  0.00    +0.107 C 
ATOM     32  N   UNL     1      -3.805   3.742   2.822  0.00  0.00    -0.191 NA
ENDBRANCH   6  31
TORSDOF 5
