REMARK  Name = ZINC39690647
REMARK  8 active torsions:
REMARK  status: ('A' for Active; 'I' for Inactive)
REMARK    1  A    between atoms: C_1  and  C_2
REMARK    2  A    between atoms: C_3  and  C_12
REMARK    3  A    between atoms: C_7  and  O_8
REMARK    4  A    between atoms: O_8  and  C_9
REMARK    5  A    between atoms: C_9  and  C_11
REMARK    6  A    between atoms: C_16  and  C_25
REMARK    7  A    between atoms: N_27  and  C_28
REMARK    8  A    between atoms: C_28  and  C_29
REMARK                            x       y       z     vdW  Elec       q    Type
REMARK                         _______ _______ _______ _____ _____    ______ ____
ROOT
ATOM      1  C   UNL     1      -0.151  -0.086  -2.670  0.00  0.00    +0.247 C 
ATOM      2  O   UNL     1      -0.079   1.121  -2.798  0.00  0.00    -0.270 OA
ATOM      3  N   UNL     1      -0.375  -0.866  -3.746  0.00  0.00    -0.296 N 
ATOM      4  C   UNL     1      -0.619  -2.328  -3.773  0.00  0.00    +0.121 C 
ATOM      5  C   UNL     1      -1.710  -2.522  -4.849  0.00  0.00    +0.100 C 
ATOM      6  C   UNL     1      -1.583  -1.291  -5.763  0.00  0.00    -0.004 C 
ATOM      7  C   UNL     1      -0.440  -0.455  -5.169  0.00  0.00    +0.115 C 
ATOM      8  C   UNL     1      -1.238  -1.723  -7.185  0.00  0.00    -0.010 C 
ATOM      9  C   UNL     1      -1.173  -0.488  -8.088  0.00  0.00    -0.082 C 
ATOM     10  N   UNL     1      -2.467   0.205  -8.066  0.00  0.00    +0.379 N 
ATOM     11  C   UNL     1      -2.748   0.698  -6.712  0.00  0.00    -0.082 C 
ATOM     12  C   UNL     1      -2.879  -0.487  -5.751  0.00  0.00    -0.010 C 
ATOM     13  H   UNL     1      -2.442   0.983  -8.707  0.00  0.00    -0.086 HD
ATOM     14  H   UNL     1      -3.195  -0.436  -8.346  0.00  0.00    -0.086 HD
ENDROOT
BRANCH   1  17
ATOM     15  C   UNL     1      -1.176   1.286  -0.338  0.00  0.00    +0.048 C 
ATOM     16  C   UNL     1      -0.483  -0.045  -0.202  0.00  0.00    +0.004 A 
ATOM     17  C   UNL     1       0.007  -0.698  -1.333  0.00  0.00    +0.043 A 
ATOM     18  C   UNL     1       0.648  -1.930  -1.198  0.00  0.00    +0.013 A 
ATOM     19  C   UNL     1       0.794  -2.499   0.051  0.00  0.00    +0.004 A 
ATOM     20  C   UNL     1       0.307  -1.851   1.171  0.00  0.00    +0.047 A 
ATOM     21  C   UNL     1      -0.327  -0.622   1.047  0.00  0.00    +0.135 A 
BRANCH  21  22
ATOM     22  O   UNL     1      -0.799   0.013   2.152  0.00  0.00    -0.426 OA
BRANCH  22  23
ATOM     23  C   UNL     1      -0.097   1.053   2.631  0.00  0.00    +0.309 C 
ATOM     24  O   UNL     1       0.969   1.340   2.138  0.00  0.00    -0.251 OA
ATOM     25  C   UNL     1      -0.637   1.862   3.782  0.00  0.00    +0.136 C 
ENDBRANCH  22  23
ENDBRANCH  21  22
ENDBRANCH   1  17
BRANCH   5  26
ATOM     26  C   UNL     1      -1.459  -3.786  -5.629  0.00  0.00    +0.218 C 
ATOM     27  O   UNL     1      -0.335  -4.234  -5.713  0.00  0.00    -0.275 OA
ATOM     28  N   UNL     1      -2.484  -4.420  -6.233  0.00  0.00    -0.311 N 
ATOM     29  H   UNL     1      -3.383  -4.062  -6.165  0.00  0.00    +0.149 HD
BRANCH  28  30
ATOM     30  C   UNL     1      -2.240  -5.650  -6.991  0.00  0.00    +0.140 C 
BRANCH  30  31
ATOM     31  C   UNL     1      -3.540  -6.154  -7.562  0.00  0.00    -0.016 A 
ATOM     32  C   UNL     1      -4.220  -7.180  -6.931  0.00  0.00    +0.006 A 
ATOM     33  C   UNL     1      -5.413  -7.643  -7.454  0.00  0.00    +0.000 A 
ATOM     34  C   UNL     1      -5.927  -7.080  -8.608  0.00  0.00    +0.001 A 
ATOM     35  C   UNL     1      -5.248  -6.055  -9.239  0.00  0.00    +0.015 A 
ATOM     36  C   UNL     1      -4.057  -5.588  -8.713  0.00  0.00    +0.023 A 
ATOM     37 BR   UNL     1      -3.131  -4.181  -9.572  0.00  0.00    -0.050 Br
ENDBRANCH  30  31
ENDBRANCH  28  30
ENDBRANCH   5  26
TORSDOF 6
