REMARK  Name = ZINC25583861
REMARK  9 active torsions:
REMARK  status: ('A' for Active; 'I' for Inactive)
REMARK    1  A    between atoms: C_1  and  C_2
REMARK    2  A    between atoms: C_2  and  O_3
REMARK    3  A    between atoms: O_3  and  C_4
REMARK    4  A    between atoms: C_4  and  C_6
REMARK    5  A    between atoms: C_10  and  N_11
REMARK    6  A    between atoms: C_12  and  C_14
REMARK    7  A    between atoms: N_16  and  N_17
REMARK    8  A    between atoms: C_18  and  C_19
REMARK    9  A    between atoms: C_28  and  O_29
REMARK                            x       y       z     vdW  Elec       q    Type
REMARK                         _______ _______ _______ _____ _____    ______ ____
ROOT
ATOM      1  N   UNL     1      -3.035  -2.524   2.497  0.00  0.00    -0.271 N 
ATOM      2  C   UNL     1      -3.810  -2.867   3.545  0.00  0.00    +0.305 C 
ATOM      3  O   UNL     1      -4.913  -3.339   3.355  0.00  0.00    -0.265 OA
ATOM      4  H   UNL     1      -2.154  -2.147   2.648  0.00  0.00    +0.156 HD
ENDROOT
BRANCH   1   9
ATOM      5  C   UNL     1      -2.843  -2.416   0.016  0.00  0.00    +0.091 A 
ATOM      6  C   UNL     1      -3.548  -2.714  -1.218  0.00  0.00    -0.021 A 
ATOM      7  C   UNL     1      -4.778  -3.243  -1.038  0.00  0.00    -0.004 A 
ATOM      8  S   UNL     1      -4.975  -3.337   0.717  0.00  0.00    -0.077 S 
ATOM      9  C   UNL     1      -3.496  -2.709   1.205  0.00  0.00    +0.087 A 
ATOM     10  C   UNL     1      -5.745  -3.652  -2.106  0.00  0.00    +0.043 C 
ATOM     11  C   UNL     1      -5.287  -3.033  -3.435  0.00  0.00    +0.005 C 
ATOM     12  C   UNL     1      -3.790  -3.300  -3.615  0.00  0.00    +0.005 C 
ATOM     13  C   UNL     1      -2.989  -2.468  -2.612  0.00  0.00    +0.037 C 
BRANCH   5  14
ATOM     14  C   UNL     1      -1.497  -1.838   0.006  0.00  0.00    +0.342 C 
ATOM     15  O   UNL     1      -0.523  -2.566  -0.007  0.00  0.00    -0.245 OA
BRANCH  14  16
ATOM     16  O   UNL     1      -1.339  -0.499   0.012  0.00  0.00    -0.461 OA
BRANCH  16  18
ATOM     17  C   UNL     1      -0.019   1.526   0.010  0.00  0.00    +0.048 C 
ATOM     18  C   UNL     1       0.002  -0.004   0.002  0.00  0.00    +0.229 C 
ENDBRANCH  16  18
ENDBRANCH  14  16
ENDBRANCH   5  14
ENDBRANCH   1   9
BRANCH   2  19
ATOM     19  C   UNL     1      -3.314  -2.668   4.935  0.00  0.00    +0.318 C 
ATOM     20  O   UNL     1      -2.211  -2.197   5.125  0.00  0.00    -0.263 OA
ATOM     21  N   UNL     1      -4.089  -3.012   5.983  0.00  0.00    -0.199 N 
ATOM     22  H   UNL     1      -4.970  -3.388   5.832  0.00  0.00    +0.178 HD
BRANCH  21  23
ATOM     23  N   UNL     1      -3.622  -2.825   7.290  0.00  0.00    -0.187 NA
ATOM     24  C   UNL     1      -4.371  -3.156   8.302  0.00  0.00    +0.142 C 
BRANCH  24  25
ATOM     25  C   UNL     1      -3.882  -2.960   9.673  0.00  0.00    +0.044 A 
ATOM     26  C   UNL     1      -4.707  -3.332  10.821  0.00  0.00    -0.006 A 
ATOM     27  C   UNL     1      -5.982  -3.885  10.655  0.00  0.00    +0.009 A 
ATOM     28  C   UNL     1      -6.720  -4.219  11.752  0.00  0.00    +0.001 A 
ATOM     29  C   UNL     1      -6.221  -4.018  13.037  0.00  0.00    +0.001 A 
ATOM     30  C   UNL     1      -4.985  -3.482  13.234  0.00  0.00    +0.008 A 
ATOM     31  C   UNL     1      -4.197  -3.126  12.126  0.00  0.00    -0.017 A 
ATOM     32  C   UNL     1      -2.915  -2.572  12.290  0.00  0.00    +0.012 A 
ATOM     33  C   UNL     1      -2.161  -2.231  11.212  0.00  0.00    +0.046 A 
ATOM     34  C   UNL     1      -2.617  -2.419   9.908  0.00  0.00    +0.126 A 
BRANCH  34  35
ATOM     35  O   UNL     1      -1.827  -2.070   8.861  0.00  0.00    -0.506 OA
ATOM     36  H   UNL     1      -1.946  -1.157   8.565  0.00  0.00    +0.292 HD
ENDBRANCH  34  35
ENDBRANCH  24  25
ENDBRANCH  21  23
ENDBRANCH   2  19
TORSDOF 8
