REMARK  Name = ZINC34830242
REMARK  9 active torsions:
REMARK  status: ('A' for Active; 'I' for Inactive)
REMARK    1  A    between atoms: C_1  and  C_2
REMARK    2  A    between atoms: C_7  and  C_8
REMARK    3  A    between atoms: N_17  and  C_18
REMARK    4  A    between atoms: C_18  and  C_19
REMARK    5  A    between atoms: C_19  and  C_20
REMARK    6  A    between atoms: C_29  and  C_31
REMARK    7  A    between atoms: C_31  and  C_32
REMARK    8  A    between atoms: C_31  and  C_33
REMARK    9  A    between atoms: C_31  and  C_34
REMARK                            x       y       z     vdW  Elec       q    Type
REMARK                         _______ _______ _______ _____ _____    ______ ____
ROOT
ATOM      1  C   UNL     1      -1.597  -2.642   2.750  0.00  0.00    -0.068 C 
ENDROOT
BRANCH   1  10
ATOM      2  C   UNL     1      -0.020  -1.476   1.379  0.00  0.00    -0.006 C 
ATOM      3  C   UNL     1       1.391  -0.896   1.337  0.00  0.00    -0.047 A 
ATOM      4  C   UNL     1       2.047  -0.526   0.165  0.00  0.00    +0.010 A 
ATOM      5  C   UNL     1       3.301  -0.021   0.222  0.00  0.00    +0.045 A 
ATOM      6  S   UNL     1       3.628  -0.043   1.979  0.00  0.00    -0.101 S 
ATOM      7  C   UNL     1       2.077  -0.717   2.500  0.00  0.00    -0.010 A 
ATOM      8  C   UNL     1       1.587  -1.032   3.876  0.00  0.00    +0.024 C 
ATOM      9  C   UNL     1       0.069  -1.264   3.786  0.00  0.00    -0.072 C 
ATOM     10  N   UNL     1      -0.210  -2.166   2.660  0.00  0.00    +0.388 N 
ATOM     11  H   UNL     1       0.415  -2.957   2.707  0.00  0.00    -0.080 HD
BRANCH   2  18
ATOM     12  C   UNL     1      -0.731  -0.522  -1.254  0.00  0.00    +0.044 C 
ATOM     13  C   UNL     1      -0.538  -1.997  -1.014  0.00  0.00    -0.049 A 
ATOM     14  C   UNL     1      -0.697  -2.893  -2.054  0.00  0.00    +0.003 A 
ATOM     15  C   UNL     1      -0.520  -4.246  -1.834  0.00  0.00    +0.000 A 
ATOM     16  C   UNL     1      -0.185  -4.703  -0.573  0.00  0.00    +0.000 A 
ATOM     17  C   UNL     1      -0.026  -3.807   0.468  0.00  0.00    +0.002 A 
ATOM     18  C   UNL     1      -0.198  -2.453   0.246  0.00  0.00    -0.054 A 
ENDBRANCH   2  18
ENDBRANCH   1  10
BRANCH   1  19
ATOM     19  C   UNL     1      -1.770  -3.470   4.025  0.00  0.00    +0.077 C 
BRANCH  19  20
ATOM     20  C   UNL     1      -3.193  -3.958   4.118  0.00  0.00    +0.214 C 
ATOM     21  O   UNL     1      -3.990  -3.671   3.250  0.00  0.00    -0.276 OA
ATOM     22  N   UNL     1      -3.580  -4.712   5.166  0.00  0.00    -0.300 N 
ATOM     23  C   UNL     1      -4.912  -5.194   5.282  0.00  0.00    +0.109 C 
ATOM     24  C   UNL     1      -5.919  -4.178   5.914  0.00  0.00    +0.038 C 
ATOM     25  C   UNL     1      -5.160  -3.416   7.049  0.00  0.00    +0.109 C 
ATOM     26  N   UNL     1      -4.260  -4.218   7.801  0.00  0.00    -0.299 N 
ATOM     27  C   UNL     1      -2.832  -4.193   7.394  0.00  0.00    +0.126 C 
ATOM     28  C   UNL     1      -2.631  -5.082   6.248  0.00  0.00    +0.126 C 
ATOM     29  C   UNL     1      -4.684  -4.967   8.838  0.00  0.00    +0.222 C 
ATOM     30  O   UNL     1      -5.868  -5.043   9.087  0.00  0.00    -0.275 OA
BRANCH  29  31
ATOM     31  C   UNL     1      -3.685  -5.709   9.689  0.00  0.00    +0.055 C 
ATOM     32  C   UNL     1      -2.888  -6.677   8.812  0.00  0.00    +0.022 C 
ATOM     33  C   UNL     1      -2.730  -4.710  10.344  0.00  0.00    +0.022 C 
BRANCH  31  34
ATOM     34  C   UNL     1      -4.424  -6.495  10.774  0.00  0.00    +0.124 C 
ATOM     35 CL   UNL     1      -3.230  -7.383  11.791  0.00  0.00    -0.124 Cl
ENDBRANCH  31  34
ENDBRANCH  29  31
ENDBRANCH  19  20
ENDBRANCH   1  19
TORSDOF 6
