REMARK  Name = ZINC37604433
REMARK  10 active torsions:
REMARK  status: ('A' for Active; 'I' for Inactive)
REMARK    1  A    between atoms: C_1  and  C_2
REMARK    2  A    between atoms: C_2  and  C_3
REMARK    3  A    between atoms: C_2  and  C_4
REMARK    4  A    between atoms: C_2  and  C_5
REMARK    5  A    between atoms: C_13  and  O_25
REMARK    6  A    between atoms: C_16  and  C_18
REMARK    7  A    between atoms: O_25  and  C_26
REMARK    8  A    between atoms: C_26  and  C_27
REMARK    9  A    between atoms: C_29  and  C_32
REMARK   10  A    between atoms: N_34  and  C_35
REMARK                            x       y       z     vdW  Elec       q    Type
REMARK                         _______ _______ _______ _____ _____    ______ ____
ROOT
ATOM      1  C   UNL     1       0.728  -0.481  -1.270  0.00  0.00    +0.222 C 
ATOM      2  O   UNL     1       1.236   0.336  -2.009  0.00  0.00    -0.275 OA
ATOM      3  N   UNL     1       0.790  -1.793  -1.573  0.00  0.00    -0.290 N 
ATOM      4  C   UNL     1       0.268  -2.817  -0.652  0.00  0.00    +0.113 C 
ATOM      5  C   UNL     1      -0.901  -3.517  -1.342  0.00  0.00    +0.054 C 
ATOM      6  C   UNL     1      -0.537  -3.907  -2.751  0.00  0.00    -0.040 A 
ATOM      7  C   UNL     1      -1.295  -4.901  -3.359  0.00  0.00    +0.007 A 
ATOM      8  C   UNL     1      -1.024  -5.300  -4.650  0.00  0.00    +0.046 A 
ATOM      9  C   UNL     1       0.014  -4.704  -5.352  0.00  0.00    +0.122 A 
ATOM     10  C   UNL     1       0.771  -3.716  -4.745  0.00  0.00    +0.051 A 
ATOM     11  C   UNL     1       0.499  -3.321  -3.443  0.00  0.00    -0.016 A 
ATOM     12  C   UNL     1       1.373  -2.258  -2.836  0.00  0.00    +0.137 C 
ENDROOT
BRANCH  12  13
ATOM     13  C   UNL     1       2.742  -2.830  -2.575  0.00  0.00    -0.020 A 
ATOM     14  C   UNL     1       2.879  -3.974  -1.810  0.00  0.00    +0.006 A 
ATOM     15  C   UNL     1       4.135  -4.500  -1.570  0.00  0.00    +0.003 A 
ATOM     16  C   UNL     1       5.255  -3.883  -2.095  0.00  0.00    +0.038 A 
ATOM     17  C   UNL     1       5.119  -2.739  -2.861  0.00  0.00    +0.124 A 
ATOM     18  C   UNL     1       3.860  -2.216  -3.106  0.00  0.00    +0.044 A 
ATOM     19  F   UNL     1       6.213  -2.135  -3.375  0.00  0.00    -0.205 F 
ENDBRANCH  12  13
BRANCH   1  21
ATOM     20  C   UNL     1      -0.016   1.499   0.024  0.00  0.00    +0.020 C 
ATOM     21  C   UNL     1       0.029  -0.030  -0.014  0.00  0.00    +0.039 C 
ATOM     22  C   UNL     1       0.791  -0.548   1.208  0.00  0.00    +0.020 C 
ATOM     23  C   UNL     1      -1.397  -0.583   0.003  0.00  0.00    +0.020 C 
ENDBRANCH   1  21
BRANCH   9  24
ATOM     24  O   UNL     1       0.287  -5.088  -6.627  0.00  0.00    -0.483 OA
BRANCH  24  25
ATOM     25  C   UNL     1      -0.537  -6.114  -7.185  0.00  0.00    +0.324 C 
BRANCH  25  26
ATOM     26  C   UNL     1      -0.089  -6.405  -8.594  0.00  0.00    +0.234 A 
ATOM     27  N   UNL     1       0.800  -7.290  -8.934  0.00  0.00    -0.206 NA
ATOM     28  C   UNL     1       0.938  -7.266 -10.287  0.00  0.00    +0.164 A 
ATOM     29  C   UNL     1       0.084  -6.317 -10.759  0.00  0.00    +0.230 A 
ATOM     30  O   UNL     1      -0.550  -5.797  -9.696  0.00  0.00    -0.444 OA
BRANCH  28  31
ATOM     31  C   UNL     1       1.842  -8.108 -11.090  0.00  0.00    +0.270 C 
ATOM     32  O   UNL     1       1.871  -7.988 -12.300  0.00  0.00    -0.268 OA
ATOM     33  N   UNL     1       2.637  -9.012 -10.484  0.00  0.00    -0.280 N 
ATOM     34  H   UNL     1       2.562  -9.160  -9.528  0.00  0.00    +0.155 HD
BRANCH  33  35
ATOM     35  C   UNL     1       3.570  -9.736 -11.233  0.00  0.00    +0.034 A 
ATOM     36  C   UNL     1       3.851 -11.057 -10.906  0.00  0.00    +0.023 A 
ATOM     37  C   UNL     1       4.772 -11.769 -11.648  0.00  0.00    +0.002 A 
ATOM     38  C   UNL     1       5.416 -11.170 -12.715  0.00  0.00    +0.000 A 
ATOM     39  C   UNL     1       5.138  -9.855 -13.043  0.00  0.00    +0.002 A 
ATOM     40  C   UNL     1       4.214  -9.139 -12.309  0.00  0.00    +0.023 A 
ENDBRANCH  33  35
ENDBRANCH  28  31
ENDBRANCH  25  26
ENDBRANCH  24  25
ENDBRANCH   9  24
TORSDOF 7
