REMARK  Name = ZINC63361926
REMARK  9 active torsions:
REMARK  status: ('A' for Active; 'I' for Inactive)
REMARK    1  A    between atoms: C_1  and  C_2
REMARK    2  A    between atoms: C_2  and  C_3
REMARK    3  A    between atoms: C_3  and  C_5
REMARK    4  A    between atoms: C_3  and  N_6
REMARK    5  A    between atoms: C_7  and  C_9
REMARK    6  A    between atoms: C_14  and  N_15
REMARK    7  A    between atoms: C_18  and  C_36
REMARK    8  A    between atoms: C_24  and  O_29
REMARK    9  A    between atoms: O_29  and  C_30
REMARK                            x       y       z     vdW  Elec       q    Type
REMARK                         _______ _______ _______ _____ _____    ______ ____
ROOT
ATOM      1  N   UNL     1      -6.259   0.375   1.509  0.00  0.00    -0.192 N 
ATOM      2  C   UNL     1      -6.909  -0.755   1.163  0.00  0.00    +0.253 C 
ATOM      3  O   UNL     1      -6.903  -1.814   1.753  0.00  0.00    -0.272 OA
ATOM      4  C   UNL     1      -7.649  -0.425  -0.115  0.00  0.00    +0.137 C 
ATOM      5  C   UNL     1      -7.203  -1.347  -1.249  0.00  0.00    +0.139 C 
ATOM      6  C   UNL     1      -6.421  -0.499  -2.241  0.00  0.00    -0.034 C 
ATOM      7  C   UNL     1      -5.231  -1.080  -2.371  0.00  0.00    +0.003 A 
ATOM      8  C   UNL     1      -4.076  -0.768  -3.226  0.00  0.00    +0.055 A 
ATOM      9  C   UNL     1      -2.988  -1.576  -3.100  0.00  0.00    +0.121 A 
ATOM     10  C   UNL     1      -2.916  -2.663  -2.216  0.00  0.00    +0.047 A 
ATOM     11  C   UNL     1      -3.922  -3.040  -1.386  0.00  0.00    +0.029 A 
ATOM     12  C   UNL     1      -5.156  -2.245  -1.436  0.00  0.00    +0.043 A 
ATOM     13  N   UNL     1      -6.284  -2.385  -0.777  0.00  0.00    -0.375 N 
ATOM     14  C   UNL     1      -6.949   0.777  -2.849  0.00  0.00    +0.052 C 
ATOM     15  C   UNL     1      -7.449   1.656  -1.685  0.00  0.00    +0.115 C 
ATOM     16  N   UNL     1      -7.183   0.940  -0.434  0.00  0.00    -0.268 N 
ATOM     17  C   UNL     1      -6.454   1.352   0.613  0.00  0.00    +0.317 C 
ATOM     18  O   UNL     1      -6.018   2.480   0.734  0.00  0.00    -0.252 OA
ATOM     19  C   UNL     1      -9.164  -0.464   0.092  0.00  0.00    +0.044 C 
ATOM     20  H   UNL     1      -6.479  -3.050  -0.097  0.00  0.00    +0.160 HD
ENDROOT
BRANCH   1  26
ATOM     21  C   UNL     1      -6.075   0.921   3.865  0.00  0.00    +0.059 A 
ATOM     22  C   UNL     1      -5.289   1.049   5.013  0.00  0.00    +0.015 A 
ATOM     23  C   UNL     1      -3.939   0.778   4.955  0.00  0.00    +0.001 A 
ATOM     24  C   UNL     1      -3.356   0.379   3.763  0.00  0.00    +0.002 A 
ATOM     25  C   UNL     1      -4.121   0.249   2.621  0.00  0.00    +0.025 A 
ATOM     26  C   UNL     1      -5.483   0.512   2.662  0.00  0.00    +0.058 A 
BRANCH  21  28
ATOM     27  N   UNL     1      -8.105   1.503   5.099  0.00  0.00    -0.309 N 
ATOM     28  C   UNL     1      -7.521   1.209   3.920  0.00  0.00    +0.246 C 
ATOM     29  O   UNL     1      -8.186   1.181   2.902  0.00  0.00    -0.270 OA
ATOM     30  H   UNL     1      -7.564   1.598   5.898  0.00  0.00    +0.149 HD
BRANCH  27  31
ATOM     31  C   UNL     1      -9.558   1.678   5.173  0.00  0.00    +0.070 C 
ATOM     32  C   UNL     1      -9.915   3.126   4.832  0.00  0.00    +0.028 C 
BRANCH  31  34
ATOM     33  C   UNL     1      -9.794  -0.128   6.883  0.00  0.00    +0.005 C 
ATOM     34  C   UNL     1     -10.039   1.353   6.588  0.00  0.00    +0.018 C 
ENDBRANCH  31  34
ENDBRANCH  27  31
ENDBRANCH  21  28
ENDBRANCH   1  26
BRANCH   9  35
ATOM     35  O   UNL     1      -1.904  -1.314  -3.878  0.00  0.00    -0.495 OA
ATOM     36  C   UNL     1      -0.774  -2.175  -3.728  0.00  0.00    +0.277 C 
ENDBRANCH   9  35
TORSDOF 5
