REMARK  Name = ZINC40036951
REMARK  6 active torsions:
REMARK  status: ('A' for Active; 'I' for Inactive)
REMARK    1  A    between atoms: C_1  and  C_2
REMARK    2  A    between atoms: C_2  and  O_3
REMARK    3  A    between atoms: O_3  and  C_4
REMARK    4  A    between atoms: C_8  and  C_10
REMARK    5  A    between atoms: N_11  and  N_12
REMARK    6  A    between atoms: N_19  and  C_20
REMARK                            x       y       z     vdW  Elec       q    Type
REMARK                         _______ _______ _______ _____ _____    ______ ____
ROOT
ATOM      1  N   UNL     1       2.114  -6.257  -5.622  0.00  0.00    -0.206 N 
ATOM      2  C   UNL     1       2.631  -7.521  -5.502  0.00  0.00    +0.223 A 
ATOM      3  N   UNL     1       2.185  -8.312  -4.548  0.00  0.00    -0.214 NA
ATOM      4  C   UNL     1       2.669  -9.549  -4.397  0.00  0.00    +0.084 A 
ATOM      5  C   UNL     1       3.629 -10.027  -5.276  0.00  0.00    +0.050 A 
ATOM      6  C   UNL     1       4.104  -9.181  -6.286  0.00  0.00    +0.264 A 
ATOM      7  O   UNL     1       4.958  -9.563  -7.070  0.00  0.00    -0.267 OA
ATOM      8  N   UNL     1       3.594  -7.934  -6.376  0.00  0.00    -0.248 N 
ATOM      9  C   UNL     1       4.131 -11.441  -5.163  0.00  0.00    +0.007 C 
ATOM     10  C   UNL     1       5.522 -11.535  -5.799  0.00  0.00    +0.012 C 
ATOM     11  C   UNL     1       6.035 -12.972  -5.691  0.00  0.00    +0.001 C 
ATOM     12  C   UNL     1       5.079 -13.912  -6.428  0.00  0.00    +0.000 C 
ATOM     13  C   UNL     1       3.687 -13.818  -5.799  0.00  0.00    +0.001 C 
ATOM     14  C   UNL     1       3.175 -12.380  -5.904  0.00  0.00    +0.012 C 
ATOM     15  C   UNL     1       4.219 -11.862  -3.697  0.00  0.00    +0.047 C 
ATOM     16  C   UNL     1       2.929 -11.568  -2.980  0.00  0.00    -0.037 A 
ATOM     17  C   UNL     1       2.187 -10.435  -3.314  0.00  0.00    +0.004 A 
ATOM     18  C   UNL     1       1.006 -10.148  -2.633  0.00  0.00    +0.010 A 
ATOM     19  C   UNL     1       0.568 -10.998  -1.637  0.00  0.00    +0.001 A 
ATOM     20  C   UNL     1       1.298 -12.129  -1.319  0.00  0.00    +0.000 A 
ATOM     21  C   UNL     1       2.476 -12.413  -1.988  0.00  0.00    +0.004 A 
ATOM     22  H   UNL     1       2.486  -5.640  -6.272  0.00  0.00    +0.177 HD
ENDROOT
BRANCH   8  23
ATOM     23  C   UNL     1       4.058  -7.060  -7.367  0.00  0.00    +0.053 A 
ATOM     24  C   UNL     1       5.142  -6.230  -7.112  0.00  0.00    +0.026 A 
ATOM     25  C   UNL     1       5.597  -5.370  -8.091  0.00  0.00    +0.002 A 
ATOM     26  C   UNL     1       4.975  -5.333  -9.325  0.00  0.00    +0.000 A 
ATOM     27  C   UNL     1       3.895  -6.157  -9.583  0.00  0.00    +0.002 A 
ATOM     28  C   UNL     1       3.439  -7.025  -8.610  0.00  0.00    +0.026 A 
ENDBRANCH   8  23
BRANCH   1  30
ATOM     29  C   UNL     1       0.557  -4.661  -4.921  0.00  0.00    +0.138 C 
ATOM     30  N   UNL     1       1.047  -5.857  -4.807  0.00  0.00    -0.188 NA
BRANCH  29  35
ATOM     31  C   UNL     1      -2.149  -2.564  -3.373  0.00  0.00    +0.121 A 
ATOM     32  C   UNL     1      -2.677  -3.453  -2.445  0.00  0.00    +0.045 A 
ATOM     33  C   UNL     1      -2.154  -4.727  -2.325  0.00  0.00    +0.004 A 
ATOM     34  C   UNL     1      -1.104  -5.125  -3.126  0.00  0.00    +0.010 A 
ATOM     35  C   UNL     1      -0.566  -4.239  -4.063  0.00  0.00    -0.002 A 
ATOM     36  C   UNL     1      -1.099  -2.954  -4.186  0.00  0.00    +0.055 A 
BRANCH  31  37
ATOM     37  O   UNL     1      -2.668  -1.313  -3.487  0.00  0.00    -0.492 OA
BRANCH  37  39
ATOM     38  C   UNL     1      -4.197   0.460  -2.889  0.00  0.00    +0.048 C 
ATOM     39  C   UNL     1      -3.750  -0.978  -2.616  0.00  0.00    +0.225 C 
ENDBRANCH  37  39
ENDBRANCH  31  37
ENDBRANCH  29  35
ENDBRANCH   1  30
TORSDOF 5
