REMARK  Name = ZINC22783389
REMARK  11 active torsions:
REMARK  status: ('A' for Active; 'I' for Inactive)
REMARK    1  A    between atoms: C_1  and  C_2
REMARK    2  A    between atoms: C_2  and  C_3
REMARK    3  A    between atoms: C_2  and  C_4
REMARK    4  A    between atoms: C_4  and  C_5
REMARK    5  A    between atoms: C_5  and  N_6
REMARK    6  A    between atoms: C_7  and  C_25
REMARK    7  A    between atoms: N_17  and  C_18
REMARK    8  A    between atoms: C_18  and  C_19
REMARK    9  A    between atoms: C_25  and  N_26
REMARK   10  A    between atoms: N_29  and  C_32
REMARK   11  A    between atoms: C_32  and  C_33
REMARK                            x       y       z     vdW  Elec       q    Type
REMARK                         _______ _______ _______ _____ _____    ______ ____
ROOT
ATOM      1  N   UNL     1      -4.956   2.243  -3.583  0.00  0.00    -0.321 N 
ATOM      2  C   UNL     1      -5.019   1.424  -2.514  0.00  0.00    +0.127 A 
ATOM      3  N   UNL     1      -4.373   1.960  -1.510  0.00  0.00    -0.213 NA
ATOM      4  C   UNL     1      -3.866   3.140  -1.875  0.00  0.00    +0.169 A 
ATOM      5  C   UNL     1      -4.224   3.349  -3.201  0.00  0.00    +0.152 A 
ATOM      6  C   UNL     1      -3.812   4.535  -3.846  0.00  0.00    +0.280 A 
ATOM      7  O   UNL     1      -4.114   4.741  -5.008  0.00  0.00    -0.265 OA
ATOM      8  N   UNL     1      -3.081   5.438  -3.160  0.00  0.00    -0.273 N 
ATOM      9  H   UNL     1      -2.750   6.365  -3.651  0.00  0.00    +0.173 HD
ATOM     10  C   UNL     1      -2.745   5.225  -1.876  0.00  0.00    +0.331 A 
ATOM     11  O   UNL     1      -2.089   6.063  -1.288  0.00  0.00    -0.246 OA
ATOM     12  N   UNL     1      -3.113   4.105  -1.226  0.00  0.00    -0.272 N 
ENDROOT
BRANCH   1  13
ATOM     13  C   UNL     1      -5.553   2.004  -4.899  0.00  0.00    +0.124 C 
BRANCH  13  14
ATOM     14  C   UNL     1      -4.509   1.377  -5.826  0.00  0.00    +0.024 C 
BRANCH  14  16
ATOM     15  C   UNL     1      -4.007   0.738  -8.189  0.00  0.00    +0.007 C 
ATOM     16  C   UNL     1      -5.090   1.248  -7.235  0.00  0.00    -0.016 C 
ATOM     17  C   UNL     1      -6.259   0.261  -7.216  0.00  0.00    +0.007 C 
ENDBRANCH  14  16
ENDBRANCH  13  14
ENDBRANCH   1  13
BRANCH  12  18
ATOM     18  C   UNL     1      -2.723   3.909   0.173  0.00  0.00    +0.163 C 
BRANCH  18  19
ATOM     19  C   UNL     1      -1.396   3.197   0.229  0.00  0.00    -0.028 A 
ATOM     20  C   UNL     1      -1.353   1.815   0.259  0.00  0.00    +0.005 A 
ATOM     21  C   UNL     1      -0.136   1.162   0.316  0.00  0.00    +0.000 A 
ATOM     22  C   UNL     1       1.039   1.890   0.332  0.00  0.00    +0.000 A 
ATOM     23  C   UNL     1       0.997   3.272   0.295  0.00  0.00    +0.000 A 
ATOM     24  C   UNL     1      -0.221   3.925   0.243  0.00  0.00    +0.005 A 
ENDBRANCH  18  19
ENDBRANCH  12  18
BRANCH   2  25
ATOM     25  C   UNL     1      -5.725   0.094  -2.481  0.00  0.00    +0.158 C 
BRANCH  25  26
ATOM     26  N   UNL     1      -7.148   0.302  -2.178  0.00  0.00    -0.299 NA
ATOM     27  C   UNL     1      -7.335   0.693  -0.774  0.00  0.00    +0.066 C 
ATOM     28  C   UNL     1      -8.818   0.977  -0.520  0.00  0.00    -0.063 C 
ATOM     29  N   UNL     1      -9.605  -0.222  -0.840  0.00  0.00    +0.386 N 
ATOM     30  C   UNL     1      -9.418  -0.613  -2.244  0.00  0.00    -0.063 C 
ATOM     31  C   UNL     1      -7.935  -0.897  -2.498  0.00  0.00    +0.066 C 
ATOM     32  H   UNL     1      -9.243  -1.045  -0.206  0.00  0.00    -0.081 HD
BRANCH  29  33
ATOM     33  C   UNL     1     -11.028  -0.013  -0.537  0.00  0.00    -0.003 C 
BRANCH  33  34
ATOM     34  C   UNL     1     -11.164   0.618   0.825  0.00  0.00    +0.089 A 
ATOM     35  C   UNL     1     -11.187   1.938   1.081  0.00  0.00    +0.042 A 
ATOM     36  C   UNL     1     -11.329   2.081   2.481  0.00  0.00    +0.041 A 
ATOM     37  C   UNL     1     -11.384   0.840   2.996  0.00  0.00    +0.195 A 
ATOM     38  O   UNL     1     -11.290  -0.043   1.988  0.00  0.00    -0.470 OA
ENDBRANCH  33  34
ENDBRANCH  29  33
ENDBRANCH  25  26
ENDBRANCH   2  25
TORSDOF 9
