REMARK  Name = ZINC20906677
REMARK  9 active torsions:
REMARK  status: ('A' for Active; 'I' for Inactive)
REMARK    1  A    between atoms: C_4  and  C_7
REMARK    2  A    between atoms: C_7  and  C_8
REMARK    3  A    between atoms: C_7  and  N_14
REMARK    4  A    between atoms: C_15  and  C_17
REMARK    5  A    between atoms: C_17  and  S_18
REMARK    6  A    between atoms: S_18  and  C_19
REMARK    7  A    between atoms: N_24  and  N_25
REMARK    8  A    between atoms: C_26  and  C_27
REMARK    9  A    between atoms: C_31  and  O_33
REMARK                            x       y       z     vdW  Elec       q    Type
REMARK                         _______ _______ _______ _____ _____    ______ ____
ROOT
ATOM      1  S   UNL     1      -4.696  11.245   0.098  0.00  0.00    -0.075 S 
ENDROOT
BRANCH   1   2
ATOM      2  C   UNL     1      -3.953   9.647   0.085  0.00  0.00    +0.211 A 
ATOM      3  N   UNL     1      -2.612   9.385   0.071  0.00  0.00    -0.186 NA
ATOM      4  C   UNL     1      -2.447   8.028   0.063  0.00  0.00    +0.232 A 
ATOM      5  N   UNL     1      -3.636   7.475   0.067  0.00  0.00    -0.245 N 
ATOM      6  N   UNL     1      -4.590   8.500   0.086  0.00  0.00    -0.144 NA
ATOM      7  N   UNL     1      -1.234   7.354   0.049  0.00  0.00    -0.205 N 
ATOM      8  H   UNL     1      -0.291   7.920   0.042  0.00  0.00    +0.177 HD
ATOM      9  H   UNL     1      -3.733   6.379   0.056  0.00  0.00    +0.192 HD
BRANCH   7  10
ATOM     10  N   UNL     1      -1.211   5.953   0.042  0.00  0.00    -0.188 NA
ATOM     11  C   UNL     1      -0.076   5.323   0.029  0.00  0.00    +0.138 C 
BRANCH  11  12
ATOM     12  C   UNL     1      -0.051   3.849   0.022  0.00  0.00    -0.002 A 
ATOM     13  C   UNL     1      -1.248   3.127   0.030  0.00  0.00    +0.010 A 
ATOM     14  C   UNL     1      -1.221   1.748   0.017  0.00  0.00    +0.004 A 
ATOM     15  C   UNL     1      -0.013   1.076   0.008  0.00  0.00    +0.045 A 
ATOM     16  C   UNL     1       1.182   1.784   0.000  0.00  0.00    +0.117 A 
ATOM     17  C   UNL     1       1.167   3.168   0.007  0.00  0.00    +0.054 A 
BRANCH  16  18
ATOM     18  O   UNL     1       2.366   1.117  -0.014  0.00  0.00    -0.507 OA
ATOM     19  H   UNL     1       3.313   1.677  -0.020  0.00  0.00    +0.292 HD
ENDBRANCH  16  18
ENDBRANCH  11  12
ENDBRANCH   7  10
ENDBRANCH   1   2
BRANCH   1  20
ATOM     20  C   UNL     1      -6.477  10.900   0.113  0.00  0.00    +0.173 C 
BRANCH  20  22
ATOM     21  N   UNL     1      -8.587  12.190   0.138  0.00  0.00    -0.304 N 
ATOM     22  C   UNL     1      -7.240  12.200   0.126  0.00  0.00    +0.224 C 
ATOM     23  O   UNL     1      -6.641  13.255   0.124  0.00  0.00    -0.275 OA
ATOM     24  H   UNL     1      -9.130  11.234   0.140  0.00  0.00    +0.150 HD
BRANCH  21  25
ATOM     25  C   UNL     1      -9.329  13.454   0.150  0.00  0.00    +0.134 C 
BRANCH  25  29
ATOM     26  C   UNL     1      -9.784  14.875  -3.853  0.00  0.00    +0.000 A 
ATOM     27  C   UNL     1      -9.507  15.764  -2.831  0.00  0.00    +0.000 A 
ATOM     28  C   UNL     1      -9.360  15.304  -1.536  0.00  0.00    +0.006 A 
ATOM     29  C   UNL     1      -9.490  13.955  -1.262  0.00  0.00    -0.023 A 
ATOM     30  C   UNL     1      -9.762  13.065  -2.284  0.00  0.00    +0.006 A 
ATOM     31  C   UNL     1      -9.914  13.526  -3.579  0.00  0.00    +0.000 A 
ENDBRANCH  25  29
BRANCH  25  32
ATOM     32  C   UNL     1     -10.688  13.233   0.763  0.00  0.00    -0.023 A 
ATOM     33  C   UNL     1     -11.401  12.086   0.468  0.00  0.00    +0.006 A 
ATOM     34  C   UNL     1     -12.645  11.881   1.033  0.00  0.00    +0.000 A 
ATOM     35  C   UNL     1     -13.181  12.828   1.886  0.00  0.00    +0.000 A 
ATOM     36  C   UNL     1     -12.471  13.977   2.176  0.00  0.00    +0.000 A 
ATOM     37  C   UNL     1     -11.224  14.180   1.615  0.00  0.00    +0.006 A 
ENDBRANCH  25  32
ENDBRANCH  21  25
ENDBRANCH  20  22
ENDBRANCH   1  20
TORSDOF 9
