REMARK  Name = ZINC19419535
REMARK  11 active torsions:
REMARK  status: ('A' for Active; 'I' for Inactive)
REMARK    1  A    between atoms: C_1  and  N_2
REMARK    2  A    between atoms: C_5  and  C_12
REMARK    3  A    between atoms: C_6  and  C_10
REMARK    4  A    between atoms: C_7  and  N_9
REMARK    5  A    between atoms: C_10  and  N_11
REMARK    6  A    between atoms: C_15  and  N_18
REMARK    7  A    between atoms: N_18  and  C_19
REMARK    8  A    between atoms: N_18  and  C_20
REMARK    9  A    between atoms: C_20  and  C_21
REMARK   10  A    between atoms: C_21  and  C_22
REMARK   11  A    between atoms: N_26  and  C_29
REMARK                            x       y       z     vdW  Elec       q    Type
REMARK                         _______ _______ _______ _____ _____    ______ ____
ROOT
ATOM      1  C   UNL     1      -0.219   4.114   0.026  0.00  0.00    +0.155 C 
ATOM      2  N   UNL     1       1.069   3.417   0.010  0.00  0.00    -0.281 N 
ATOM      3  C   UNL     1       1.098   2.033   0.003  0.00  0.00    +0.152 A 
ATOM      4  C   UNL     1       2.349   1.389  -0.013  0.00  0.00    +0.090 A 
ATOM      5  C   UNL     1       2.405  -0.018  -0.021  0.00  0.00    +0.003 A 
ATOM      6  C   UNL     1       1.198  -0.716  -0.014  0.00  0.00    -0.017 A 
ATOM      7  C   UNL     1       0.002  -0.004   0.002  0.00  0.00    +0.120 A 
ATOM      8  N   UNL     1      -0.016   1.323   0.009  0.00  0.00    -0.214 NA
ATOM      9  C   UNL     1       3.562   2.212  -0.021  0.00  0.00    +0.266 A 
ATOM     10  O   UNL     1       4.665   1.699  -0.034  0.00  0.00    -0.267 OA
ATOM     11  N   UNL     1       3.424   3.557  -0.012  0.00  0.00    -0.263 N 
ATOM     12  C   UNL     1       2.209   4.128   0.003  0.00  0.00    +0.333 A 
ATOM     13  O   UNL     1       2.138   5.342   0.009  0.00  0.00    -0.246 OA
ATOM     14  C   UNL     1       4.619   4.404  -0.019  0.00  0.00    +0.157 C 
ENDROOT
BRANCH   5  15
ATOM     15  C   UNL     1       3.701  -0.733  -0.038  0.00  0.00    -0.017 A 
ATOM     16  C   UNL     1       4.573  -0.624   1.047  0.00  0.00    +0.010 A 
ATOM     17  C   UNL     1       5.776  -1.294   1.032  0.00  0.00    +0.024 A 
ATOM     18  C   UNL     1       6.128  -2.069  -0.068  0.00  0.00    +0.029 A 
ATOM     19  C   UNL     1       5.264  -2.174  -1.153  0.00  0.00    +0.024 A 
ATOM     20  C   UNL     1       4.056  -1.511  -1.140  0.00  0.00    +0.010 A 
BRANCH  18  21
ATOM     21  N   UNL     1       7.349  -2.741  -0.084  0.00  0.00    -0.332 N 
ATOM     22  C   UNL     1       7.721  -3.558  -1.242  0.00  0.00    +0.129 C 
BRANCH  21  23
ATOM     23  C   UNL     1       8.261  -2.630   1.058  0.00  0.00    +0.119 C 
BRANCH  23  24
ATOM     24  C   UNL     1       7.954  -3.740   2.065  0.00  0.00    +0.137 C 
BRANCH  24  25
ATOM     25  C   UNL     1       8.869  -3.629   3.212  0.00  0.00    +0.064 C 
ATOM     26  N   UNL     1       9.576  -3.544   4.097  0.00  0.00    -0.197 NA
ENDBRANCH  24  25
ENDBRANCH  23  24
ENDBRANCH  21  23
ENDBRANCH  18  21
ENDBRANCH   5  15
BRANCH   7  27
ATOM     27  N   UNL     1      -1.197  -0.697   0.010  0.00  0.00    -0.343 N 
ATOM     28  H   UNL     1      -2.150  -0.147   0.022  0.00  0.00    +0.144 HD
ATOM     29  H   UNL     1      -1.197  -1.797   0.003  0.00  0.00    +0.144 HD
ENDBRANCH   7  27
BRANCH   6  30
ATOM     30  C   UNL     1       1.188  -2.223  -0.023  0.00  0.00    -0.047 C 
BRANCH  30  31
ATOM     31  N   UNL     1       1.171  -2.704  -1.411  0.00  0.00    +0.381 N 
ATOM     32  H   UNL     1       1.164  -3.804  -1.417  0.00  0.00    -0.090 HD
ATOM     33  H   UNL     1       2.067  -2.340  -1.935  0.00  0.00    -0.090 HD
ATOM     34  H   UNL     1       0.271  -2.328  -1.918  0.00  0.00    -0.090 HD
ENDBRANCH  30  31
ENDBRANCH   6  30
TORSDOF 8
