REMARK  Name = ZINC63270804
REMARK  5 active torsions:
REMARK  status: ('A' for Active; 'I' for Inactive)
REMARK    1  A    between atoms: C_7  and  C_10
REMARK    2  A    between atoms: C_10  and  C_11
REMARK    3  A    between atoms: C_11  and  N_12
REMARK    4  A    between atoms: C_13  and  C_15
REMARK    5  A    between atoms: C_15  and  N_16
REMARK                            x       y       z     vdW  Elec       q    Type
REMARK                         _______ _______ _______ _____ _____    ______ ____
ROOT
ATOM      1  C   UNL     1      -1.756  -6.554  -2.621  0.00  0.00    +0.201 C 
ENDROOT
BRANCH   1   2
ATOM      2  N   UNL     1      -1.981  -7.001  -3.998  0.00  0.00    -0.291 N 
ATOM      3  C   UNL     1      -2.789  -8.052  -4.242  0.00  0.00    +0.303 C 
ATOM      4  O   UNL     1      -3.259  -8.685  -3.317  0.00  0.00    -0.253 OA
ATOM      5  N   UNL     1      -3.075  -8.401  -5.512  0.00  0.00    -0.284 N 
ATOM      6  C   UNL     1      -4.046  -9.461  -5.767  0.00  0.00    +0.110 C 
ATOM      7  C   UNL     1      -3.406 -10.535  -6.627  0.00  0.00    +0.025 C 
ATOM      8  C   UNL     1      -2.519 -10.046  -7.705  0.00  0.00    +0.029 C 
ATOM      9  C   UNL     1      -2.023  -8.620  -7.759  0.00  0.00    +0.127 C 
ATOM     10  C   UNL     1      -2.420  -7.716  -6.607  0.00  0.00    +0.136 C 
ATOM     11  N   UNL     1      -2.587  -8.056  -9.008  0.00  0.00    -0.282 NA
ATOM     12  C   UNL     1      -3.183  -8.937  -9.725  0.00  0.00    +0.043 C 
ATOM     13  C   UNL     1      -2.994 -10.309  -9.127  0.00  0.00    +0.065 C 
ATOM     14  C   UNL     1      -4.298 -11.037  -9.219  0.00  0.00    -0.017 C 
ATOM     15  C   UNL     1      -5.185 -10.700 -10.156  0.00  0.00    -0.004 C 
ATOM     16  C   UNL     1      -4.939  -9.628 -11.118  0.00  0.00    +0.001 C 
ATOM     17  C   UNL     1      -3.935  -8.767 -10.924  0.00  0.00    +0.023 C 
ATOM     18  H   UNL     1      -1.549  -6.540  -4.734  0.00  0.00    +0.151 HD
ENDBRANCH   1   2
BRANCH   1  20
ATOM     19  N   UNL     1      -0.470  -4.790  -1.459  0.00  0.00    -0.314 N 
ATOM     20  C   UNL     1      -0.822  -5.372  -2.623  0.00  0.00    +0.230 C 
ATOM     21  O   UNL     1      -0.387  -4.944  -3.671  0.00  0.00    -0.274 OA
ATOM     22  H   UNL     1      -0.818  -5.132  -0.621  0.00  0.00    +0.149 HD
BRANCH  19  23
ATOM     23  C   UNL     1       0.438  -3.640  -1.461  0.00  0.00    +0.108 C 
BRANCH  23  24
ATOM     24  C   UNL     1       0.672  -3.174  -0.023  0.00  0.00    +0.052 C 
BRANCH  24  31
ATOM     25  C   UNL     1      -0.061   1.356   0.021  0.00  0.00    +0.001 A 
ATOM     26  C   UNL     1       1.117   2.116   0.013  0.00  0.00    +0.002 A 
ATOM     27  C   UNL     1       2.345   1.557  -0.006  0.00  0.00    +0.026 A 
ATOM     28  C   UNL     1       2.491   0.142  -0.019  0.00  0.00    +0.043 A 
ATOM     29  N   UNL     1       3.554  -0.625  -0.038  0.00  0.00    -0.380 N 
ATOM     30  C   UNL     1       3.118  -2.026  -0.043  0.00  0.00    +0.144 C 
ATOM     31  C   UNL     1       1.607  -1.991  -0.024  0.00  0.00    -0.040 C 
ATOM     32  C   UNL     1       1.262  -0.683  -0.010  0.00  0.00    -0.001 A 
ATOM     33  C   UNL     1      -0.035   0.004   0.011  0.00  0.00    +0.010 A 
ATOM     34  H   UNL     1       4.474  -0.319  -0.047  0.00  0.00    +0.160 HD
ENDBRANCH  24  31
ENDBRANCH  23  24
ENDBRANCH  19  23
ENDBRANCH   1  20
TORSDOF 5
