REMARK  Name = ZINC12774349
REMARK  10 active torsions:
REMARK  status: ('A' for Active; 'I' for Inactive)
REMARK    1  A    between atoms: C_1  and  C_2
REMARK    2  A    between atoms: C_8  and  C_10
REMARK    3  A    between atoms: C_12  and  C_27
REMARK    4  A    between atoms: N_17  and  C_21
REMARK    5  A    between atoms: C_18  and  C_19
REMARK    6  A    between atoms: C_18  and  O_20
REMARK    7  A    between atoms: C_21  and  C_23
REMARK    8  A    between atoms: C_21  and  C_24
REMARK    9  A    between atoms: C_24  and  O_25
REMARK   10  A    between atoms: O_25  and  C_26
REMARK                            x       y       z     vdW  Elec       q    Type
REMARK                         _______ _______ _______ _____ _____    ______ ____
ROOT
ATOM      1  C   UNL     1      -0.273  -2.167  -0.461  0.00  0.00    +0.150 C 
ATOM      2  C   UNL     1       1.134  -2.419  -1.013  0.00  0.00    +0.120 C 
ATOM      3  N   UNL     1       1.426  -1.430  -2.052  0.00  0.00    -0.319 N 
ATOM      4  C   UNL     1       0.874  -0.208  -2.027  0.00  0.00    +0.136 C 
ATOM      5  S   UNL     1       1.273   0.901  -3.268  0.00  0.00    -0.019 S 
ATOM      6  N   UNL     1       0.019   0.180  -1.068  0.00  0.00    -0.279 N 
ATOM      7  C   UNL     1      -0.349  -0.715   0.030  0.00  0.00    +0.145 C 
ATOM      8  C   UNL     1      -1.776  -0.405   0.486  0.00  0.00    +0.064 C 
ATOM      9  H   UNL     1       2.032  -1.663  -2.773  0.00  0.00    +0.148 HD
ENDROOT
BRANCH   1  17
ATOM     10  C   UNL     1      -1.828  -6.181   5.026  0.00  0.00    +0.089 C 
ATOM     11  C   UNL     1      -1.770  -5.940   3.539  0.00  0.00    +0.136 A 
ATOM     12  C   UNL     1      -1.272  -4.847   2.917  0.00  0.00    +0.091 A 
ATOM     13  C   UNL     1      -1.460  -5.123   1.537  0.00  0.00    +0.168 A 
ATOM     14  N   UNL     1      -2.018  -6.304   1.474  0.00  0.00    -0.063 NA
ATOM     15  O   UNL     1      -2.196  -6.769   2.575  0.00  0.00    -0.358 OA
ATOM     16  N   UNL     1      -1.113  -4.302   0.463  0.00  0.00    -0.267 N 
ATOM     17  C   UNL     1      -0.540  -3.104   0.690  0.00  0.00    +0.228 C 
ATOM     18  O   UNL     1      -0.239  -2.779   1.819  0.00  0.00    -0.275 OA
ATOM     19  H   UNL     1      -1.285  -4.594  -0.446  0.00  0.00    +0.156 HD
ENDBRANCH   1  17
BRANCH   2  20
ATOM     20  C   UNL     1       1.204  -3.804  -1.602  0.00  0.00    -0.007 A 
ATOM     21  C   UNL     1       0.749  -4.032  -2.888  0.00  0.00    +0.007 A 
ATOM     22  C   UNL     1       0.812  -5.302  -3.429  0.00  0.00    +0.002 A 
ATOM     23  C   UNL     1       1.330  -6.346  -2.686  0.00  0.00    +0.021 A 
ATOM     24  C   UNL     1       1.787  -6.120  -1.400  0.00  0.00    +0.060 A 
ATOM     25  C   UNL     1       1.728  -4.846  -0.860  0.00  0.00    +0.064 A 
ATOM     26 CL   UNL     1       2.307  -4.559   0.752  0.00  0.00    -0.082 Cl
ATOM     27 CL   UNL     1       2.439  -7.430  -0.467  0.00  0.00    -0.082 Cl
ENDBRANCH   2  20
BRANCH   7  28
ATOM     28  O   UNL     1       0.553  -0.528   1.123  0.00  0.00    -0.371 OA
ATOM     29  H   UNL     1       0.560   0.372   1.478  0.00  0.00    +0.212 HD
ENDBRANCH   7  28
BRANCH   6  30
ATOM     30  C   UNL     1      -0.552   1.528  -1.117  0.00  0.00    +0.100 C 
ATOM     31  C   UNL     1       0.205   2.365  -2.151  0.00  0.00    +0.030 C 
BRANCH  30  32
ATOM     32  C   UNL     1      -0.429   2.185   0.259  0.00  0.00    +0.181 C 
BRANCH  32  33
ATOM     33  O   UNL     1       0.952   2.367   0.579  0.00  0.00    -0.381 OA
ATOM     34  C   UNL     1       1.178   2.977   1.851  0.00  0.00    +0.194 C 
ENDBRANCH  32  33
ENDBRANCH  30  32
ENDBRANCH   6  30
TORSDOF 6
