REMARK  Name = ZINC13216827
REMARK  14 active torsions:
REMARK  status: ('A' for Active; 'I' for Inactive)
REMARK    1  A    between atoms: C_1  and  O_2
REMARK    2  A    between atoms: O_2  and  C_3
REMARK    3  A    between atoms: C_6  and  C_14
REMARK    4  A    between atoms: C_8  and  C_9
REMARK    5  A    between atoms: C_9  and  S_10
REMARK    6  A    between atoms: S_10  and  C_11
REMARK    7  A    between atoms: C_11  and  C_12
REMARK    8  A    between atoms: C_14  and  C_16
REMARK    9  A    between atoms: C_17  and  C_18
REMARK   10  A    between atoms: C_21  and  O_26
REMARK   11  A    between atoms: C_22  and  O_24
REMARK   12  A    between atoms: O_24  and  C_25
REMARK   13  A    between atoms: O_26  and  C_27
REMARK   14  A    between atoms: C_27  and  C_28
REMARK                            x       y       z     vdW  Elec       q    Type
REMARK                         _______ _______ _______ _____ _____    ______ ____
ROOT
ATOM      1  C   UNL     1       1.149   1.768   0.001  0.00  0.00    +0.052 C 
ATOM      2  C   UNL     1      -0.013   1.076   0.008  0.00  0.00    +0.012 C 
ENDROOT
BRANCH   2   3
ATOM      3  C   UNL     1      -1.295   1.793   0.018  0.00  0.00    -0.021 A 
ATOM      4  C   UNL     1      -1.316   3.193   0.026  0.00  0.00    +0.012 A 
ATOM      5  C   UNL     1      -2.519   3.863   0.035  0.00  0.00    +0.050 A 
ATOM      6  C   UNL     1      -3.713   3.153   0.037  0.00  0.00    +0.162 A 
ATOM      7  C   UNL     1      -3.700   1.758   0.029  0.00  0.00    +0.162 A 
ATOM      8  C   UNL     1      -2.499   1.079   0.014  0.00  0.00    +0.057 A 
BRANCH   7   9
ATOM      9  O   UNL     1      -4.872   1.068   0.031  0.00  0.00    -0.491 OA
ATOM     10  C   UNL     1      -4.785  -0.358   0.023  0.00  0.00    +0.277 C 
ENDBRANCH   7   9
BRANCH   6  11
ATOM     11  O   UNL     1      -4.897   3.819   0.047  0.00  0.00    -0.483 OA
BRANCH  11  12
ATOM     12  C   UNL     1      -4.838   5.247   0.055  0.00  0.00    +0.271 C 
BRANCH  12  13
ATOM     13  C   UNL     1      -6.236   5.807   0.065  0.00  0.00    +0.027 A 
ATOM     14  C   UNL     1      -7.023   6.119   1.123  0.00  0.00    +0.014 A 
ATOM     15  C   UNL     1      -8.288   6.628   0.892  0.00  0.00    +0.008 A 
ATOM     16  C   UNL     1      -8.703   6.800  -0.387  0.00  0.00    +0.045 A 
ATOM     17  S   UNL     1      -7.284   6.241  -1.314  0.00  0.00    -0.098 S 
ENDBRANCH  12  13
ENDBRANCH  11  12
ENDBRANCH   6  11
ENDBRANCH   2   3
BRANCH   1  18
ATOM     18  C   UNL     1       2.387   1.075  -0.015  0.00  0.00    +0.186 C 
ATOM     19  O   UNL     1       2.403  -0.142  -0.022  0.00  0.00    -0.287 OA
BRANCH  18  23
ATOM     20  C   UNL     1       6.036   3.249  -0.038  0.00  0.00    +0.124 A 
ATOM     21  C   UNL     1       4.824   3.930  -0.023  0.00  0.00    +0.046 A 
ATOM     22  C   UNL     1       3.639   3.229  -0.015  0.00  0.00    +0.015 A 
ATOM     23  C   UNL     1       3.656   1.831  -0.023  0.00  0.00    +0.022 A 
ATOM     24  C   UNL     1       4.876   1.151  -0.033  0.00  0.00    +0.019 A 
ATOM     25  C   UNL     1       6.057   1.859  -0.045  0.00  0.00    +0.005 A 
BRANCH  20  27
ATOM     26  C   UNL     1       7.108   5.370  -0.036  0.00  0.00    +0.277 C 
ATOM     27  O   UNL     1       7.202   3.944  -0.045  0.00  0.00    -0.495 OA
ENDBRANCH  20  27
BRANCH  25  28
ATOM     28  C   UNL     1       7.374   1.127  -0.060  0.00  0.00    +0.108 C 
BRANCH  28  29
ATOM     29  S   UNL     1       7.918   0.824   1.643  0.00  0.00    -0.145 S 
BRANCH  29  30
ATOM     30  C   UNL     1       9.494  -0.053   1.452  0.00  0.00    +0.194 C 
BRANCH  30  31
ATOM     31  C   UNL     1      10.062  -0.369   2.812  0.00  0.00    +0.366 C 
ATOM     32  O   UNL     1       9.464  -0.036   3.808  0.00  0.00    -0.245 OA
ATOM     33  O   UNL     1      11.231  -1.019   2.916  0.00  0.00    -0.245 OA
ENDBRANCH  30  31
ENDBRANCH  29  30
ENDBRANCH  28  29
ENDBRANCH  25  28
ENDBRANCH  18  23
ENDBRANCH   1  18
TORSDOF 12
