REMARK  Name = ZINC64128018
REMARK  10 active torsions:
REMARK  status: ('A' for Active; 'I' for Inactive)
REMARK    1  A    between atoms: C_1  and  C_2
REMARK    2  A    between atoms: C_9  and  C_20
REMARK    3  A    between atoms: C_11  and  C_14
REMARK    4  A    between atoms: C_23  and  C_26
REMARK    5  A    between atoms: C_29  and  N_32
REMARK    6  A    between atoms: N_32  and  C_33
REMARK    7  A    between atoms: N_32  and  C_34
REMARK    8  A    between atoms: C_35  and  C_37
REMARK    9  A    between atoms: C_37  and  C_38
REMARK   10  A    between atoms: C_37  and  C_39
REMARK                            x       y       z     vdW  Elec       q    Type
REMARK                         _______ _______ _______ _____ _____    ______ ____
ROOT
ATOM      1  C   UNL     1       0.356   2.462  -0.632  0.00  0.00    +0.044 C 
ATOM      2  C   UNL     1       0.468   0.960  -0.588  0.00  0.00    -0.050 A 
ATOM      3  C   UNL     1       0.652   0.255  -1.774  0.00  0.00    +0.005 A 
ATOM      4  C   UNL     1       0.759  -1.103  -1.794  0.00  0.00    +0.024 A 
ATOM      5  C   UNL     1       0.685  -1.830  -0.593  0.00  0.00    +0.041 A 
ATOM      6  N   UNL     1       0.791  -3.163  -0.614  0.00  0.00    -0.284 N 
ATOM      7  C   UNL     1       0.732  -3.916   0.467  0.00  0.00    +0.230 C 
ATOM      8  O   UNL     1       0.837  -5.125   0.372  0.00  0.00    -0.274 OA
ATOM      9  C   UNL     1       0.535  -3.279   1.824  0.00  0.00    +0.152 C 
ATOM     10  C   UNL     1       0.411  -1.768   1.873  0.00  0.00    -0.014 C 
ATOM     11  C   UNL     1       0.491  -1.085   0.656  0.00  0.00    +0.001 A 
ATOM     12  C   UNL     1       0.392   0.321   0.611  0.00  0.00    +0.013 A 
ATOM     13  H   UNL     1       0.918  -3.600  -1.471  0.00  0.00    +0.155 HD
ENDROOT
BRANCH   9  14
ATOM     14  C   UNL     1      -0.714  -3.864   2.432  0.00  0.00    +0.055 C 
ATOM     15  N   UNL     1      -1.777  -3.217   2.684  0.00  0.00    -0.185 NA
ATOM     16  N   UNL     1      -2.798  -3.979   3.247  0.00  0.00    -0.185 N 
ATOM     17  C   UNL     1      -2.327  -5.367   3.390  0.00  0.00    +0.137 C 
ATOM     18  C   UNL     1      -0.892  -5.312   2.829  0.00  0.00    +0.083 C 
ATOM     19  C   UNL     1      -4.016  -3.522   3.601  0.00  0.00    +0.238 C 
ATOM     20  O   UNL     1      -4.830  -4.279   4.085  0.00  0.00    -0.274 OA
BRANCH  17  21
ATOM     21  C   UNL     1      -3.180  -6.305   2.576  0.00  0.00    -0.025 A 
ATOM     22  C   UNL     1      -3.632  -5.919   1.328  0.00  0.00    +0.007 A 
ATOM     23  C   UNL     1      -4.414  -6.776   0.579  0.00  0.00    +0.023 A 
ATOM     24  C   UNL     1      -4.747  -8.027   1.081  0.00  0.00    +0.029 A 
ATOM     25  C   UNL     1      -4.292  -8.412   2.336  0.00  0.00    +0.023 A 
ATOM     26  C   UNL     1      -3.505  -7.552   3.077  0.00  0.00    +0.007 A 
BRANCH  24  27
ATOM     27  N   UNL     1      -5.538  -8.897   0.327  0.00  0.00    -0.336 N 
ATOM     28  C   UNL     1      -5.916  -8.541  -1.043  0.00  0.00    +0.129 C 
ATOM     29  C   UNL     1      -5.990 -10.164   0.906  0.00  0.00    +0.129 C 
ENDBRANCH  24  27
ENDBRANCH  17  21
BRANCH  19  30
ATOM     30  C   UNL     1      -4.365  -2.070   3.395  0.00  0.00    +0.071 C 
ATOM     31  C   UNL     1      -4.259  -1.726   1.909  0.00  0.00    +0.017 C 
ATOM     32  C   UNL     1      -5.795  -1.817   3.877  0.00  0.00    +0.017 C 
ENDBRANCH  19  30
ENDBRANCH   9  14
BRANCH  10  33
ATOM     33  C   UNL     1       0.224  -1.080   3.098  0.00  0.00    -0.020 A 
ATOM     34  C   UNL     1       1.140  -1.246   4.150  0.00  0.00    +0.008 A 
ATOM     35  C   UNL     1       0.948  -0.573   5.336  0.00  0.00    +0.001 A 
ATOM     36  C   UNL     1      -0.143   0.267   5.493  0.00  0.00    +0.000 A 
ATOM     37  C   UNL     1      -1.052   0.438   4.462  0.00  0.00    +0.001 A 
ATOM     38  C   UNL     1      -0.875  -0.222   3.266  0.00  0.00    +0.008 A 
ENDBRANCH  10  33
TORSDOF 5
