REMARK  Name = ZINC01875138
REMARK  11 active torsions:
REMARK  status: ('A' for Active; 'I' for Inactive)
REMARK    1  A    between atoms: C_1  and  C_2
REMARK    2  A    between atoms: C_2  and  C_4
REMARK    3  A    between atoms: C_2  and  N_12
REMARK    4  A    between atoms: C_4  and  C_5
REMARK    5  A    between atoms: C_5  and  C_6
REMARK    6  A    between atoms: C_13  and  C_15
REMARK    7  A    between atoms: C_15  and  S_16
REMARK    8  A    between atoms: S_16  and  C_17
REMARK    9  A    between atoms: C_26  and  C_28
REMARK   10  A    between atoms: C_26  and  C_29
REMARK   11  A    between atoms: N_32  and  C_33
REMARK                            x       y       z     vdW  Elec       q    Type
REMARK                         _______ _______ _______ _____ _____    ______ ____
ROOT
ATOM      1  C   UNL     1      -6.156  -1.270  -2.678  0.00  0.00    +0.178 A 
ATOM      2  N   UNL     1      -6.629  -1.541  -1.478  0.00  0.00    -0.215 NA
ATOM      3  C   UNL     1      -7.468  -2.555  -1.293  0.00  0.00    +0.117 A 
ATOM      4  C   UNL     1      -7.888  -3.378  -2.345  0.00  0.00    +0.076 A 
ATOM      5  C   UNL     1      -8.819  -4.467  -1.995  0.00  0.00    -0.021 A 
ATOM      6  C   UNL     1      -9.168  -4.561  -0.704  0.00  0.00    +0.006 A 
ATOM      7  S   UNL     1      -8.309  -3.233   0.113  0.00  0.00    -0.072 S 
ATOM      8  C   UNL     1     -10.070  -5.546  -0.009  0.00  0.00    +0.112 C 
ATOM      9  S   UNL     1     -11.051  -6.414  -1.273  0.00  0.00    -0.149 S 
ATOM     10  C   UNL     1      -9.804  -6.722  -2.563  0.00  0.00    +0.015 C 
ATOM     11  C   UNL     1      -9.321  -5.384  -3.104  0.00  0.00    +0.053 C 
ATOM     12  C   UNL     1      -8.624  -7.490  -1.963  0.00  0.00    +0.023 C 
ATOM     13  C   UNL     1     -10.429  -7.539  -3.696  0.00  0.00    +0.023 C 
ATOM     14  C   UNL     1      -7.360  -3.064  -3.637  0.00  0.00    +0.268 A 
ATOM     15  O   UNL     1      -7.672  -3.727  -4.612  0.00  0.00    -0.267 OA
ATOM     16  N   UNL     1      -6.519  -2.020  -3.761  0.00  0.00    -0.255 N 
ENDROOT
BRANCH  16  17
ATOM     17  C   UNL     1      -6.001  -1.700  -5.023  0.00  0.00    +0.052 A 
ATOM     18  C   UNL     1      -6.675  -0.807  -5.845  0.00  0.00    +0.026 A 
ATOM     19  C   UNL     1      -6.162  -0.493  -7.089  0.00  0.00    +0.002 A 
ATOM     20  C   UNL     1      -4.979  -1.068  -7.515  0.00  0.00    +0.000 A 
ATOM     21  C   UNL     1      -4.306  -1.958  -6.699  0.00  0.00    +0.002 A 
ATOM     22  C   UNL     1      -4.811  -2.272  -5.452  0.00  0.00    +0.026 A 
ENDBRANCH  16  17
BRANCH   1  23
ATOM     23  S   UNL     1      -5.046   0.081  -2.889  0.00  0.00    -0.078 S 
BRANCH  23  24
ATOM     24  C   UNL     1      -4.861   0.763  -1.218  0.00  0.00    +0.173 C 
BRANCH  24  26
ATOM     25  N   UNL     1      -3.634   2.611  -0.123  0.00  0.00    -0.312 N 
ATOM     26  C   UNL     1      -3.923   1.942  -1.257  0.00  0.00    +0.224 C 
ATOM     27  O   UNL     1      -3.428   2.288  -2.309  0.00  0.00    -0.275 OA
ATOM     28  H   UNL     1      -4.030   2.334   0.718  0.00  0.00    +0.149 HD
BRANCH  25  30
ATOM     29  C   UNL     1      -3.504   5.019  -0.533  0.00  0.00    +0.028 C 
ATOM     30  C   UNL     1      -2.722   3.757  -0.162  0.00  0.00    +0.070 C 
BRANCH  30  31
ATOM     31  C   UNL     1      -2.079   3.943   1.214  0.00  0.00    +0.026 C 
BRANCH  31  32
ATOM     32  C   UNL     1      -1.196   2.734   1.532  0.00  0.00    +0.037 C 
BRANCH  32  33
ATOM     33  C   UNL     1      -0.562   2.917   2.886  0.00  0.00    -0.047 A 
ATOM     34  C   UNL     1       0.660   3.554   2.998  0.00  0.00    +0.003 A 
ATOM     35  C   UNL     1       1.241   3.722   4.240  0.00  0.00    +0.000 A 
ATOM     36  C   UNL     1       0.600   3.253   5.372  0.00  0.00    +0.000 A 
ATOM     37  C   UNL     1      -0.622   2.618   5.261  0.00  0.00    +0.000 A 
ATOM     38  C   UNL     1      -1.206   2.454   4.019  0.00  0.00    +0.003 A 
ENDBRANCH  32  33
ENDBRANCH  31  32
ENDBRANCH  30  31
ENDBRANCH  25  30
ENDBRANCH  24  26
ENDBRANCH  23  24
ENDBRANCH   1  23
TORSDOF 8
