REMARK  Name = ZINC05437955
REMARK  9 active torsions:
REMARK  status: ('A' for Active; 'I' for Inactive)
REMARK    1  A    between atoms: C_2  and  C_22
REMARK    2  A    between atoms: N_4  and  C1*_9
REMARK    3  A    between atoms: C_5  and  C_6
REMARK    4  A    between atoms: C_6  and  N_8
REMARK    5  A    between atoms: C2*_11  and  O2*_21
REMARK    6  A    between atoms: C3*_13  and  O3*_20
REMARK    7  A    between atoms: C4*_15  and  C5*_18
REMARK    8  A    between atoms: C5*_18  and  O5*_19
REMARK    9  A    between atoms: C_22  and  N_24
REMARK                            x       y       z     vdW  Elec       q    Type
REMARK                         _______ _______ _______ _____ _____    ______ ____
ROOT
ATOM      1  C   UNL     1      -0.356   3.641   5.181  0.00  0.00    +0.061 A 
ATOM      2  C   UNL     1      -0.914   4.421   4.147  0.00  0.00    +0.114 A 
ATOM      3  N   UNL     1      -0.689   3.791   3.010  0.00  0.00    -0.166 NA
ATOM      4  N   UNL     1      -0.048   2.697   3.220  0.00  0.00    -0.230 N 
ATOM      5  C   UNL     1       0.185   2.545   4.559  0.00  0.00    +0.093 A 
ENDROOT
BRANCH   4   6
ATOM      6  C1* UNL     1       0.367   1.752   2.181  0.00  0.00    +0.269 C 
ATOM      7  C2* UNL     1       1.681   2.222   1.508  0.00  0.00    +0.196 C 
ATOM      8  C3* UNL     1       1.601   1.534   0.123  0.00  0.00    +0.178 C 
ATOM      9  C4* UNL     1       0.102   1.224  -0.058  0.00  0.00    +0.177 C 
ATOM     10  O4* UNL     1      -0.584   1.742   1.094  0.00  0.00    -0.344 OA
BRANCH   8  11
ATOM     11  O3* UNL     1       2.058   2.416  -0.904  0.00  0.00    -0.386 OA
ATOM     12  H3* UNL     1       1.975   2.055  -1.797  0.00  0.00    +0.210 HD
ENDBRANCH   8  11
BRANCH   7  13
ATOM     13  O2* UNL     1       2.821   1.766   2.239  0.00  0.00    -0.385 OA
ATOM     14  H2* UNL     1       3.666   1.958   1.810  0.00  0.00    +0.210 HD
ENDBRANCH   7  13
BRANCH   9  15
ATOM     15  C5* UNL     1      -0.419   1.904  -1.326  0.00  0.00    +0.190 C 
BRANCH  15  16
ATOM     16  O5* UNL     1      -1.779   1.523  -1.545  0.00  0.00    -0.392 OA
ATOM     17  H5* UNL     1      -2.176   1.918  -2.334  0.00  0.00    +0.210 HD
ENDBRANCH  15  16
ENDBRANCH   9  15
ENDBRANCH   4   6
BRANCH   5  18
ATOM     18  C   UNL     1       0.883   1.425   5.206  0.00  0.00    +0.095 C 
ATOM     19  S   UNL     1       1.638   0.220   4.252  0.00  0.00    -0.034 S 
BRANCH  18  20
ATOM     20  N   UNL     1       0.930   1.347   6.551  0.00  0.00    -0.351 N 
ATOM     21  H   UNL     1       0.502   2.029   7.092  0.00  0.00    +0.143 HD
ATOM     22  H   UNL     1       1.391   0.607   6.978  0.00  0.00    +0.143 HD
ENDBRANCH  18  20
ENDBRANCH   5  18
BRANCH   2  23
ATOM     23  C   UNL     1      -1.622   5.706   4.308  0.00  0.00    +0.097 C 
ATOM     24  S   UNL     1      -1.826   6.381   5.868  0.00  0.00    -0.034 S 
BRANCH  23  25
ATOM     25  N   UNL     1      -2.108   6.347   3.227  0.00  0.00    -0.351 N 
ATOM     26  H   UNL     1      -1.992   5.965   2.343  0.00  0.00    +0.143 HD
ATOM     27  H   UNL     1      -2.573   7.192   3.333  0.00  0.00    +0.143 HD
ENDBRANCH  23  25
ENDBRANCH   2  23
TORSDOF 9
