REMARK  Name = ZINC09159666
REMARK  4 active torsions:
REMARK  status: ('A' for Active; 'I' for Inactive)
REMARK    1  A    between atoms: C_1  and  C_2
REMARK    2  A    between atoms: N_5  and  C_7
REMARK    3  A    between atoms: C_18  and  C_23
REMARK    4  A    between atoms: C_33  and  C_35
REMARK                            x       y       z     vdW  Elec       q    Type
REMARK                         _______ _______ _______ _____ _____    ______ ____
ROOT
ATOM      1  C   UNL     1      -1.248   2.175   0.020  0.00  0.00    +0.068 C 
ATOM      2  C   UNL     1      -0.016   1.308   0.009  0.00  0.00    +0.068 A 
ATOM      3  C   UNL     1       1.297   1.760  -0.001  0.00  0.00    +0.049 A 
ATOM      4  C   UNL     1       2.123   0.671  -0.015  0.00  0.00    +0.230 A 
ATOM      5  N   UNL     1       1.339  -0.430  -0.013  0.00  0.00    -0.200 N 
ATOM      6  N   UNL     1       0.002  -0.004   0.002  0.00  0.00    -0.168 NA
ATOM      7  O   UNL     1       3.472   0.774  -0.026  0.00  0.00    -0.419 OA
ATOM      8  C   UNL     1       4.031   1.976   0.279  0.00  0.00    +0.231 A 
ATOM      9  C   UNL     1       3.296   3.129   0.307  0.00  0.00    +0.071 A 
ATOM     10  C   UNL     1       3.983   4.310   0.641  0.00  0.00    +0.167 A 
ATOM     11  N   UNL     1       3.600   5.557   0.761  0.00  0.00    -0.205 NA
ATOM     12  C   UNL     1       4.649   6.316   1.105  0.00  0.00    +0.201 A 
ATOM     13  N   UNL     1       5.728   5.556   1.211  0.00  0.00    -0.142 NA
ATOM     14  N   UNL     1       5.338   4.257   0.919  0.00  0.00    -0.201 N 
ATOM     15  C   UNL     1       6.011   3.080   0.871  0.00  0.00    +0.229 A 
ATOM     16  N   UNL     1       5.346   1.996   0.558  0.00  0.00    -0.201 NA
ATOM     17  C   UNL     1       1.823   3.171   0.002  0.00  0.00    +0.095 C 
ENDROOT
BRANCH  12  18
ATOM     18  C   UNL     1       4.609   7.782   1.332  0.00  0.00    +0.110 A 
ATOM     19  C   UNL     1       5.788   8.453   1.689  0.00  0.00    +0.032 A 
ATOM     20  C   UNL     1       5.764   9.800   1.900  0.00  0.00    +0.012 A 
ATOM     21  C   UNL     1       4.538  10.478   1.750  0.00  0.00    +0.000 A 
ATOM     22  C   UNL     1       4.443  11.864   1.952  0.00  0.00    +0.010 A 
ATOM     23  C   UNL     1       3.242  12.486   1.797  0.00  0.00    +0.001 A 
ATOM     24  C   UNL     1       2.104  11.765   1.441  0.00  0.00    +0.002 A 
ATOM     25  C   UNL     1       2.159  10.421   1.237  0.00  0.00    +0.028 A 
ATOM     26  C   UNL     1       3.382   9.742   1.387  0.00  0.00    +0.072 A 
ATOM     27  N   UNL     1       3.466   8.424   1.188  0.00  0.00    -0.244 NA
ENDBRANCH  12  18
BRANCH   5  28
ATOM     28  C   UNL     1       1.783  -1.760  -0.025  0.00  0.00    +0.069 A 
ATOM     29  C   UNL     1       2.927  -2.106  -0.731  0.00  0.00    +0.028 A 
ATOM     30  C   UNL     1       3.365  -3.415  -0.735  0.00  0.00    +0.002 A 
ATOM     31  C   UNL     1       2.659  -4.385  -0.047  0.00  0.00    +0.000 A 
ATOM     32  C   UNL     1       1.515  -4.045   0.652  0.00  0.00    +0.002 A 
ATOM     33  C   UNL     1       1.076  -2.735   0.665  0.00  0.00    +0.028 A 
ENDBRANCH   5  28
BRANCH  17  34
ATOM     34  C   UNL     1       1.604   3.796  -1.352  0.00  0.00    -0.035 A 
ATOM     35  C   UNL     1       2.182   3.234  -2.475  0.00  0.00    +0.004 A 
ATOM     36  C   UNL     1       1.978   3.804  -3.717  0.00  0.00    +0.000 A 
ATOM     37  C   UNL     1       1.203   4.943  -3.835  0.00  0.00    +0.000 A 
ATOM     38  C   UNL     1       0.629   5.508  -2.712  0.00  0.00    +0.000 A 
ATOM     39  C   UNL     1       0.830   4.935  -1.470  0.00  0.00    +0.004 A 
ENDBRANCH  17  34
TORSDOF 3
