REMARK  Name = ZINC16237949
REMARK  9 active torsions:
REMARK  status: ('A' for Active; 'I' for Inactive)
REMARK    1  A    between atoms: C_1  and  N_2
REMARK    2  A    between atoms: N_2  and  C_3
REMARK    3  A    between atoms: N_2  and  C_25
REMARK    4  A    between atoms: C_3  and  C_4
REMARK    5  A    between atoms: C_4  and  C_5
REMARK    6  A    between atoms: C_5  and  N_6
REMARK    7  A    between atoms: C_7  and  C_9
REMARK    8  A    between atoms: N_12  and  S_15
REMARK    9  A    between atoms: S_15  and  C_18
REMARK                            x       y       z     vdW  Elec       q    Type
REMARK                         _______ _______ _______ _____ _____    ______ ____
ROOT
ATOM      1  C   UNL     1       1.184   4.067   4.412  0.00  0.00    +0.077 C 
ATOM      2  C   UNL     1       2.431   3.736   3.589  0.00  0.00    +0.030 C 
ATOM      3  C   UNL     1       2.422   4.565   2.300  0.00  0.00    +0.110 C 
ATOM      4  N   UNL     1       1.154   4.329   1.596  0.00  0.00    -0.177 NA
ATOM      5  C   UNL     1      -0.107   4.535   2.322  0.00  0.00    +0.110 C 
ATOM      6  C   UNL     1      -0.069   3.702   3.612  0.00  0.00    +0.030 C 
ENDROOT
BRANCH   1   8
ATOM      7  N   UNL     1       0.201   3.409   6.585  0.00  0.00    -0.315 N 
ATOM      8  C   UNL     1       1.206   3.279   5.696  0.00  0.00    +0.216 C 
ATOM      9  O   UNL     1       2.129   2.527   5.930  0.00  0.00    -0.276 OA
ATOM     10  H   UNL     1      -0.536   4.011   6.397  0.00  0.00    +0.149 HD
BRANCH   7  11
ATOM     11  C   UNL     1       0.224   2.643   7.833  0.00  0.00    +0.105 C 
BRANCH  11  12
ATOM     12  C   UNL     1      -1.023   2.974   8.656  0.00  0.00    +0.037 C 
BRANCH  12  13
ATOM     13  C   UNL     1      -1.000   2.174   9.960  0.00  0.00    +0.106 C 
BRANCH  13  15
ATOM     14  C   UNL     1      -2.165   3.594  11.711  0.00  0.00    +0.129 C 
ATOM     15  N   UNL     1      -2.194   2.490  10.748  0.00  0.00    -0.333 N 
BRANCH  15  16
ATOM     16  C   UNL     1      -3.360   1.739  10.582  0.00  0.00    +0.029 A 
ATOM     17  C   UNL     1      -3.391   0.696   9.665  0.00  0.00    +0.023 A 
ATOM     18  C   UNL     1      -4.544  -0.048   9.506  0.00  0.00    +0.002 A 
ATOM     19  C   UNL     1      -5.670   0.252  10.251  0.00  0.00    +0.000 A 
ATOM     20  C   UNL     1      -5.644   1.293  11.160  0.00  0.00    +0.002 A 
ATOM     21  C   UNL     1      -4.493   2.037  11.328  0.00  0.00    +0.023 A 
ENDBRANCH  15  16
ENDBRANCH  13  15
ENDBRANCH  12  13
ENDBRANCH  11  12
ENDBRANCH   7  11
ENDBRANCH   1   8
BRANCH   4  22
ATOM     22  S   UNL     1       1.146   3.847   0.011  0.00  0.00    +0.061 S 
ATOM     23  O   UNL     1       2.380   4.274  -0.549  0.00  0.00    -0.153 OA
ATOM     24  O   UNL     1      -0.110   4.239  -0.526  0.00  0.00    -0.153 OA
BRANCH  22  25
ATOM     25  C   UNL     1       1.171   2.086   0.002  0.00  0.00    +0.106 A 
ATOM     26  C   UNL     1      -0.017   1.378   0.010  0.00  0.00    +0.030 A 
ATOM     27  C   UNL     1       0.002  -0.004   0.002  0.00  0.00    +0.022 A 
ATOM     28  C   UNL     1       1.210  -0.679  -0.013  0.00  0.00    +0.041 A 
ATOM     29  C   UNL     1       2.398   0.030  -0.021  0.00  0.00    +0.022 A 
ATOM     30  C   UNL     1       2.378   1.412  -0.013  0.00  0.00    +0.030 A 
ATOM     31 CL   UNL     1       1.234  -2.415  -0.022  0.00  0.00    -0.084 Cl
ENDBRANCH  22  25
ENDBRANCH   4  22
TORSDOF 8
