REMARK  Name = ZINC63637346
REMARK  10 active torsions:
REMARK  status: ('A' for Active; 'I' for Inactive)
REMARK    1  A    between atoms: C_1  and  C_2
REMARK    2  A    between atoms: C_2  and  C_3
REMARK    3  A    between atoms: C_9  and  C_31
REMARK    4  A    between atoms: C_11  and  C_15
REMARK    5  A    between atoms: N_13  and  C_14
REMARK    6  A    between atoms: N_17  and  C_18
REMARK    7  A    between atoms: C_18  and  C_19
REMARK    8  A    between atoms: C_19  and  C_20
REMARK    9  A    between atoms: C_23  and  O_29
REMARK   10  A    between atoms: O_29  and  C_30
REMARK                            x       y       z     vdW  Elec       q    Type
REMARK                         _______ _______ _______ _____ _____    ______ ____
ROOT
ATOM      1  C   UNL     1       0.731  -0.503   1.223  0.00  0.00    -0.047 A 
ATOM      2  C   UNL     1       2.098  -0.710   1.178  0.00  0.00    +0.005 A 
ATOM      3  C   UNL     1       2.767  -1.167   2.293  0.00  0.00    +0.024 A 
ATOM      4  C   UNL     1       2.071  -1.424   3.476  0.00  0.00    +0.034 A 
ATOM      5  C   UNL     1       0.702  -1.213   3.511  0.00  0.00    -0.016 A 
ATOM      6  C   UNL     1       0.036  -0.750   2.392  0.00  0.00    +0.009 A 
ATOM      7  C   UNL     1       0.196  -1.562   4.892  0.00  0.00    +0.080 C 
ATOM      8  C   UNL     1       1.451  -2.006   5.662  0.00  0.00    +0.171 C 
ATOM      9  N   UNL     1       2.553  -1.885   4.703  0.00  0.00    -0.321 N 
ATOM     10  C   UNL     1       3.954  -2.202   4.989  0.00  0.00    +0.130 C 
ENDROOT
BRANCH   7  11
ATOM     11  C   UNL     1      -0.425  -0.355   5.546  0.00  0.00    -0.038 A 
ATOM     12  C   UNL     1       0.323   0.794   5.728  0.00  0.00    +0.006 A 
ATOM     13  C   UNL     1      -0.246   1.901   6.327  0.00  0.00    +0.020 A 
ATOM     14  C   UNL     1      -1.565   1.861   6.744  0.00  0.00    +0.041 A 
ATOM     15  C   UNL     1      -2.313   0.711   6.562  0.00  0.00    +0.020 A 
ATOM     16  C   UNL     1      -1.744  -0.394   5.958  0.00  0.00    +0.006 A 
ATOM     17 CL   UNL     1      -2.280   3.252   7.497  0.00  0.00    -0.084 Cl
ENDBRANCH   7  11
BRANCH   8  18
ATOM     18  C   UNL     1       1.685  -1.103   6.846  0.00  0.00    +0.234 C 
ATOM     19  O   UNL     1       2.508  -0.215   6.778  0.00  0.00    -0.274 OA
ATOM     20  N   UNL     1       0.979  -1.283   7.980  0.00  0.00    -0.313 N 
ATOM     21  H   UNL     1       0.321  -1.993   8.034  0.00  0.00    +0.149 HD
BRANCH  20  22
ATOM     22  C   UNL     1       1.206  -0.405   9.131  0.00  0.00    +0.108 C 
BRANCH  22  23
ATOM     23  C   UNL     1       0.284  -0.821  10.279  0.00  0.00    +0.052 C 
BRANCH  23  24
ATOM     24  C   UNL     1       0.518   0.082  11.463  0.00  0.00    -0.040 C 
ATOM     25  C   UNL     1      -0.182   1.192  11.789  0.00  0.00    +0.002 A 
ATOM     26  C   UNL     1      -1.325   1.868  11.165  0.00  0.00    +0.055 A 
ATOM     27  C   UNL     1      -1.826   2.992  11.731  0.00  0.00    +0.121 A 
ATOM     28  C   UNL     1      -1.288   3.544  12.907  0.00  0.00    +0.047 A 
ATOM     29  C   UNL     1      -0.237   2.995  13.553  0.00  0.00    +0.029 A 
ATOM     30  C   UNL     1       0.384   1.775  13.027  0.00  0.00    +0.043 A 
ATOM     31  N   UNL     1       1.392   1.054  13.450  0.00  0.00    -0.380 N 
ATOM     32  C   UNL     1       1.578  -0.074  12.530  0.00  0.00    +0.144 C 
ATOM     33  H   UNL     1       1.925   1.233  14.241  0.00  0.00    +0.160 HD
BRANCH  27  34
ATOM     34  O   UNL     1      -2.885   3.607  11.142  0.00  0.00    -0.495 OA
ATOM     35  C   UNL     1      -3.381   4.789  11.772  0.00  0.00    +0.277 C 
ENDBRANCH  27  34
ENDBRANCH  23  24
ENDBRANCH  22  23
ENDBRANCH  20  22
ENDBRANCH   8  18
BRANCH   1  37
ATOM     36  C   UNL     1      -0.019   1.526   0.010  0.00  0.00    +0.009 C 
ATOM     37  C   UNL     1       0.002  -0.004   0.002  0.00  0.00    +0.032 C 
ENDBRANCH   1  37
TORSDOF 7
