REMARK  Name = ZINC33072220
REMARK  4 active torsions:
REMARK  status: ('A' for Active; 'I' for Inactive)
REMARK    1  A    between atoms: C_1  and  C_2
REMARK    2  A    between atoms: C_16  and  C_19
REMARK    3  A    between atoms: N_21  and  C_22
REMARK    4  A    between atoms: C_22  and  C_23
REMARK                            x       y       z     vdW  Elec       q    Type
REMARK                         _______ _______ _______ _____ _____    ______ ____
ROOT
ATOM      1  C   UNL     1      -1.335   2.114   0.020  0.00  0.00    +0.044 C 
ATOM      2  C   UNL     1      -0.017   1.383   0.010  0.00  0.00    -0.048 A 
ATOM      3  C   UNL     1       0.002  -0.004   0.002  0.00  0.00    +0.005 A 
ATOM      4  C   UNL     1       1.198  -0.687  -0.013  0.00  0.00    +0.028 A 
ATOM      5  C   UNL     1       2.401   0.022  -0.020  0.00  0.00    +0.065 A 
ATOM      6  C   UNL     1       2.377   1.427  -0.013  0.00  0.00    +0.066 A 
ATOM      7  C   UNL     1       1.163   2.098   0.002  0.00  0.00    +0.031 A 
ATOM      8  N   UNL     1       3.700   1.836  -0.023  0.00  0.00    -0.327 N 
ATOM      9  H   UNL     1       3.945   2.908  -0.020  0.00  0.00    +0.169 HD
ATOM     10  C   UNL     1       4.472   0.709  -0.036  0.00  0.00    +0.174 A 
ATOM     11  N   UNL     1       3.707  -0.354  -0.035  0.00  0.00    -0.327 N 
ATOM     12  N   UNL     1       5.851   0.694  -0.049  0.00  0.00    -0.302 N 
ATOM     13  C   UNL     1       6.396   1.447   1.087  0.00  0.00    +0.108 C 
ATOM     14  C   UNL     1       7.918   1.532   0.962  0.00  0.00    +0.020 C 
ATOM     15  C   UNL     1       8.503   0.117   0.937  0.00  0.00    +0.016 C 
ATOM     16  C   UNL     1       7.883  -0.662  -0.226  0.00  0.00    +0.092 C 
ATOM     17  C   UNL     1       6.361  -0.683  -0.066  0.00  0.00    +0.120 C 
ATOM     18  H   UNL     1       3.971  -1.422  -0.043  0.00  0.00    +0.169 HD
ENDROOT
BRANCH  16  19
ATOM     19  C   UNL     1       8.409  -2.075  -0.223  0.00  0.00    +0.218 C 
ATOM     20  O   UNL     1       7.641  -3.007  -0.108  0.00  0.00    -0.275 OA
ATOM     21  N   UNL     1       9.731  -2.302  -0.348  0.00  0.00    -0.311 N 
ATOM     22  H   UNL     1      10.427  -1.456  -0.452  0.00  0.00    +0.149 HD
BRANCH  21  23
ATOM     23  C   UNL     1      10.242  -3.675  -0.344  0.00  0.00    +0.139 C 
BRANCH  23  24
ATOM     24  C   UNL     1      11.741  -3.653  -0.497  0.00  0.00    -0.029 A 
ATOM     25  C   UNL     1      12.550  -3.595   0.623  0.00  0.00    +0.005 A 
ATOM     26  C   UNL     1      13.925  -3.576   0.484  0.00  0.00    +0.001 A 
ATOM     27  C   UNL     1      14.492  -3.614  -0.776  0.00  0.00    +0.015 A 
ATOM     28  C   UNL     1      13.684  -3.672  -1.897  0.00  0.00    +0.018 A 
ATOM     29  C   UNL     1      12.308  -3.697  -1.757  0.00  0.00    +0.020 A 
ATOM     30 BR   UNL     1      14.460  -3.724  -3.620  0.00  0.00    -0.050 Br
ENDBRANCH  23  24
ENDBRANCH  21  23
ENDBRANCH  16  19
TORSDOF 3
