REMARK  Name = ZINC40035340
REMARK  7 active torsions:
REMARK  status: ('A' for Active; 'I' for Inactive)
REMARK    1  A    between atoms: C_1  and  C_2
REMARK    2  A    between atoms: C_2  and  C_3
REMARK    3  A    between atoms: C_3  and  C_36
REMARK    4  A    between atoms: N_15  and  C_30
REMARK    5  A    between atoms: N_18  and  N_19
REMARK    6  A    between atoms: C_20  and  C_21
REMARK    7  A    between atoms: C_24  and  N_27
REMARK                            x       y       z     vdW  Elec       q    Type
REMARK                         _______ _______ _______ _____ _____    ______ ____
ROOT
ATOM      1  C   UNL     1      -0.151   0.003  -0.995  0.00  0.00    +0.004 C 
ATOM      2  C   UNL     1       0.040  -1.391  -0.402  0.00  0.00    +0.047 C 
ATOM      3  C   UNL     1      -1.035  -2.325  -0.889  0.00  0.00    -0.037 A 
ATOM      4  C   UNL     1      -1.541  -3.303  -0.058  0.00  0.00    +0.004 A 
ATOM      5  C   UNL     1      -2.526  -4.160  -0.515  0.00  0.00    +0.000 A 
ATOM      6  C   UNL     1      -3.011  -4.045  -1.806  0.00  0.00    +0.001 A 
ATOM      7  C   UNL     1      -2.514  -3.070  -2.648  0.00  0.00    +0.010 A 
ATOM      8  C   UNL     1      -1.524  -2.204  -2.191  0.00  0.00    +0.004 A 
ATOM      9  C   UNL     1      -0.979  -1.142  -3.066  0.00  0.00    +0.084 A 
ATOM     10  C   UNL     1      -0.309  -0.074  -2.487  0.00  0.00    +0.050 A 
ATOM     11  C   UNL     1       0.214   0.926  -3.317  0.00  0.00    +0.264 A 
ATOM     12  O   UNL     1       0.812   1.879  -2.845  0.00  0.00    -0.267 OA
ATOM     13  N   UNL     1       0.043   0.812  -4.652  0.00  0.00    -0.248 N 
ATOM     14  C   UNL     1      -0.630  -0.256  -5.170  0.00  0.00    +0.223 A 
ATOM     15  N   UNL     1      -1.122  -1.200  -4.394  0.00  0.00    -0.214 NA
ATOM     16  N   UNL     1      -0.797  -0.349  -6.528  0.00  0.00    -0.206 N 
ATOM     17  C   UNL     1       1.069   0.864  -0.660  0.00  0.00    +0.016 C 
ATOM     18  H   UNL     1      -0.416   0.327  -7.111  0.00  0.00    +0.177 HD
ENDROOT
BRANCH  13  19
ATOM     19  C   UNL     1       0.557   1.794  -5.508  0.00  0.00    +0.053 A 
ATOM     20  C   UNL     1      -0.218   2.894  -5.850  0.00  0.00    +0.026 A 
ATOM     21  C   UNL     1       0.292   3.861  -6.694  0.00  0.00    +0.002 A 
ATOM     22  C   UNL     1       1.574   3.735  -7.198  0.00  0.00    +0.000 A 
ATOM     23  C   UNL     1       2.348   2.640  -6.859  0.00  0.00    +0.002 A 
ATOM     24  C   UNL     1       1.846   1.673  -6.011  0.00  0.00    +0.026 A 
ENDBRANCH  13  19
BRANCH   1  26
ATOM     25  C   UNL     1      -1.582   2.051  -0.957  0.00  0.00    +0.005 C 
ATOM     26  C   UNL     1      -1.401   0.642  -0.388  0.00  0.00    +0.008 C 
ENDBRANCH   1  26
BRANCH  16  27
ATOM     27  N   UNL     1      -1.516  -1.420  -7.074  0.00  0.00    -0.188 NA
ATOM     28  C   UNL     1      -1.675  -1.508  -8.359  0.00  0.00    +0.138 C 
BRANCH  28  29
ATOM     29  C   UNL     1      -2.432  -2.635  -8.933  0.00  0.00    -0.005 A 
ATOM     30  C   UNL     1      -2.986  -3.607  -8.096  0.00  0.00    +0.012 A 
ATOM     31  C   UNL     1      -3.694  -4.658  -8.640  0.00  0.00    +0.033 A 
ATOM     32  C   UNL     1      -3.856  -4.752 -10.012  0.00  0.00    +0.126 A 
ATOM     33  C   UNL     1      -3.310  -3.793 -10.846  0.00  0.00    +0.033 A 
ATOM     34  C   UNL     1      -2.604  -2.733 -10.316  0.00  0.00    +0.012 A 
BRANCH  32  35
ATOM     35  N   UNL     1      -4.616  -5.884 -10.588  0.00  0.00    +0.056 N 
ATOM     36  O   UNL     1      -5.093  -6.723  -9.861  0.00  0.00    -0.126 OA
ATOM     37  O   UNL     1      -4.759  -5.968 -11.786  0.00  0.00    -0.126 OA
ENDBRANCH  32  35
ENDBRANCH  28  29
ENDBRANCH  16  27
TORSDOF 5
