REMARK  Name = ZINC63007816
REMARK  3 active torsions:
REMARK  status: ('A' for Active; 'I' for Inactive)
REMARK    1  A    between atoms: C_3  and  O_21
REMARK    2  A    between atoms: C_6  and  C_7
REMARK    3  A    between atoms: C_9  and  C_12
REMARK                            x       y       z     vdW  Elec       q    Type
REMARK                         _______ _______ _______ _____ _____    ______ ____
ROOT
ATOM      1  C   UNL     1      -1.272  -0.765   0.011  0.00  0.00    +0.202 A 
ATOM      2  N   UNL     1      -1.383  -2.103   0.010  0.00  0.00    -0.187 NA
ATOM      3  C   UNL     1      -2.650  -2.446   0.019  0.00  0.00    +0.259 A 
ATOM      4  O   UNL     1      -3.390  -1.324   0.026  0.00  0.00    -0.332 OA
ATOM      5  N   UNL     1      -2.474  -0.240   0.026  0.00  0.00    -0.056 NA
ENDROOT
BRANCH   3   6
ATOM      6  C   UNL     1      -3.172  -3.829   0.021  0.00  0.00    +0.045 A 
ATOM      7  C   UNL     1      -2.289  -4.910   0.018  0.00  0.00    +0.054 A 
ATOM      8  C   UNL     1      -2.782  -6.201   0.020  0.00  0.00    +0.162 A 
ATOM      9  C   UNL     1      -4.152  -6.423   0.024  0.00  0.00    +0.193 A 
ATOM     10  C   UNL     1      -5.032  -5.351   0.026  0.00  0.00    +0.162 A 
ATOM     11  C   UNL     1      -4.549  -4.057   0.031  0.00  0.00    +0.054 A 
ATOM     12  F   UNL     1      -6.365  -5.573   0.029  0.00  0.00    -0.202 F 
ATOM     13  F   UNL     1      -4.629  -7.686   0.024  0.00  0.00    -0.199 F 
ATOM     14  F   UNL     1      -1.929  -7.248   0.018  0.00  0.00    -0.202 F 
ENDBRANCH   3   6
BRANCH   1  20
ATOM     15  C   UNL     1      -0.017   1.390   0.010  0.00  0.00    +0.015 A 
ATOM     16  C   UNL     1       1.169   2.094   0.002  0.00  0.00    +0.046 A 
ATOM     17  C   UNL     1       2.380   1.416  -0.013  0.00  0.00    +0.117 A 
ATOM     18  C   UNL     1       2.402   0.028  -0.022  0.00  0.00    +0.046 A 
ATOM     19  C   UNL     1       1.220  -0.682  -0.014  0.00  0.00    +0.015 A 
ATOM     20  C   UNL     1       0.002  -0.004   0.002  0.00  0.00    +0.023 A 
BRANCH  17  21
ATOM     21  O   UNL     1       3.546   2.112  -0.021  0.00  0.00    -0.507 OA
ATOM     22  H   UNL     1       3.893   2.309   0.860  0.00  0.00    +0.292 HD
ENDBRANCH  17  21
ENDBRANCH   1  20
TORSDOF 3
