REMARK  Name = ZINC35363689
REMARK  7 active torsions:
REMARK  status: ('A' for Active; 'I' for Inactive)
REMARK    1  A    between atoms: C_4  and  C_7
REMARK    2  A    between atoms: C_7  and  N_8
REMARK    3  A    between atoms: C_11  and  N_14
REMARK    4  A    between atoms: C_15  and  C_17
REMARK    5  A    between atoms: C_17  and  C_18
REMARK    6  A    between atoms: C_18  and  C_20
REMARK    7  A    between atoms: C_18  and  C_27
REMARK                            x       y       z     vdW  Elec       q    Type
REMARK                         _______ _______ _______ _____ _____    ______ ____
ROOT
ATOM      1  C   UNL     1       6.813  -3.821   6.694  0.00  0.00    +0.110 C 
ENDROOT
BRANCH   1   3
ATOM      2  N   UNL     1       5.449  -2.776   4.914  0.00  0.00    -0.313 N 
ATOM      3  C   UNL     1       6.370  -3.698   5.258  0.00  0.00    +0.214 C 
ATOM      4  O   UNL     1       6.842  -4.429   4.414  0.00  0.00    -0.276 OA
ATOM      5  H   UNL     1       5.071  -2.192   5.589  0.00  0.00    +0.149 HD
BRANCH   2   9
ATOM      6  N   UNL     1       4.153  -0.953   1.342  0.00  0.00    +0.382 N 
ATOM      7  C   UNL     1       3.203  -1.854   2.005  0.00  0.00    -0.077 C 
ATOM      8  C   UNL     1       3.614  -2.050   3.466  0.00  0.00    +0.003 C 
ATOM      9  C   UNL     1       5.019  -2.657   3.518  0.00  0.00    +0.069 C 
ATOM     10  C   UNL     1       5.987  -1.746   2.760  0.00  0.00    +0.003 C 
ATOM     11  C   UNL     1       5.489  -1.562   1.325  0.00  0.00    -0.077 C 
ATOM     12  H   UNL     1       4.190  -0.078   1.843  0.00  0.00    -0.081 HD
BRANCH   6  13
ATOM     13  C   UNL     1       3.711  -0.707  -0.038  0.00  0.00    -0.043 C 
BRANCH  13  17
ATOM     14  C   UNL     1      -0.017   1.378   0.010  0.00  0.00    +0.000 A 
ATOM     15  C   UNL     1       1.171   2.086   0.002  0.00  0.00    +0.000 A 
ATOM     16  C   UNL     1       2.377   1.411  -0.013  0.00  0.00    +0.002 A 
ATOM     17  C   UNL     1       2.396   0.029  -0.020  0.00  0.00    -0.064 A 
ATOM     18  C   UNL     1       1.208  -0.679  -0.012  0.00  0.00    +0.002 A 
ATOM     19  C   UNL     1       0.002  -0.004   0.002  0.00  0.00    +0.000 A 
ENDBRANCH  13  17
ENDBRANCH   6  13
ENDBRANCH   2   9
ENDBRANCH   1   3
BRANCH   1  20
ATOM     20  C   UNL     1       7.856  -4.934   6.812  0.00  0.00    +0.079 C 
BRANCH  20  21
ATOM     21  C   UNL     1       8.208  -5.139   8.263  0.00  0.00    +0.051 A 
ATOM     22  C   UNL     1       8.275  -4.183   9.216  0.00  0.00    +0.135 A 
ATOM     23  N   UNL     1       8.617  -4.757  10.372  0.00  0.00    -0.236 NA
ATOM     24  C   UNL     1       8.770  -6.060  10.183  0.00  0.00    +0.138 A 
ATOM     25  N   UNL     1       8.514  -6.330   8.864  0.00  0.00    -0.302 N 
ATOM     26  C   UNL     1       8.594  -7.609   8.391  0.00  0.00    +0.113 A 
ATOM     27  C   UNL     1       8.924  -8.626   9.216  0.00  0.00    +0.058 A 
ATOM     28  C   UNL     1       9.190  -8.381  10.574  0.00  0.00    +0.025 A 
ATOM     29  C   UNL     1       9.120  -7.110  11.055  0.00  0.00    +0.048 A 
ATOM     30 CL   UNL     1       9.020 -10.245   8.595  0.00  0.00    -0.082 Cl
ENDBRANCH  20  21
BRANCH  20  31
ATOM     31  C   UNL     1       9.094  -4.546   6.045  0.00  0.00    -0.003 A 
ATOM     32  C   UNL     1       9.791  -3.403   6.389  0.00  0.00    +0.007 A 
ATOM     33  C   UNL     1      10.926  -3.047   5.686  0.00  0.00    +0.000 A 
ATOM     34  C   UNL     1      11.366  -3.834   4.637  0.00  0.00    +0.003 A 
ATOM     35  C   UNL     1      10.671  -4.977   4.291  0.00  0.00    +0.038 A 
ATOM     36  C   UNL     1       9.536  -5.337   4.999  0.00  0.00    +0.127 A 
ATOM     37  F   UNL     1       8.858  -6.457   4.665  0.00  0.00    -0.205 F 
ENDBRANCH  20  31
ENDBRANCH   1  20
TORSDOF 7
