REMARK  Name = ZINC39592049
REMARK  4 active torsions:
REMARK  status: ('A' for Active; 'I' for Inactive)
REMARK    1  A    between atoms: C_1  and  C_2
REMARK    2  A    between atoms: C_5  and  C_8
REMARK    3  A    between atoms: C_10  and  C_14
REMARK    4  A    between atoms: C_20  and  C_23
REMARK                            x       y       z     vdW  Elec       q    Type
REMARK                         _______ _______ _______ _____ _____    ______ ____
ROOT
ATOM      1  C   UNL     1      -1.137  -7.203   0.967  0.00  0.00    +0.181 A 
ATOM      2  N   UNL     1      -2.337  -7.054   0.488  0.00  0.00    -0.129 NA
ATOM      3  N   UNL     1      -3.153  -7.846   1.090  0.00  0.00    -0.121 NA
ATOM      4  C   UNL     1      -2.512  -8.523   1.991  0.00  0.00    +0.211 A 
ATOM      5  N   UNL     1      -1.185  -8.182   1.943  0.00  0.00    -0.222 N 
ATOM      6  N   UNL     1      -0.303  -8.824   2.761  0.00  0.00    -0.263 N 
ATOM      7  C   UNL     1      -0.910  -9.466   3.958  0.00  0.00    +0.184 C 
ATOM      8  S   UNL     1      -2.609  -9.732   3.294  0.00  0.00    -0.056 S 
ATOM      9  H   UNL     1       0.258  -9.483   2.242  0.00  0.00    +0.168 HD
ENDROOT
BRANCH   7  10
ATOM     10  C   UNL     1      -0.924  -8.532   5.141  0.00  0.00    +0.003 A 
ATOM     11  C   UNL     1      -0.712  -7.179   4.956  0.00  0.00    +0.008 A 
ATOM     12  C   UNL     1      -0.726  -6.322   6.041  0.00  0.00    +0.000 A 
ATOM     13  C   UNL     1      -0.950  -6.819   7.311  0.00  0.00    +0.001 A 
ATOM     14  C   UNL     1      -1.162  -8.172   7.497  0.00  0.00    +0.020 A 
ATOM     15  C   UNL     1      -1.155  -9.029   6.411  0.00  0.00    +0.047 A 
ATOM     16 CL   UNL     1      -1.427 -10.728   6.643  0.00  0.00    -0.083 Cl
ENDBRANCH   7  10
BRANCH   1  19
ATOM     17  C   UNL     1       0.061  -4.256  -0.021  0.00  0.00    +0.091 C 
ATOM     18  C   UNL     1       0.071  -5.030   1.081  0.00  0.00    +0.039 C 
ATOM     19  C   UNL     1       0.090  -6.445   0.530  0.00  0.00    +0.222 C 
ATOM     20  N   UNL     1       0.087  -6.239  -0.927  0.00  0.00    -0.171 NA
ATOM     21  N   UNL     1       0.065  -5.025  -1.142  0.00  0.00    -0.153 NA
BRANCH  17  26
ATOM     22  C   UNL     1      -0.018   1.503   0.010  0.00  0.00    +0.044 C 
ATOM     23  C   UNL     1       0.002  -0.004   0.002  0.00  0.00    -0.050 A 
ATOM     24  C   UNL     1       0.006  -0.686  -1.201  0.00  0.00    +0.004 A 
ATOM     25  C   UNL     1       0.025  -2.066  -1.215  0.00  0.00    +0.010 A 
ATOM     26  C   UNL     1       0.041  -2.772  -0.013  0.00  0.00    +0.002 A 
ATOM     27  C   UNL     1       0.037  -2.080   1.196  0.00  0.00    +0.010 A 
ATOM     28  C   UNL     1       0.023  -0.700   1.198  0.00  0.00    +0.004 A 
ENDBRANCH  17  26
ENDBRANCH   1  19
TORSDOF 3
