REMARK  Name = ZINC09390863
REMARK  13 active torsions:
REMARK  status: ('A' for Active; 'I' for Inactive)
REMARK    1  A    between atoms: C_1  and  C_2
REMARK    2  A    between atoms: C_2  and  O_3
REMARK    3  A    between atoms: O_3  and  C_4
REMARK    4  A    between atoms: C_4  and  C_6
REMARK    5  A    between atoms: C_6  and  C_8
REMARK    6  A    between atoms: C_6  and  S_9
REMARK    7  A    between atoms: S_9  and  C_10
REMARK    8  A    between atoms: C_13  and  C_23
REMARK    9  A    between atoms: N_14  and  C_15
REMARK   10  A    between atoms: C_18  and  O_21
REMARK   11  A    between atoms: O_21  and  C_22
REMARK   12  A    between atoms: C_23  and  N_24
REMARK   13  A    between atoms: C_25  and  C_27
REMARK                            x       y       z     vdW  Elec       q    Type
REMARK                         _______ _______ _______ _____ _____    ______ ____
ROOT
ATOM      1  C   UNL     1      -5.213   3.413   0.665  0.00  0.00    +0.197 A 
ATOM      2  N   UNL     1      -5.154   3.366  -0.646  0.00  0.00    -0.122 NA
ATOM      3  N   UNL     1      -4.207   2.580  -1.014  0.00  0.00    -0.132 NA
ATOM      4  C   UNL     1      -3.608   2.080   0.030  0.00  0.00    +0.156 A 
ATOM      5  N   UNL     1      -4.230   2.589   1.139  0.00  0.00    -0.273 N 
ENDROOT
BRANCH   5   6
ATOM      6  C   UNL     1      -3.922   2.323   2.482  0.00  0.00    +0.050 A 
ATOM      7  C   UNL     1      -4.096   1.044   2.994  0.00  0.00    +0.030 A 
ATOM      8  C   UNL     1      -3.787   0.781   4.314  0.00  0.00    +0.047 A 
ATOM      9  C   UNL     1      -3.313   1.797   5.132  0.00  0.00    +0.120 A 
ATOM     10  C   UNL     1      -3.144   3.076   4.622  0.00  0.00    +0.047 A 
ATOM     11  C   UNL     1      -3.447   3.339   3.301  0.00  0.00    +0.030 A 
BRANCH   9  12
ATOM     12  O   UNL     1      -3.014   1.539   6.433  0.00  0.00    -0.495 OA
ATOM     13  C   UNL     1      -3.213   0.200   6.890  0.00  0.00    +0.277 C 
ENDBRANCH   9  12
ENDBRANCH   5   6
BRANCH   1  14
ATOM     14  S   UNL     1      -6.348   4.354   1.630  0.00  0.00    -0.071 S 
BRANCH  14  15
ATOM     15  C   UNL     1      -7.301   5.147   0.311  0.00  0.00    +0.160 C 
ATOM     16  C   UNL     1      -6.392   6.093  -0.476  0.00  0.00    +0.031 C 
BRANCH  15  17
ATOM     17  C   UNL     1      -8.439   5.930   0.914  0.00  0.00    +0.320 C 
ATOM     18  O   UNL     1      -8.359   6.334   2.050  0.00  0.00    -0.250 OA
BRANCH  17  19
ATOM     19  O   UNL     1      -9.541   6.178   0.189  0.00  0.00    -0.464 OA
BRANCH  19  21
ATOM     20  C   UNL     1     -11.762   7.120  -0.141  0.00  0.00    +0.048 C 
ATOM     21  C   UNL     1     -10.597   6.938   0.834  0.00  0.00    +0.229 C 
ENDBRANCH  19  21
ENDBRANCH  17  19
ENDBRANCH  15  17
ENDBRANCH  14  15
ENDBRANCH   1  14
BRANCH   4  22
ATOM     22  C   UNL     1      -2.449   1.117   0.020  0.00  0.00    +0.181 C 
BRANCH  22  23
ATOM     23  N   UNL     1      -1.191   1.867   0.018  0.00  0.00    -0.308 N 
ATOM     24  C   UNL     1      -0.014   1.209   0.009  0.00  0.00    +0.220 C 
ATOM     25  O   UNL     1       0.002  -0.004   0.002  0.00  0.00    -0.275 OA
ATOM     26  H   UNL     1      -1.204   2.837   0.023  0.00  0.00    +0.149 HD
BRANCH  24  27
ATOM     27  C   UNL     1       1.280   1.980   0.001  0.00  0.00    +0.048 C 
ATOM     28  C   UNL     1       1.337   2.867  -1.245  0.00  0.00    +0.019 C 
ATOM     29  C   UNL     1       2.652   3.650  -1.253  0.00  0.00    -0.009 C 
ATOM     30  C   UNL     1       3.828   2.672  -1.270  0.00  0.00    +0.007 C 
ATOM     31  C   UNL     1       3.771   1.784  -0.024  0.00  0.00    -0.009 C 
ATOM     32  C   UNL     1       2.457   1.002  -0.016  0.00  0.00    +0.019 C 
ATOM     33  C   UNL     1       3.852   2.658   1.229  0.00  0.00    +0.007 C 
ATOM     34  C   UNL     1       2.676   3.637   1.245  0.00  0.00    -0.009 C 
ATOM     35  C   UNL     1       2.733   4.524   0.000  0.00  0.00    +0.007 C 
ATOM     36  C   UNL     1       1.361   2.854   1.254  0.00  0.00    +0.019 C 
ENDBRANCH  24  27
ENDBRANCH  22  23
ENDBRANCH   4  22
TORSDOF 10
