REMARK  Name = ZINC21584298
REMARK  8 active torsions:
REMARK  status: ('A' for Active; 'I' for Inactive)
REMARK    1  A    between atoms: C_1  and  C_2
REMARK    2  A    between atoms: C_2  and  C_3
REMARK    3  A    between atoms: C_2  and  C_4
REMARK    4  A    between atoms: C_4  and  C_6
REMARK    5  A    between atoms: C_4  and  N_18
REMARK    6  A    between atoms: C_9  and  C_12
REMARK    7  A    between atoms: N_18  and  C_19
REMARK    8  A    between atoms: C_19  and  C_20
REMARK                            x       y       z     vdW  Elec       q    Type
REMARK                         _______ _______ _______ _____ _____    ______ ____
ROOT
ATOM      1  C   UNL     1       2.492   3.936  -0.039  0.00  0.00    -0.038 C 
ENDROOT
BRANCH   1   2
ATOM      2  C   UNL     1       1.107   3.347  -0.107  0.00  0.00    -0.061 A 
ATOM      3  C   UNL     1       0.942   1.976  -0.181  0.00  0.00    +0.002 A 
ATOM      4  C   UNL     1      -0.329   1.436  -0.242  0.00  0.00    +0.004 A 
ATOM      5  C   UNL     1      -1.435   2.265  -0.235  0.00  0.00    -0.044 A 
ATOM      6  C   UNL     1      -1.270   3.636  -0.157  0.00  0.00    +0.004 A 
ATOM      7  C   UNL     1       0.001   4.176  -0.095  0.00  0.00    +0.002 A 
BRANCH   5   8
ATOM      8  C   UNL     1      -2.820   1.676  -0.308  0.00  0.00    +0.019 C 
ATOM      9  C   UNL     1      -3.533   2.203  -1.556  0.00  0.00    +0.008 C 
ATOM     10  C   UNL     1      -4.939   1.604  -1.630  0.00  0.00    +0.001 C 
ATOM     11  C   UNL     1      -5.730   2.005  -0.383  0.00  0.00    +0.000 C 
ATOM     12  C   UNL     1      -5.017   1.479   0.864  0.00  0.00    +0.001 C 
ATOM     13  C   UNL     1      -3.611   2.077   0.938  0.00  0.00    +0.008 C 
ENDBRANCH   5   8
ENDBRANCH   1   2
BRANCH   1  15
ATOM     14  C   UNL     1       4.345   4.940  -1.381  0.00  0.00    +0.006 C 
ATOM     15  C   UNL     1       2.901   4.438  -1.425  0.00  0.00    -0.027 C 
ATOM     16  C   UNL     1       2.789   3.294  -2.436  0.00  0.00    +0.006 C 
ENDBRANCH   1  15
BRANCH   1  17
ATOM     17  N   UNL     1       2.501   5.058   0.910  0.00  0.00    +0.387 N 
ATOM     18  H   UNL     1       3.302   5.761   0.638  0.00  0.00    -0.084 HD
ATOM     19  H   UNL     1       1.531   5.575   0.876  0.00  0.00    -0.084 HD
BRANCH  17  20
ATOM     20  C   UNL     1       2.736   4.585   2.281  0.00  0.00    -0.025 C 
BRANCH  20  21
ATOM     21  C   UNL     1       2.611   5.741   3.239  0.00  0.00    +0.032 A 
ATOM     22  C   UNL     1       1.592   5.758   4.171  0.00  0.00    +0.092 A 
ATOM     23  C   UNL     1       1.500   6.840   5.054  0.00  0.00    +0.259 A 
ATOM     24  O   UNL     1       0.613   6.883   5.892  0.00  0.00    -0.267 OA
ATOM     25  N   UNL     1       2.403   7.839   4.960  0.00  0.00    -0.267 N 
ATOM     26  C   UNL     1       2.323   8.902   5.809  0.00  0.00    +0.116 A 
ATOM     27  C   UNL     1       3.217   9.915   5.734  0.00  0.00    +0.058 A 
ATOM     28  C   UNL     1       4.242   9.880   4.776  0.00  0.00    +0.025 A 
ATOM     29  C   UNL     1       4.329   8.821   3.924  0.00  0.00    +0.048 A 
ATOM     30  C   UNL     1       3.390   7.778   4.017  0.00  0.00    +0.140 A 
ATOM     31  N   UNL     1       3.475   6.742   3.183  0.00  0.00    -0.236 NA
ATOM     32 CL   UNL     1       3.095  11.260   6.824  0.00  0.00    -0.082 Cl
ENDBRANCH  20  21
ENDBRANCH  17  20
ENDBRANCH   1  17
TORSDOF 6
