REMARK  Name = ZINC08831612
REMARK  10 active torsions:
REMARK  status: ('A' for Active; 'I' for Inactive)
REMARK    1  A    between atoms: C_1  and  C_2
REMARK    2  A    between atoms: C_9  and  N_14
REMARK    3  A    between atoms: C_10  and  C_11
REMARK    4  A    between atoms: N_14  and  C_15
REMARK    5  A    between atoms: C_15  and  N_17
REMARK    6  A    between atoms: C_18  and  C_20
REMARK    7  A    between atoms: C_21  and  C_22
REMARK    8  A    between atoms: C_25  and  C_28
REMARK    9  A    between atoms: C_28  and  C_29
REMARK   10  A    between atoms: C_28  and  C_30
REMARK                            x       y       z     vdW  Elec       q    Type
REMARK                         _______ _______ _______ _____ _____    ______ ____
ROOT
ATOM      1  N   UNL     1      -4.434   7.814   7.718  0.00  0.00    -0.291 N 
ATOM      2  H   UNL     1      -4.080   8.452   7.079  0.00  0.00    +0.154 HD
ENDROOT
BRANCH   1  10
ATOM      3  C   UNL     1      -8.068   9.922  14.315  0.00  0.00    +0.008 C 
ATOM      4  C   UNL     1      -7.082   9.907  13.145  0.00  0.00    -0.009 C 
ATOM      5  C   UNL     1      -7.478  10.978  12.123  0.00  0.00    +0.008 C 
ATOM      6  C   UNL     1      -6.368  11.139  11.083  0.00  0.00    +0.037 C 
ATOM      7  C   UNL     1      -6.030   9.768  10.510  0.00  0.00    -0.023 A 
ATOM      8  C   UNL     1      -6.383   8.637  11.158  0.00  0.00    -0.004 A 
ATOM      9  S   UNL     1      -5.796   7.323  10.127  0.00  0.00    -0.077 S 
ATOM     10  C   UNL     1      -5.081   8.261   8.858  0.00  0.00    +0.084 A 
ATOM     11  C   UNL     1      -5.321   9.568   9.258  0.00  0.00    +0.068 A 
ATOM     12  C   UNL     1      -7.116   8.533  12.460  0.00  0.00    +0.046 C 
BRANCH  11  13
ATOM     13  C   UNL     1      -4.875  10.705   8.446  0.00  0.00    +0.244 C 
ATOM     14  O   UNL     1      -5.608  11.167   7.591  0.00  0.00    -0.270 OA
ATOM     15  N   UNL     1      -3.654  11.238   8.647  0.00  0.00    -0.325 N 
ATOM     16  H   UNL     1      -3.070  10.870   9.329  0.00  0.00    +0.145 HD
ATOM     17  H   UNL     1      -3.359  11.991   8.110  0.00  0.00    +0.145 HD
ENDBRANCH  11  13
ENDBRANCH   1  10
BRANCH   1  18
ATOM     18  C   UNL     1      -4.295   6.492   7.496  0.00  0.00    +0.141 C 
ATOM     19  S   UNL     1      -4.918   5.364   8.623  0.00  0.00    -0.018 S 
BRANCH  18  20
ATOM     20  N   UNL     1      -3.664   6.057   6.386  0.00  0.00    -0.264 N 
ATOM     21  C   UNL     1      -3.526   4.735   6.165  0.00  0.00    +0.242 C 
ATOM     22  O   UNL     1      -3.969   3.934   6.966  0.00  0.00    -0.270 OA
ATOM     23  H   UNL     1      -3.311   6.696   5.748  0.00  0.00    +0.157 HD
BRANCH  21  24
ATOM     24  C   UNL     1      -2.841   4.263   4.960  0.00  0.00    +0.068 C 
ATOM     25  C   UNL     1      -2.702   2.940   4.739  0.00  0.00    +0.013 C 
BRANCH  25  26
ATOM     26  C   UNL     1      -2.014   2.465   3.527  0.00  0.00    -0.025 A 
ATOM     27  C   UNL     1      -1.868   1.094   3.294  0.00  0.00    +0.008 A 
ATOM     28  C   UNL     1      -1.222   0.657   2.156  0.00  0.00    +0.004 A 
ATOM     29  C   UNL     1      -0.718   1.572   1.248  0.00  0.00    -0.045 A 
ATOM     30  C   UNL     1      -0.854   2.930   1.475  0.00  0.00    +0.004 A 
ATOM     31  C   UNL     1      -1.503   3.383   2.604  0.00  0.00    +0.008 A 
BRANCH  29  32
ATOM     32  C   UNL     1      -0.013   1.086   0.008  0.00  0.00    +0.013 C 
ATOM     33  C   UNL     1       1.423   1.615  -0.003  0.00  0.00    +0.012 C 
ATOM     34  C   UNL     1      -0.753   1.593  -1.232  0.00  0.00    +0.012 C 
ENDBRANCH  29  32
ENDBRANCH  25  26
ENDBRANCH  21  24
ENDBRANCH  18  20
ENDBRANCH   1  18
TORSDOF 7
