REMARK  Name = ZINC13565000
REMARK  6 active torsions:
REMARK  status: ('A' for Active; 'I' for Inactive)
REMARK    1  A    between atoms: C_1  and  C_2
REMARK    2  A    between atoms: C_6  and  C_8
REMARK    3  A    between atoms: C_17  and  C_19
REMARK    4  A    between atoms: N_24  and  C_25
REMARK    5  A    between atoms: C_25  and  C_27
REMARK    6  A    between atoms: C_27  and  N_28
REMARK                            x       y       z     vdW  Elec       q    Type
REMARK                         _______ _______ _______ _____ _____    ______ ____
ROOT
ATOM      1  C   UNL     1       0.665  -7.859  -1.823  0.00  0.00    +0.055 A 
ATOM      2  C   UNL     1       0.765  -9.180  -1.552  0.00  0.00    +0.074 A 
ATOM      3  S   UNL     1       0.894  -9.883  -3.186  0.00  0.00    -0.060 S 
ATOM      4  C   UNL     1       0.812  -8.466  -4.085  0.00  0.00    +0.163 A 
ATOM      5  N   UNL     1       0.685  -7.496  -3.140  0.00  0.00    -0.335 N 
ATOM      6  N   UNL     1       0.857  -8.325  -5.411  0.00  0.00    -0.155 NA
ATOM      7  H   UNL     1       0.613  -6.564  -3.396  0.00  0.00    +0.168 HD
ENDROOT
BRANCH   1  17
ATOM      8  C   UNL     1       0.052  -2.845   2.457  0.00  0.00    +0.251 C 
ATOM      9  O   UNL     1      -0.061  -2.233   1.413  0.00  0.00    -0.270 OA
ATOM     10  N   UNL     1       0.172  -4.188   2.442  0.00  0.00    -0.267 N 
ATOM     11  C   UNL     1       0.194  -5.042   3.632  0.00  0.00    +0.118 C 
ATOM     12  C   UNL     1       0.344  -6.476   3.097  0.00  0.00    +0.056 C 
ATOM     13  C   UNL     1       0.398  -6.317   1.594  0.00  0.00    -0.024 A 
ATOM     14  C   UNL     1       0.286  -4.968   1.288  0.00  0.00    +0.040 A 
ATOM     15  C   UNL     1       0.304  -4.568  -0.051  0.00  0.00    +0.024 A 
ATOM     16  C   UNL     1       0.426  -5.499  -1.056  0.00  0.00    +0.012 A 
ATOM     17  C   UNL     1       0.533  -6.855  -0.744  0.00  0.00    -0.001 A 
ATOM     18  C   UNL     1       0.526  -7.256   0.592  0.00  0.00    +0.015 A 
BRANCH   8  24
ATOM     19  C   UNL     1       0.160   1.457   4.982  0.00  0.00    +0.044 C 
ATOM     20  C   UNL     1       0.111  -0.049   4.963  0.00  0.00    -0.050 A 
ATOM     21  C   UNL     1       0.073  -0.754   6.154  0.00  0.00    +0.003 A 
ATOM     22  C   UNL     1       0.028  -2.136   6.145  0.00  0.00    +0.001 A 
ATOM     23  C   UNL     1       0.021  -2.822   4.948  0.00  0.00    +0.013 A 
ATOM     24  C   UNL     1       0.059  -2.118   3.744  0.00  0.00    +0.037 A 
ATOM     25  C   UNL     1       0.099  -0.722   3.759  0.00  0.00    +0.016 A 
ENDBRANCH   8  24
ENDBRANCH   1  17
BRANCH   6  26
ATOM     26  C   UNL     1       0.981  -9.394  -6.188  0.00  0.00    +0.252 C 
ATOM     27  O   UNL     1       1.052 -10.502  -5.691  0.00  0.00    -0.272 OA
BRANCH  26  28
ATOM     28  C   UNL     1       1.031  -9.235  -7.686  0.00  0.00    +0.183 C 
BRANCH  28  29
ATOM     29  N   UNL     1       1.170 -10.556  -8.313  0.00  0.00    -0.289 NA
ATOM     30  C   UNL     1       1.438 -10.429  -9.755  0.00  0.00    +0.090 C 
ATOM     31  C   UNL     1       1.930 -11.779 -10.277  0.00  0.00    +0.051 C 
ATOM     32  C   UNL     1       0.990 -12.874  -9.841  0.00  0.00    -0.042 A 
ATOM     33  C   UNL     1       1.050 -14.096 -10.494  0.00  0.00    +0.004 A 
ATOM     34  C   UNL     1       0.209 -15.126 -10.123  0.00  0.00    +0.000 A 
ATOM     35  C   UNL     1      -0.697 -14.939  -9.096  0.00  0.00    +0.000 A 
ATOM     36  C   UNL     1      -0.758 -13.722  -8.447  0.00  0.00    +0.005 A 
ATOM     37  C   UNL     1       0.084 -12.685  -8.820  0.00  0.00    -0.030 A 
ATOM     38  C   UNL     1      -0.028 -11.372  -8.090  0.00  0.00    +0.120 C 
ENDBRANCH  28  29
ENDBRANCH  26  28
ENDBRANCH   6  26
TORSDOF 5
