REMARK  Name = ZINC41682835
REMARK  10 active torsions:
REMARK  status: ('A' for Active; 'I' for Inactive)
REMARK    1  A    between atoms: C_1  and  C_2
REMARK    2  A    between atoms: C_2  and  C_3
REMARK    3  A    between atoms: C_2  and  C_4
REMARK    4  A    between atoms: C_7  and  N_10
REMARK    5  A    between atoms: N_14  and  C_23
REMARK    6  A    between atoms: N_17  and  C_19
REMARK    7  A    between atoms: C_19  and  C_20
REMARK    8  A    between atoms: C_20  and  C_22
REMARK    9  A    between atoms: C_23  and  C_24
REMARK   10  A    between atoms: C_24  and  C_26
REMARK                            x       y       z     vdW  Elec       q    Type
REMARK                         _______ _______ _______ _____ _____    ______ ____
ROOT
ATOM      1  N   UNL     1      -5.318  -1.966   0.042  0.00  0.00    -0.294 N 
ATOM      2  C   UNL     1      -5.805  -2.685  -1.050  0.00  0.00    +0.209 A 
ATOM      3  C   UNL     1      -7.216  -3.101  -1.103  0.00  0.00    +0.297 A 
ATOM      4  O   UNL     1      -7.976  -2.821  -0.195  0.00  0.00    -0.264 OA
ATOM      5  N   UNL     1      -7.656  -3.795  -2.174  0.00  0.00    -0.253 N 
ATOM      6  C   UNL     1      -6.808  -4.100  -3.174  0.00  0.00    +0.349 A 
ATOM      7  O   UNL     1      -7.217  -4.726  -4.133  0.00  0.00    -0.245 OA
ATOM      8  N   UNL     1      -5.518  -3.723  -3.132  0.00  0.00    -0.209 N 
ATOM      9  N   UNL     1      -5.016  -2.997  -2.046  0.00  0.00    -0.146 NA
ATOM     10  H   UNL     1      -5.927  -1.668   0.736  0.00  0.00    +0.154 HD
ENDROOT
BRANCH   1  14
ATOM     11  C   UNL     1      -1.255  -1.102   0.323  0.00  0.00    -0.045 A 
ATOM     12  C   UNL     1      -2.187  -0.201   0.805  0.00  0.00    +0.006 A 
ATOM     13  C   UNL     1      -3.535  -0.484   0.714  0.00  0.00    +0.023 A 
ATOM     14  C   UNL     1      -3.955  -1.676   0.136  0.00  0.00    +0.033 A 
ATOM     15  C   UNL     1      -3.016  -2.579  -0.348  0.00  0.00    +0.023 A 
ATOM     16  C   UNL     1      -1.670  -2.287  -0.258  0.00  0.00    +0.006 A 
BRANCH  11  18
ATOM     17  C   UNL     1       0.515   0.505  -0.335  0.00  0.00    +0.012 C 
ATOM     18  C   UNL     1       0.216  -0.789   0.424  0.00  0.00    +0.013 C 
ATOM     19  C   UNL     1       0.601  -0.618   1.895  0.00  0.00    +0.012 C 
ENDBRANCH  11  18
ENDBRANCH   1  14
BRANCH   8  20
ATOM     20  C   UNL     1      -4.627  -4.074  -4.240  0.00  0.00    +0.179 C 
BRANCH  20  21
ATOM     21  C   UNL     1      -4.655  -2.978  -5.274  0.00  0.00    -0.058 C 
ATOM     22  C   UNL     1      -3.746  -2.035  -5.253  0.00  0.00    +0.009 C 
ATOM     23  C   UNL     1      -5.729  -2.966  -6.331  0.00  0.00    +0.040 C 
ENDBRANCH  20  21
ENDBRANCH   8  20
BRANCH   5  24
ATOM     24  C   UNL     1      -9.056  -4.218  -2.246  0.00  0.00    +0.160 C 
BRANCH  24  25
ATOM     25  C   UNL     1      -9.870  -3.147  -2.924  0.00  0.00    -0.060 C 
ATOM     26  C   UNL     1     -10.108  -3.219  -4.210  0.00  0.00    +0.009 C 
ATOM     27  C   UNL     1     -10.412  -1.991  -2.122  0.00  0.00    +0.040 C 
ENDBRANCH  24  25
ENDBRANCH   5  24
TORSDOF 6
