REMARK  Name = ZINC02964515
REMARK  10 active torsions:
REMARK  status: ('A' for Active; 'I' for Inactive)
REMARK    1  A    between atoms: C_1  and  C_2
REMARK    2  A    between atoms: C_2  and  C_3
REMARK    3  A    between atoms: C_3  and  C_5
REMARK    4  A    between atoms: C_3  and  S_17
REMARK    5  A    between atoms: N_7  and  C_8
REMARK    6  A    between atoms: S_17  and  C_18
REMARK    7  A    between atoms: C_28  and  C_33
REMARK    8  A    between atoms: C_33  and  C_34
REMARK    9  A    between atoms: C_34  and  C_35
REMARK   10  A    between atoms: C_34  and  C_36
REMARK                            x       y       z     vdW  Elec       q    Type
REMARK                         _______ _______ _______ _____ _____    ______ ____
ROOT
ATOM      1  C   UNL     1       0.303   2.076  -2.941  0.00  0.00    +0.170 C 
ATOM      2  N   UNL     1       1.085   2.551  -2.009  0.00  0.00    -0.225 NA
ATOM      3  C   UNL     1       1.347   3.877  -1.891  0.00  0.00    +0.077 A 
ATOM      4  C   UNL     1       2.187   4.364  -0.887  0.00  0.00    +0.028 A 
ATOM      5  C   UNL     1       2.430   5.717  -0.797  0.00  0.00    +0.002 A 
ATOM      6  C   UNL     1       1.850   6.604  -1.693  0.00  0.00    +0.001 A 
ATOM      7  C   UNL     1       1.017   6.145  -2.692  0.00  0.00    +0.013 A 
ATOM      8  C   UNL     1       0.760   4.782  -2.798  0.00  0.00    +0.041 A 
ATOM      9  C   UNL     1      -0.126   4.244  -3.853  0.00  0.00    +0.139 C 
ATOM     10  N   UNL     1      -0.781   4.855  -4.800  0.00  0.00    -0.255 NA
ATOM     11  C   UNL     1      -1.509   3.839  -5.572  0.00  0.00    +0.194 C 
ATOM     12  C   UNL     1      -1.150   2.535  -4.892  0.00  0.00    +0.251 C 
ATOM     13  O   UNL     1      -1.526   1.423  -5.193  0.00  0.00    -0.272 OA
ATOM     14  N   UNL     1      -0.316   2.872  -3.881  0.00  0.00    -0.200 N 
ENDROOT
BRANCH   1  15
ATOM     15  S   UNL     1       0.032   0.337  -3.003  0.00  0.00    -0.077 S 
BRANCH  15  16
ATOM     16  C   UNL     1       0.964  -0.304  -1.585  0.00  0.00    +0.140 C 
BRANCH  16  17
ATOM     17  C   UNL     1       2.436  -0.063  -1.801  0.00  0.00    +0.231 C 
ATOM     18  O   UNL     1       2.860   0.141  -2.919  0.00  0.00    -0.274 OA
ATOM     19  N   UNL     1       3.282  -0.073  -0.752  0.00  0.00    -0.284 N 
ATOM     20  H   UNL     1       2.936  -0.168   0.149  0.00  0.00    +0.155 HD
BRANCH  19  21
ATOM     21  C   UNL     1       4.661   0.053  -0.963  0.00  0.00    +0.037 A 
ATOM     22  C   UNL     1       5.451   0.702  -0.023  0.00  0.00    +0.027 A 
ATOM     23  C   UNL     1       6.811   0.827  -0.229  0.00  0.00    +0.051 A 
ATOM     24  C   UNL     1       7.392   0.305  -1.374  0.00  0.00    +0.166 A 
ATOM     25  C   UNL     1       6.602  -0.347  -2.318  0.00  0.00    +0.168 A 
ATOM     26  C   UNL     1       5.240  -0.476  -2.108  0.00  0.00    +0.072 A 
ATOM     27  O   UNL     1       7.402  -0.764  -3.343  0.00  0.00    -0.453 OA
ATOM     28  C   UNL     1       8.620  -0.005  -3.214  0.00  0.00    +0.466 C 
ATOM     29  O   UNL     1       8.687   0.296  -1.807  0.00  0.00    -0.453 OA
ENDBRANCH  19  21
ENDBRANCH  16  17
BRANCH  16  31
ATOM     30  C   UNL     1      -0.758  -2.042  -1.078  0.00  0.00    +0.005 C 
ATOM     31  C   UNL     1       0.709  -1.806  -1.443  0.00  0.00    +0.020 C 
ENDBRANCH  16  31
ENDBRANCH  15  16
ENDBRANCH   1  15
BRANCH  11  32
ATOM     32  C   UNL     1      -1.041   3.834  -7.029  0.00  0.00    +0.039 C 
BRANCH  32  33
ATOM     33  C   UNL     1      -1.441   5.151  -7.697  0.00  0.00    -0.015 C 
ATOM     34  C   UNL     1      -0.691   6.308  -7.034  0.00  0.00    +0.007 C 
ATOM     35  C   UNL     1      -1.084   5.097  -9.184  0.00  0.00    +0.007 C 
ENDBRANCH  32  33
ENDBRANCH  11  32
TORSDOF 7
