REMARK  Name = ZINC39897464
REMARK  11 active torsions:
REMARK  status: ('A' for Active; 'I' for Inactive)
REMARK    1  A    between atoms: C_1  and  C_2
REMARK    2  A    between atoms: C_2  and  C_3
REMARK    3  A    between atoms: C_2  and  C_4
REMARK    4  A    between atoms: C_7  and  N_10
REMARK    5  A    between atoms: C_13  and  C_31
REMARK    6  A    between atoms: C_17  and  C_18
REMARK    7  A    between atoms: C_17  and  C_20
REMARK    8  A    between atoms: N_22  and  C_23
REMARK    9  A    between atoms: C_28  and  O_29
REMARK   10  A    between atoms: O_29  and  C_30
REMARK   11  A    between atoms: C_31  and  C_32
REMARK                            x       y       z     vdW  Elec       q    Type
REMARK                         _______ _______ _______ _____ _____    ______ ____
ROOT
ATOM      1  N   UNL     1      -5.095  -2.392   1.313  0.00  0.00    -0.232 N 
ATOM      2  C   UNL     1      -5.622  -2.519   2.519  0.00  0.00    +0.238 C 
ATOM      3  O   UNL     1      -5.117  -2.015   3.500  0.00  0.00    -0.274 OA
ATOM      4  C   UNL     1      -6.902  -3.336   2.598  0.00  0.00    +0.143 C 
ATOM      5  S   UNL     1      -7.110  -3.788   0.826  0.00  0.00    -0.095 S 
ATOM      6  C   UNL     1      -5.662  -2.954   0.195  0.00  0.00    +0.098 C 
ATOM      7  C   UNL     1      -5.211  -2.889  -1.124  0.00  0.00    +0.142 C 
ENDROOT
BRANCH   1  11
ATOM      8  C   UNL     1      -1.585  -0.185   0.886  0.00  0.00    -0.045 A 
ATOM      9  C   UNL     1      -2.809   0.457   0.878  0.00  0.00    +0.006 A 
ATOM     10  C   UNL     1      -3.974  -0.271   1.020  0.00  0.00    +0.024 A 
ATOM     11  C   UNL     1      -3.915  -1.650   1.169  0.00  0.00    +0.042 A 
ATOM     12  C   UNL     1      -2.684  -2.293   1.177  0.00  0.00    +0.024 A 
ATOM     13  C   UNL     1      -1.523  -1.560   1.030  0.00  0.00    +0.006 A 
BRANCH   8  15
ATOM     14  C   UNL     1      -0.578   1.820  -0.169  0.00  0.00    +0.012 C 
ATOM     15  C   UNL     1      -0.315   0.612   0.733  0.00  0.00    +0.013 C 
ATOM     16  C   UNL     1       0.154   1.095   2.107  0.00  0.00    +0.012 C 
ENDBRANCH   8  15
ENDBRANCH   1  11
BRANCH   7  17
ATOM     17  C   UNL     1      -3.844  -2.455  -1.409  0.00  0.00    +0.261 C 
ATOM     18  O   UNL     1      -3.633  -1.317  -1.790  0.00  0.00    -0.269 OA
ATOM     19  N   UNL     1      -2.817  -3.313  -1.250  0.00  0.00    -0.278 N 
ATOM     20  H   UNL     1      -2.990  -4.235  -1.003  0.00  0.00    +0.155 HD
BRANCH  19  21
ATOM     21  C   UNL     1      -1.501  -2.875  -1.442  0.00  0.00    +0.076 A 
ATOM     22  C   UNL     1      -1.244  -1.782  -2.258  0.00  0.00    +0.027 A 
ATOM     23  C   UNL     1       0.056  -1.351  -2.445  0.00  0.00    +0.002 A 
ATOM     24  C   UNL     1       1.102  -2.005  -1.821  0.00  0.00    +0.004 A 
ATOM     25  C   UNL     1       0.853  -3.095  -1.007  0.00  0.00    +0.047 A 
ATOM     26  C   UNL     1      -0.447  -3.530  -0.810  0.00  0.00    +0.141 A 
BRANCH  26  27
ATOM     27  O   UNL     1      -0.693  -4.598  -0.005  0.00  0.00    -0.493 OA
ATOM     28  C   UNL     1       0.436  -5.221   0.610  0.00  0.00    +0.277 C 
ENDBRANCH  26  27
ENDBRANCH  19  21
ENDBRANCH   7  17
BRANCH   7  29
ATOM     29  C   UNL     1      -6.087  -3.247  -2.199  0.00  0.00    +0.107 C 
ATOM     30  N   UNL     1      -6.782  -3.532  -3.051  0.00  0.00    -0.191 NA
ENDBRANCH   7  29
BRANCH   4  31
ATOM     31  C   UNL     1      -6.713  -4.579   3.470  0.00  0.00    +0.062 C 
BRANCH  31  32
ATOM     32  C   UNL     1      -8.032  -5.292   3.621  0.00  0.00    -0.011 A 
ATOM     33  C   UNL     1      -8.832  -5.040   4.720  0.00  0.00    +0.006 A 
ATOM     34  C   UNL     1     -10.042  -5.694   4.859  0.00  0.00    +0.000 A 
ATOM     35  C   UNL     1     -10.454  -6.599   3.899  0.00  0.00    +0.003 A 
ATOM     36  C   UNL     1      -9.656  -6.852   2.799  0.00  0.00    +0.038 A 
ATOM     37  C   UNL     1      -8.446  -6.194   2.657  0.00  0.00    +0.127 A 
ATOM     38  F   UNL     1      -7.668  -6.437   1.580  0.00  0.00    -0.205 F 
ENDBRANCH  31  32
ENDBRANCH   4  31
TORSDOF 8
