REMARK  Name = ZINC32477811
REMARK  9 active torsions:
REMARK  status: ('A' for Active; 'I' for Inactive)
REMARK    1  A    between atoms: C_1  and  N_2
REMARK    2  A    between atoms: N_2  and  C_3
REMARK    3  A    between atoms: N_2  and  C_4
REMARK    4  A    between atoms: C_4  and  C_6
REMARK    5  A    between atoms: C_4  and  C_24
REMARK    6  A    between atoms: C_6  and  N_7
REMARK    7  A    between atoms: C_8  and  C_10
REMARK    8  A    between atoms: C_13  and  N_19
REMARK    9  A    between atoms: C_14  and  N_16
REMARK                            x       y       z     vdW  Elec       q    Type
REMARK                         _______ _______ _______ _____ _____    ______ ____
ROOT
ATOM      1  N   UNL     1       4.802   4.628  -1.345  0.00  0.00    -0.313 N 
ATOM      2  C   UNL     1       5.416   5.126  -2.437  0.00  0.00    +0.244 C 
ATOM      3  O   UNL     1       4.821   5.182  -3.496  0.00  0.00    -0.270 OA
ATOM      4  H   UNL     1       5.339   4.577  -0.387  0.00  0.00    +0.149 HD
ENDROOT
BRANCH   2   5
ATOM      5  C   UNL     1       6.810   5.603  -2.346  0.00  0.00    +0.039 A 
ATOM      6  C   UNL     1       7.495   5.539  -1.130  0.00  0.00    +0.015 A 
ATOM      7  C   UNL     1       8.795   5.984  -1.049  0.00  0.00    +0.029 A 
ATOM      8  C   UNL     1       9.427   6.498  -2.177  0.00  0.00    +0.078 A 
ATOM      9  C   UNL     1       8.749   6.563  -3.389  0.00  0.00    +0.151 A 
ATOM     10  C   UNL     1       7.450   6.114  -3.478  0.00  0.00    +0.048 A 
BRANCH   8  11
ATOM     11  N   UNL     1      10.748   6.950  -2.091  0.00  0.00    -0.304 N 
ATOM     12  C   UNL     1      11.226   7.913  -1.240  0.00  0.00    +0.112 A 
ATOM     13  C   UNL     1      12.544   8.034  -1.489  0.00  0.00    +0.130 A 
ATOM     14  N   UNL     1      12.865   7.177  -2.470  0.00  0.00    -0.244 NA
ATOM     15  C   UNL     1      11.799   6.522  -2.839  0.00  0.00    +0.204 A 
ENDBRANCH   8  11
BRANCH   9  16
ATOM     16  N   UNL     1       9.426   7.110  -4.586  0.00  0.00    +0.058 N 
ATOM     17  O   UNL     1      10.189   8.053  -4.476  0.00  0.00    -0.126 OA
ATOM     18  O   UNL     1       9.220   6.617  -5.681  0.00  0.00    -0.126 OA
ENDBRANCH   9  16
ENDBRANCH   2   5
BRANCH   1  19
ATOM     19  C   UNL     1       3.418   4.155  -1.435  0.00  0.00    +0.094 C 
BRANCH  19  20
ATOM     20  C   UNL     1       2.964   3.644  -0.066  0.00  0.00    -0.020 C 
BRANCH  20  21
ATOM     21  C   UNL     1       1.587   3.045  -0.185  0.00  0.00    -0.041 A 
ATOM     22  C   UNL     1       1.172   2.496  -1.384  0.00  0.00    +0.003 A 
ATOM     23  C   UNL     1      -0.091   1.946  -1.493  0.00  0.00    +0.000 A 
ATOM     24  C   UNL     1      -0.944   1.950  -0.405  0.00  0.00    +0.001 A 
ATOM     25  C   UNL     1      -0.528   2.492   0.797  0.00  0.00    +0.020 A 
ATOM     26  C   UNL     1       0.736   3.043   0.906  0.00  0.00    +0.043 A 
ATOM     27 CL   UNL     1       1.255   3.732   2.413  0.00  0.00    -0.083 Cl
ENDBRANCH  20  21
BRANCH  20  29
ATOM     28  C   UNL     1       3.606   2.237   1.798  0.00  0.00    -0.096 C 
ATOM     29  N   UNL     1       3.904   2.620   0.411  0.00  0.00    +0.382 N 
ATOM     30  C   UNL     1       3.897   1.446  -0.472  0.00  0.00    -0.096 C 
ATOM     31  H   UNL     1       4.915   3.053   0.390  0.00  0.00    -0.082 HD
ENDBRANCH  20  29
ENDBRANCH  19  20
ENDBRANCH   1  19
TORSDOF 7
