REMARK  Name = ZINC03830350
REMARK  11 active torsions:
REMARK  status: ('A' for Active; 'I' for Inactive)
REMARK    1  A    between atoms: C_1  and  C_2
REMARK    2  A    between atoms: C_2  and  N_3
REMARK    3  A    between atoms: N_6  and  C_7
REMARK    4  A    between atoms: C_7  and  C_8
REMARK    5  A    between atoms: C_8  and  C_9
REMARK    6  A    between atoms: C_9  and  N_10
REMARK    7  A    between atoms: N_10  and  C_11
REMARK    8  A    between atoms: N_10  and  C_12
REMARK    9  A    between atoms: C_13  and  C_15
REMARK   10  A    between atoms: N_33  and  C_35
REMARK   11  A    between atoms: C_35  and  C_36
REMARK                            x       y       z     vdW  Elec       q    Type
REMARK                         _______ _______ _______ _____ _____    ______ ____
ROOT
ATOM      1  C   UNL     1       1.641   0.128   3.037  0.00  0.00    +0.060 C 
ATOM      2  C   UNL     1       2.036   0.404   1.583  0.00  0.00    +0.017 C 
ATOM      3  C   UNL     1       1.878   1.900   1.297  0.00  0.00    +0.007 C 
ATOM      4  C   UNL     1       2.313   2.197  -0.106  0.00  0.00    -0.036 A 
ATOM      5  C   UNL     1       1.571   2.166  -1.243  0.00  0.00    +0.004 A 
ATOM      6  C   UNL     1       2.153   2.470  -2.473  0.00  0.00    +0.002 A 
ATOM      7  C   UNL     1       3.487   2.816  -2.641  0.00  0.00    +0.026 A 
ATOM      8  C   UNL     1       4.275   2.860  -1.492  0.00  0.00    +0.047 A 
ATOM      9  C   UNL     1       3.654   2.553  -0.276  0.00  0.00    +0.006 A 
ATOM     10  C   UNL     1       4.647   2.675   0.790  0.00  0.00    -0.024 A 
ATOM     11  C   UNL     1       5.774   3.021   0.188  0.00  0.00    +0.087 A 
ATOM     12  N   UNL     1       5.572   3.133  -1.180  0.00  0.00    -0.360 N 
ATOM     13  H   UNL     1       6.258   3.372  -1.823  0.00  0.00    +0.165 HD
ATOM     14  C   UNL     1       4.217   2.416   2.212  0.00  0.00    +0.022 C 
ATOM     15  C   UNL     1       2.727   2.696   2.290  0.00  0.00    -0.056 C 
ATOM     16  N   UNL     1       2.284   2.409   3.660  0.00  0.00    +0.385 N 
ATOM     17  C   UNL     1       2.499   0.990   3.966  0.00  0.00    -0.065 C 
ATOM     18  H   UNL     1       1.302   2.625   3.746  0.00  0.00    -0.081 HD
ENDROOT
BRANCH   1  23
ATOM     19  N   UNL     1       2.212  -3.921   4.011  0.00  0.00    -0.299 N 
ATOM     20  C   UNL     1       1.111  -3.537   3.336  0.00  0.00    +0.309 C 
ATOM     21  O   UNL     1       0.253  -4.352   3.059  0.00  0.00    -0.252 OA
ATOM     22  N   UNL     1       0.961  -2.250   2.967  0.00  0.00    -0.226 N 
ATOM     23  C   UNL     1       1.867  -1.329   3.352  0.00  0.00    +0.224 C 
ATOM     24  O   UNL     1       2.864  -1.672   3.951  0.00  0.00    -0.275 OA
ATOM     25  H   UNL     1       2.858  -3.259   4.302  0.00  0.00    +0.150 HD
BRANCH  19  27
ATOM     26  C   UNL     1       3.678  -5.489   5.183  0.00  0.00    +0.024 C 
ATOM     27  C   UNL     1       2.432  -5.339   4.307  0.00  0.00    +0.102 C 
ENDBRANCH  19  27
BRANCH  22  28
ATOM     28  C   UNL     1      -0.186  -1.851   2.147  0.00  0.00    +0.116 C 
BRANCH  28  29
ATOM     29  C   UNL     1      -1.359  -1.481   3.058  0.00  0.00    +0.001 C 
BRANCH  29  30
ATOM     30  C   UNL     1      -2.557  -1.065   2.202  0.00  0.00    -0.078 C 
BRANCH  30  31
ATOM     31  N   UNL     1      -3.683  -0.710   3.076  0.00  0.00    +0.376 N 
ATOM     32  C   UNL     1      -4.792  -0.197   2.261  0.00  0.00    -0.097 C 
ATOM     33  C   UNL     1      -4.126  -1.902   3.812  0.00  0.00    -0.097 C 
ATOM     34  H   UNL     1      -3.390  -0.001   3.731  0.00  0.00    -0.083 HD
ENDBRANCH  30  31
ENDBRANCH  29  30
ENDBRANCH  28  29
ENDBRANCH  22  28
ENDBRANCH   1  23
BRANCH  16  35
ATOM     35  C   UNL     1       3.049   3.234   4.604  0.00  0.00    -0.051 C 
BRANCH  35  36
ATOM     36  C   UNL     1       2.511   3.032   5.997  0.00  0.00    -0.053 C 
ATOM     37  C   UNL     1       3.316   2.662   6.963  0.00  0.00    +0.002 C 
ENDBRANCH  35  36
ENDBRANCH  16  35
TORSDOF 8
