REMARK  Name = ZINC13279772
REMARK  4 active torsions:
REMARK  status: ('A' for Active; 'I' for Inactive)
REMARK    1  A    between atoms: C_3  and  C_8
REMARK    2  A    between atoms: C_11  and  S_13
REMARK    3  A    between atoms: S_13  and  C_14
REMARK    4  A    between atoms: C_15  and  C_20
REMARK                            x       y       z     vdW  Elec       q    Type
REMARK                         _______ _______ _______ _____ _____    ______ ____
ROOT
ATOM      1  C   UNL     1       3.830   6.710   0.002  0.00  0.00    +0.249 A 
ATOM      2  N   UNL     1       3.950   5.405  -0.006  0.00  0.00    -0.106 NA
ATOM      3  N   UNL     1       2.781   4.868   0.007  0.00  0.00    -0.100 NA
ATOM      4  C   UNL     1       1.867   5.810   0.016  0.00  0.00    +0.284 A 
ATOM      5  O   UNL     1       2.509   6.994   0.016  0.00  0.00    -0.411 OA
ENDROOT
BRANCH   1   8
ATOM      6  C   UNL     1       5.695   9.970   0.004  0.00  0.00    +0.002 A 
ATOM      7  C   UNL     1       4.659   9.059   0.003  0.00  0.00    +0.013 A 
ATOM      8  C   UNL     1       4.935   7.691  -0.002  0.00  0.00    +0.040 A 
ATOM      9  C   UNL     1       6.261   7.253  -0.017  0.00  0.00    +0.028 A 
ATOM     10  C   UNL     1       7.288   8.174  -0.021  0.00  0.00    +0.019 A 
ATOM     11  C   UNL     1       7.006   9.530  -0.010  0.00  0.00    +0.015 A 
ATOM     12 BR   UNL     1       9.085   7.584  -0.041  0.00  0.00    -0.050 Br
ENDBRANCH   1   8
BRANCH   4  13
ATOM     13  S   UNL     1       0.122   5.570   0.031  0.00  0.00    -0.009 S 
BRANCH  13  14
ATOM     14  C   UNL     1       0.055   3.809   0.022  0.00  0.00    +0.120 A 
ATOM     15  C   UNL     1      -1.190   3.156   0.030  0.00  0.00    +0.095 A 
ATOM     16  C   UNL     1      -1.217   1.756   0.017  0.00  0.00    +0.019 A 
ATOM     17  C   UNL     1      -0.013   1.076   0.008  0.00  0.00    +0.021 A 
ATOM     18  C   UNL     1       1.173   1.789   0.001  0.00  0.00    +0.112 A 
ATOM     19  N   UNL     1       1.178   3.107   0.007  0.00  0.00    -0.247 NA
BRANCH  15  20
ATOM     20  C   UNL     1      -2.443   3.930   0.045  0.00  0.00    +0.389 C 
ATOM     21  O   UNL     1      -2.407   5.145   0.051  0.00  0.00    -0.240 OA
ATOM     22  O   UNL     1      -3.630   3.292   0.053  0.00  0.00    -0.240 OA
ENDBRANCH  15  20
ENDBRANCH  13  14
ENDBRANCH   4  13
TORSDOF 4
