REMARK  Name = ZINC64011707
REMARK  7 active torsions:
REMARK  status: ('A' for Active; 'I' for Inactive)
REMARK    1  A    between atoms: C_1  and  C_2
REMARK    2  A    between atoms: C_4  and  C_31
REMARK    3  A    between atoms: C_8  and  C_12
REMARK    4  A    between atoms: C_12  and  S_13
REMARK    5  A    between atoms: S_13  and  C_14
REMARK    6  A    between atoms: C_14  and  C_16
REMARK    7  A    between atoms: C_14  and  C_17
REMARK                            x       y       z     vdW  Elec       q    Type
REMARK                         _______ _______ _______ _____ _____    ______ ____
ROOT
ATOM      1  C   UNL     1       7.552  -5.063  -0.578  0.00  0.00    +0.130 C 
ATOM      2  C   UNL     1       8.490  -4.110   0.166  0.00  0.00    +0.029 C 
ENDROOT
BRANCH   1   3
ATOM      3  C   UNL     1       8.299  -5.724  -1.707  0.00  0.00    +0.231 C 
ATOM      4  O   UNL     1       8.243  -5.259  -2.826  0.00  0.00    -0.274 OA
ATOM      5  N   UNL     1       9.030  -6.832  -1.474  0.00  0.00    -0.264 N 
ATOM      6  C   UNL     1       9.720  -7.442  -2.516  0.00  0.00    +0.165 A 
ATOM      7  N   UNL     1       9.780  -7.080  -3.779  0.00  0.00    -0.229 NA
ATOM      8  C   UNL     1      10.489  -7.768  -4.676  0.00  0.00    +0.054 A 
ATOM      9  C   UNL     1      11.141  -8.834  -4.177  0.00  0.00    +0.014 A 
ATOM     10  S   UNL     1      10.689  -8.821  -2.467  0.00  0.00    -0.057 S 
ATOM     11  C   UNL     1      12.065  -9.767  -4.916  0.00  0.00    +0.044 C 
ATOM     12  C   UNL     1      11.195 -10.565  -5.908  0.00  0.00    +0.005 C 
ATOM     13  C   UNL     1      10.880  -9.720  -7.119  0.00  0.00    +0.001 C 
ATOM     14  C   UNL     1       9.903  -8.591  -6.923  0.00  0.00    +0.006 C 
ATOM     15  C   UNL     1      10.529  -7.416  -6.164  0.00  0.00    +0.056 C 
ATOM     16  H   UNL     1       9.076  -7.204  -0.580  0.00  0.00    +0.157 HD
ENDBRANCH   1   3
BRANCH   1  17
ATOM     17  S   UNL     1       6.148  -4.130  -1.246  0.00  0.00    -0.141 S 
BRANCH  17  18
ATOM     18  C   UNL     1       5.277  -3.531   0.228  0.00  0.00    +0.143 C 
BRANCH  18  25
ATOM     19  C   UNL     1      -0.019   1.526   0.010  0.00  0.00    +0.024 C 
ATOM     20  C   UNL     1       0.002  -0.004   0.002  0.00  0.00    +0.076 C 
ATOM     21  C   UNL     1       0.769  -0.528  -1.190  0.00  0.00    -0.045 C 
ATOM     22  C   UNL     1       1.868  -1.261  -0.953  0.00  0.00    +0.071 C 
ATOM     23  C   UNL     1       2.243  -1.498   0.457  0.00  0.00    +0.111 C 
ATOM     24  N   UNL     1       3.306  -2.207   0.754  0.00  0.00    -0.227 NA
ATOM     25  C   UNL     1       4.072  -2.729  -0.191  0.00  0.00    +0.133 C 
ATOM     26  N   UNL     1       3.837  -2.585  -1.473  0.00  0.00    -0.161 NA
ATOM     27  C   UNL     1       2.796  -1.891  -1.945  0.00  0.00    +0.271 C 
ATOM     28  O   UNL     1       2.607  -1.777  -3.144  0.00  0.00    -0.268 OA
ATOM     29  S   UNL     1       0.997  -0.657   1.404  0.00  0.00    -0.098 S 
ATOM     30  C   UNL     1       0.315  -0.239  -2.598  0.00  0.00    +0.041 C 
ENDBRANCH  18  25
ENDBRANCH  17  18
ENDBRANCH   1  17
TORSDOF 4
