REMARK  Name = ZINC35867006
REMARK  5 active torsions:
REMARK  status: ('A' for Active; 'I' for Inactive)
REMARK    1  A    between atoms: C_1  and  C_2
REMARK    2  A    between atoms: C_2  and  C_3
REMARK    3  A    between atoms: C_3  and  C_5
REMARK    4  A    between atoms: C_3  and  C_6
REMARK    5  A    between atoms: N_27  and  C_28
REMARK                            x       y       z     vdW  Elec       q    Type
REMARK                         _______ _______ _______ _____ _____    ______ ____
ROOT
ATOM      1  C   UNL     1       0.374  -1.805   1.216  0.00  0.00    +0.135 A 
ATOM      2  N   UNL     1      -0.169  -2.345   2.292  0.00  0.00    -0.216 NA
ATOM      3  C   UNL     1       0.150  -3.560   2.708  0.00  0.00    +0.133 A 
ATOM      4  C   UNL     1       1.109  -4.313   1.976  0.00  0.00    +0.051 A 
ATOM      5  C   UNL     1       1.615  -5.661   2.242  0.00  0.00    -0.025 A 
ATOM      6  C   UNL     1       2.532  -6.151   1.384  0.00  0.00    -0.004 A 
ATOM      7  S   UNL     1       2.776  -4.869   0.185  0.00  0.00    -0.073 S 
ATOM      8  C   UNL     1       1.643  -3.671   0.841  0.00  0.00    +0.114 A 
ATOM      9  N   UNL     1       1.265  -2.456   0.493  0.00  0.00    -0.224 NA
ATOM     10  C   UNL     1       3.199  -7.492   1.437  0.00  0.00    +0.043 C 
ATOM     11  C   UNL     1       2.964  -8.095   2.829  0.00  0.00    +0.005 C 
ATOM     12  C   UNL     1       1.480  -7.959   3.179  0.00  0.00    +0.005 C 
ATOM     13  C   UNL     1       1.139  -6.490   3.433  0.00  0.00    +0.037 C 
ATOM     14  N   UNL     1      -0.442  -4.091   3.840  0.00  0.00    -0.312 N 
ATOM     15  C   UNL     1       0.236  -4.017   5.142  0.00  0.00    +0.125 C 
ATOM     16  C   UNL     1      -0.704  -3.338   6.146  0.00  0.00    +0.128 C 
ATOM     17  N   UNL     1      -2.021  -3.985   6.068  0.00  0.00    -0.282 N 
ATOM     18  C   UNL     1      -2.699  -4.059   4.766  0.00  0.00    +0.128 C 
ATOM     19  C   UNL     1      -1.761  -4.733   3.764  0.00  0.00    +0.125 C 
ATOM     20  C   UNL     1      -2.598  -4.502   7.171  0.00  0.00    +0.307 C 
ATOM     21  O   UNL     1      -2.072  -4.354   8.258  0.00  0.00    -0.252 OA
ATOM     22  N   UNL     1      -3.756  -5.184   7.070  0.00  0.00    -0.267 N 
ATOM     23  H   UNL     1      -4.148  -5.346   6.198  0.00  0.00    +0.156 HD
ENDROOT
BRANCH  22  24
ATOM     24  C   UNL     1      -4.393  -5.657   8.224  0.00  0.00    +0.070 A 
ATOM     25  C   UNL     1      -3.647  -5.970   9.352  0.00  0.00    +0.026 A 
ATOM     26  C   UNL     1      -4.278  -6.437  10.489  0.00  0.00    +0.002 A 
ATOM     27  C   UNL     1      -5.651  -6.594  10.505  0.00  0.00    +0.003 A 
ATOM     28  C   UNL     1      -6.399  -6.283   9.384  0.00  0.00    +0.040 A 
ATOM     29  C   UNL     1      -5.775  -5.810   8.245  0.00  0.00    +0.145 A 
ATOM     30  F   UNL     1      -6.506  -5.501   7.151  0.00  0.00    -0.204 F 
ENDBRANCH  22  24
BRANCH   1  31
ATOM     31  C   UNL     1      -0.036  -0.415   0.801  0.00  0.00    +0.054 C 
ATOM     32  C   UNL     1       1.190   0.499   0.795  0.00  0.00    +0.015 C 
BRANCH  31  34
ATOM     33  C   UNL     1      -1.176   0.926  -0.972  0.00  0.00    +0.004 C 
ATOM     34  C   UNL     1      -0.646  -0.461  -0.601  0.00  0.00    +0.007 C 
ENDBRANCH  31  34
ENDBRANCH   1  31
TORSDOF 3
