REMARK  Name = ZINC33960189
REMARK  16 active torsions:
REMARK  status: ('A' for Active; 'I' for Inactive)
REMARK    1  A    between atoms: C_1  and  C_2
REMARK    2  A    between atoms: C_2  and  C_3
REMARK    3  A    between atoms: C_3  and  N_4
REMARK    4  A    between atoms: N_4  and  C_5
REMARK    5  A    between atoms: N_4  and  S_8
REMARK    6  A    between atoms: C_5  and  C_6
REMARK    7  A    between atoms: C_6  and  C_7
REMARK    8  A    between atoms: S_8  and  C_11
REMARK    9  A    between atoms: C_15  and  C_17
REMARK   10  A    between atoms: N_22  and  N_23
REMARK   11  A    between atoms: C_24  and  C_25
REMARK   12  A    between atoms: C_28  and  N_31
REMARK   13  A    between atoms: N_31  and  C_32
REMARK   14  A    between atoms: N_31  and  C_34
REMARK   15  A    between atoms: C_32  and  C_33
REMARK   16  A    between atoms: C_34  and  C_35
REMARK                            x       y       z     vdW  Elec       q    Type
REMARK                         _______ _______ _______ _____ _____    ______ ____
ROOT
ATOM      1  C   UNL     1       0.231  -5.651   3.275  0.00  0.00    +0.080 A 
ATOM      2  C   UNL     1      -0.085  -5.817   4.595  0.00  0.00    +0.077 A 
ATOM      3  S   UNL     1      -0.861  -7.428   4.550  0.00  0.00    -0.059 S 
ATOM      4  C   UNL     1      -0.686  -7.711   2.794  0.00  0.00    +0.178 A 
ATOM      5  N   UNL     1      -0.083  -6.601   2.407  0.00  0.00    -0.224 NA
ATOM      6  N   UNL     1      -1.082  -8.801   2.038  0.00  0.00    -0.215 N 
ATOM      7  H   UNL     1      -0.918  -8.815   1.082  0.00  0.00    +0.176 HD
ENDROOT
BRANCH   1  12
ATOM      8  C   UNL     1       1.772  -3.050   1.042  0.00  0.00    +0.106 A 
ATOM      9  C   UNL     1       2.188  -2.110   1.968  0.00  0.00    +0.028 A 
ATOM     10  C   UNL     1       1.970  -2.318   3.318  0.00  0.00    +0.003 A 
ATOM     11  C   UNL     1       1.335  -3.466   3.748  0.00  0.00    +0.010 A 
ATOM     12  C   UNL     1       0.913  -4.416   2.820  0.00  0.00    +0.003 A 
ATOM     13  C   UNL     1       1.132  -4.198   1.460  0.00  0.00    +0.038 A 
BRANCH   8  14
ATOM     14  S   UNL     1       2.055  -2.776  -0.676  0.00  0.00    +0.061 S 
ATOM     15  O   UNL     1       2.053  -4.054  -1.296  0.00  0.00    -0.153 OA
ATOM     16  O   UNL     1       3.158  -1.885  -0.769  0.00  0.00    -0.153 OA
BRANCH  14  17
ATOM     17  N   UNL     1       0.738  -1.962  -1.265  0.00  0.00    -0.177 NA
BRANCH  17  18
ATOM     18  C   UNL     1       0.718  -0.497  -1.257  0.00  0.00    +0.109 C 
BRANCH  18  20
ATOM     19  C   UNL     1      -0.019   1.526   0.010  0.00  0.00    +0.005 C 
ATOM     20  C   UNL     1       0.002  -0.004   0.002  0.00  0.00    +0.014 C 
ENDBRANCH  18  20
ENDBRANCH  17  18
BRANCH  17  21
ATOM     21  C   UNL     1      -0.407  -2.708  -1.794  0.00  0.00    +0.109 C 
BRANCH  21  22
ATOM     22  C   UNL     1      -0.269  -2.843  -3.312  0.00  0.00    +0.014 C 
ATOM     23  C   UNL     1      -1.465  -3.622  -3.865  0.00  0.00    +0.005 C 
ENDBRANCH  21  22
ENDBRANCH  17  21
ENDBRANCH  14  17
ENDBRANCH   8  14
ENDBRANCH   1  12
BRANCH   6  24
ATOM     24  N   UNL     1      -1.720  -9.886   2.655  0.00  0.00    -0.188 NA
ATOM     25  C   UNL     1      -2.091 -10.909   1.946  0.00  0.00    +0.138 C 
BRANCH  25  26
ATOM     26  C   UNL     1      -2.762 -12.050   2.595  0.00  0.00    -0.005 A 
ATOM     27  C   UNL     1      -3.005 -12.030   3.971  0.00  0.00    +0.011 A 
ATOM     28  C   UNL     1      -3.632 -13.098   4.574  0.00  0.00    +0.024 A 
ATOM     29  C   UNL     1      -4.025 -14.195   3.814  0.00  0.00    +0.030 A 
ATOM     30  C   UNL     1      -3.786 -14.218   2.445  0.00  0.00    +0.024 A 
ATOM     31  C   UNL     1      -3.163 -13.152   1.834  0.00  0.00    +0.011 A 
BRANCH  29  32
ATOM     32  N   UNL     1      -4.660 -15.275   4.428  0.00  0.00    -0.330 N 
BRANCH  32  33
ATOM     33  C   UNL     1      -5.074 -16.432   3.630  0.00  0.00    +0.102 C 
ATOM     34  C   UNL     1      -3.938 -17.455   3.586  0.00  0.00    +0.024 C 
ENDBRANCH  32  33
BRANCH  32  35
ATOM     35  C   UNL     1      -4.913 -15.253   5.871  0.00  0.00    +0.102 C 
ATOM     36  C   UNL     1      -6.282 -14.625   6.139  0.00  0.00    +0.024 C 
ENDBRANCH  32  35
ENDBRANCH  29  32
ENDBRANCH  25  26
ENDBRANCH   6  24
TORSDOF 12
