REMARK  Name = ZINC39920047
REMARK  11 active torsions:
REMARK  status: ('A' for Active; 'I' for Inactive)
REMARK    1  A    between atoms: C_1  and  C_2
REMARK    2  A    between atoms: C_7  and  O_8
REMARK    3  A    between atoms: O_8  and  C_9
REMARK    4  A    between atoms: C_9  and  C_10
REMARK    5  A    between atoms: C_10  and  C_11
REMARK    6  A    between atoms: C_11  and  C_12
REMARK    7  A    between atoms: N_14  and  N_15
REMARK    8  A    between atoms: C_16  and  C_28
REMARK    9  A    between atoms: C_31  and  N_34
REMARK   10  A    between atoms: N_34  and  C_35
REMARK   11  A    between atoms: N_34  and  C_36
REMARK                            x       y       z     vdW  Elec       q    Type
REMARK                         _______ _______ _______ _____ _____    ______ ____
ROOT
ATOM      1  N   UNL     1       0.106   0.647   9.814  0.00  0.00    -0.191 N 
ATOM      2  C   UNL     1       1.495   0.671  10.274  0.00  0.00    +0.212 C 
ATOM      3  N   UNL     1       1.545   0.798  11.736  0.00  0.00    -0.320 N 
ATOM      4  C   UNL     1       0.704   1.720  12.351  0.00  0.00    +0.041 A 
ATOM      5  C   UNL     1       1.047   2.347  13.536  0.00  0.00    +0.025 A 
ATOM      6  C   UNL     1       0.176   3.257  14.105  0.00  0.00    +0.022 A 
ATOM      7  C   UNL     1      -1.037   3.547  13.498  0.00  0.00    +0.042 A 
ATOM      8  C   UNL     1      -1.394   2.929  12.316  0.00  0.00    +0.035 A 
ATOM      9  C   UNL     1      -0.526   2.008  11.734  0.00  0.00    +0.061 A 
ATOM     10  C   UNL     1      -0.861   1.317  10.475  0.00  0.00    +0.267 C 
ATOM     11  O   UNL     1      -1.996   1.346  10.040  0.00  0.00    -0.268 OA
ATOM     12 CL   UNL     1      -2.114   4.695  14.229  0.00  0.00    -0.084 Cl
ATOM     13  H   UNL     1       2.150   0.252  12.261  0.00  0.00    +0.148 HD
ENDROOT
BRANCH   2  14
ATOM     14  C   UNL     1       2.207   1.843   9.650  0.00  0.00    -0.008 A 
ATOM     15  C   UNL     1       3.377   1.641   8.940  0.00  0.00    +0.009 A 
ATOM     16  C   UNL     1       4.032   2.712   8.367  0.00  0.00    +0.023 A 
ATOM     17  C   UNL     1       3.516   3.994   8.503  0.00  0.00    +0.029 A 
ATOM     18  C   UNL     1       2.341   4.194   9.217  0.00  0.00    +0.023 A 
ATOM     19  C   UNL     1       1.687   3.117   9.783  0.00  0.00    +0.009 A 
BRANCH  17  20
ATOM     20  N   UNL     1       4.177   5.081   7.925  0.00  0.00    -0.336 N 
ATOM     21  C   UNL     1       5.416   4.869   7.173  0.00  0.00    +0.129 C 
ATOM     22  C   UNL     1       3.630   6.432   8.070  0.00  0.00    +0.129 C 
ENDBRANCH  17  20
ENDBRANCH   2  14
BRANCH   1  25
ATOM     23  C   UNL     1      -0.443   0.565   7.499  0.00  0.00    +0.229 C 
ATOM     24  O   UNL     1      -0.442   1.778   7.468  0.00  0.00    -0.274 OA
ATOM     25  N   UNL     1      -0.224  -0.079   8.663  0.00  0.00    -0.230 N 
ATOM     26  H   UNL     1      -0.296  -1.046   8.703  0.00  0.00    +0.173 HD
BRANCH  23  27
ATOM     27  C   UNL     1      -0.689  -0.221   6.237  0.00  0.00    +0.100 C 
BRANCH  27  28
ATOM     28  C   UNL     1      -0.907   0.743   5.070  0.00  0.00    +0.050 C 
BRANCH  28  29
ATOM     29  C   UNL     1      -1.157  -0.055   3.789  0.00  0.00    +0.229 C 
BRANCH  29  30
ATOM     30  O   UNL     1      -1.361   0.846   2.698  0.00  0.00    -0.492 OA
BRANCH  30  37
ATOM     31  C   UNL     1      -1.766   2.610   0.530  0.00  0.00    +0.047 C 
ATOM     32  C   UNL     1      -1.804   1.111   0.376  0.00  0.00    -0.007 A 
ATOM     33  C   UNL     1      -2.038   0.549  -0.864  0.00  0.00    +0.027 A 
ATOM     34  C   UNL     1      -2.073  -0.827  -1.006  0.00  0.00    +0.041 A 
ATOM     35  C   UNL     1      -1.873  -1.643   0.094  0.00  0.00    +0.023 A 
ATOM     36  C   UNL     1      -1.638  -1.084   1.336  0.00  0.00    +0.047 A 
ATOM     37  C   UNL     1      -1.597   0.295   1.478  0.00  0.00    +0.123 A 
ATOM     38 CL   UNL     1      -2.368  -1.531  -2.565  0.00  0.00    -0.084 Cl
ENDBRANCH  30  37
ENDBRANCH  29  30
ENDBRANCH  28  29
ENDBRANCH  27  28
ENDBRANCH  23  27
ENDBRANCH   1  25
TORSDOF 8
