REMARK  Name = ZINC41083612
REMARK  3 active torsions:
REMARK  status: ('A' for Active; 'I' for Inactive)
REMARK    1  A    between atoms: C_6  and  C_7
REMARK    2  A    between atoms: C_10  and  C_12
REMARK    3  A    between atoms: C_17  and  C_24
REMARK                            x       y       z     vdW  Elec       q    Type
REMARK                         _______ _______ _______ _____ _____    ______ ____
ROOT
ATOM      1  C   UNL     1      -4.920  -0.859   0.840  0.00  0.00    +0.062 C 
ATOM      2  C   UNL     1      -5.480   0.405   0.730  0.00  0.00    +0.082 C 
ATOM      3  C   UNL     1      -6.952   0.605   0.656  0.00  0.00    +0.136 C 
ATOM      4  N   UNL     1      -7.813  -0.163   1.271  0.00  0.00    -0.284 NA
ATOM      5  N   UNL     1      -7.329   1.707  -0.145  0.00  0.00    -0.233 N 
ATOM      6  C   UNL     1      -8.553   1.869  -0.740  0.00  0.00    +0.056 C 
ATOM      7  C   UNL     1      -8.823   2.992  -1.439  0.00  0.00    +0.072 C 
ATOM      8  S   UNL     1      -7.293   3.904  -1.284  0.00  0.00    -0.062 S 
ATOM      9  C   UNL     1      -6.395   2.704  -0.338  0.00  0.00    +0.163 C 
ATOM     10  N   UNL     1      -5.150   2.716   0.069  0.00  0.00    -0.154 NA
ATOM     11  C   UNL     1      -4.645   1.627   0.687  0.00  0.00    +0.273 C 
ATOM     12  O   UNL     1      -3.534   1.646   1.192  0.00  0.00    -0.268 OA
ATOM     13  H   UNL     1      -7.500  -0.859   1.870  0.00  0.00    +0.188 HD
ENDROOT
BRANCH   6  14
ATOM     14  C   UNL     1      -9.579   0.811  -0.617  0.00  0.00    -0.003 A 
ATOM     15  C   UNL     1     -10.846   1.120  -0.120  0.00  0.00    +0.012 A 
ATOM     16  C   UNL     1     -11.800   0.130  -0.007  0.00  0.00    +0.039 A 
ATOM     17  C   UNL     1     -11.502  -1.169  -0.387  0.00  0.00    +0.123 A 
ATOM     18  C   UNL     1     -10.245  -1.481  -0.880  0.00  0.00    +0.039 A 
ATOM     19  C   UNL     1      -9.286  -0.497  -1.003  0.00  0.00    +0.012 A 
ATOM     20  F   UNL     1     -12.440  -2.135  -0.274  0.00  0.00    -0.205 F 
ENDBRANCH   6  14
BRANCH   1  24
ATOM     21  C   UNL     1      -1.559  -0.711  -0.316  0.00  0.00    +0.136 A 
ATOM     22  C   UNL     1      -1.576  -2.003   0.166  0.00  0.00    +0.050 A 
ATOM     23  C   UNL     1      -2.855  -2.234   0.670  0.00  0.00    +0.050 A 
ATOM     24  C   UNL     1      -3.579  -1.066   0.477  0.00  0.00    +0.129 A 
ATOM     25  O   UNL     1      -2.769  -0.162  -0.115  0.00  0.00    -0.455 OA
BRANCH  21  31
ATOM     26  C   UNL     1      -0.513   1.280  -1.386  0.00  0.00    +0.012 A 
ATOM     27  C   UNL     1       0.571   1.900  -1.969  0.00  0.00    +0.016 A 
ATOM     28  C   UNL     1       1.767   1.218  -2.116  0.00  0.00    +0.018 A 
ATOM     29  C   UNL     1       1.883  -0.091  -1.678  0.00  0.00    +0.016 A 
ATOM     30  C   UNL     1       0.807  -0.724  -1.093  0.00  0.00    +0.012 A 
ATOM     31  C   UNL     1      -0.403  -0.041  -0.942  0.00  0.00    +0.017 A 
ATOM     32 BR   UNL     1       3.249   2.077  -2.918  0.00  0.00    -0.050 Br
ENDBRANCH  21  31
ENDBRANCH   1  24
TORSDOF 3
