REMARK  Name = ZINC27304764
REMARK  5 active torsions:
REMARK  status: ('A' for Active; 'I' for Inactive)
REMARK    1  A    between atoms: C_4  and  C_7
REMARK    2  A    between atoms: C_8  and  C_9
REMARK    3  A    between atoms: C_15  and  S_24
REMARK    4  A    between atoms: S_24  and  O_27
REMARK    5  A    between atoms: O_27  and  C_28
REMARK                            x       y       z     vdW  Elec       q    Type
REMARK                         _______ _______ _______ _____ _____    ______ ____
ROOT
ATOM      1  C   UNL     1      -3.756   0.080  -0.463  0.00  0.00    +0.250 C 
ATOM      2  O   UNL     1      -4.228  -1.034  -0.338  0.00  0.00    -0.270 OA
ATOM      3  N   UNL     1      -2.419   0.248  -0.473  0.00  0.00    -0.202 N 
ATOM      4  C   UNL     1      -1.487  -0.778  -0.349  0.00  0.00    +0.053 A 
ATOM      5  C   UNL     1      -1.510  -2.151  -0.192  0.00  0.00    +0.026 A 
ATOM      6  C   UNL     1      -0.314  -2.862  -0.103  0.00  0.00    +0.033 A 
ATOM      7  C   UNL     1       0.918  -2.269  -0.162  0.00  0.00    +0.136 A 
ATOM      8  C   UNL     1       0.984  -0.875  -0.320  0.00  0.00    +0.013 A 
ATOM      9  C   UNL     1      -0.228  -0.189  -0.407  0.00  0.00    +0.018 A 
ATOM     10  C   UNL     1      -0.341   1.201  -0.567  0.00  0.00    +0.047 A 
ATOM     11  C   UNL     1       0.842   1.916  -0.640  0.00  0.00    +0.014 A 
ATOM     12  C   UNL     1       2.062   1.246  -0.556  0.00  0.00    +0.001 A 
ATOM     13  C   UNL     1       2.161  -0.111  -0.400  0.00  0.00    +0.010 A 
ATOM     14  C   UNL     1      -1.787   1.444  -0.611  0.00  0.00    +0.258 C 
ATOM     15  O   UNL     1      -2.326   2.527  -0.739  0.00  0.00    -0.269 OA
ENDROOT
BRANCH   7  16
ATOM     16  S   UNL     1       2.389  -3.232  -0.041  0.00  0.00    +0.152 S 
ATOM     17  O   UNL     1       2.679  -3.696  -1.352  0.00  0.00    -0.131 OA
ATOM     18  O   UNL     1       3.314  -2.466   0.719  0.00  0.00    -0.131 OA
BRANCH  16  19
ATOM     19  O   UNL     1       2.054  -4.461   0.792  0.00  0.00    -0.340 OA
BRANCH  19  20
ATOM     20  C   UNL     1       1.954  -4.216   2.125  0.00  0.00    +0.183 A 
ATOM     21  C   UNL     1       0.738  -3.947   2.684  0.00  0.00    +0.051 A 
ATOM     22  C   UNL     1       0.616  -3.694   4.048  0.00  0.00    +0.004 A 
ATOM     23  C   UNL     1       1.707  -3.706   4.862  0.00  0.00    +0.010 A 
ATOM     24  C   UNL     1       2.975  -3.978   4.324  0.00  0.00    +0.004 A 
ATOM     25  C   UNL     1       3.106  -4.242   2.939  0.00  0.00    +0.115 A 
ATOM     26  N   UNL     1       4.310  -4.506   2.422  0.00  0.00    -0.251 NA
ATOM     27  C   UNL     1       5.383  -4.532   3.175  0.00  0.00    +0.111 A 
ATOM     28  C   UNL     1       5.324  -4.286   4.545  0.00  0.00    +0.020 A 
ATOM     29  C   UNL     1       4.126  -4.000   5.135  0.00  0.00    +0.011 A 
ENDBRANCH  19  20
ENDBRANCH  16  19
ENDBRANCH   7  16
BRANCH   1  31
ATOM     30  C   UNL     1      -5.978   1.069  -0.591  0.00  0.00    +0.013 C 
ATOM     31  C   UNL     1      -4.639   1.238  -0.601  0.00  0.00    +0.069 C 
BRANCH  30  35
ATOM     32  C   UNL     1      -8.540   4.426  -0.991  0.00  0.00    +0.000 A 
ATOM     33  C   UNL     1      -9.082   3.160  -0.851  0.00  0.00    +0.001 A 
ATOM     34  C   UNL     1      -8.255   2.064  -0.720  0.00  0.00    +0.008 A 
ATOM     35  C   UNL     1      -6.867   2.234  -0.730  0.00  0.00    -0.025 A 
ATOM     36  C   UNL     1      -6.328   3.517  -0.868  0.00  0.00    +0.008 A 
ATOM     37  C   UNL     1      -7.168   4.603  -1.003  0.00  0.00    +0.001 A 
ENDBRANCH  30  35
ENDBRANCH   1  31
TORSDOF 5
