REMARK  Name = ZINC12877252
REMARK  14 active torsions:
REMARK  status: ('A' for Active; 'I' for Inactive)
REMARK    1  A    between atoms: CD1_1  and  CG1_2
REMARK    2  A    between atoms: CG1_2  and  CB_3
REMARK    3  A    between atoms: CB_3  and  CG2_5
REMARK    4  A    between atoms: CB_3  and  CA_6
REMARK    5  A    between atoms: CA_6  and  C_8
REMARK    6  A    between atoms: CA_6  and  N_10
REMARK    7  A    between atoms: C_11  and  C_13
REMARK    8  A    between atoms: C_13  and  O_14
REMARK    9  A    between atoms: O_14  and  N_15
REMARK   10  A    between atoms: C_19  and  C_41
REMARK   11  A    between atoms: C_24  and  C_40
REMARK   12  A    between atoms: C_35  and  C_36
REMARK   13  A    between atoms: C_35  and  O_39
REMARK   14  A    between atoms: C_36  and  C_38
REMARK                            x       y       z     vdW  Elec       q    Type
REMARK                         _______ _______ _______ _____ _____    ______ ____
ROOT
ATOM      1  N   UNK A   0      -4.031  10.600  -2.577  0.00  0.00    -0.089 NA
ATOM      2  C   UNK A   0      -3.634   9.400  -2.294  0.00  0.00    +0.080 C 
ATOM      3  C   UNK A   0      -3.345   8.373  -3.373  0.00  0.00    +0.059 C 
ATOM      4  C   UNK A   0      -1.942   7.821  -3.120  0.00  0.00    +0.017 C 
ATOM      5  C   UNK A   0      -1.779   7.278  -1.723  0.00  0.00    -0.007 C 
ATOM      6  C   UNK A   0      -2.017   5.769  -1.663  0.00  0.00    +0.002 C 
ATOM      7  C   UNK A   0      -1.145   5.062  -2.695  0.00  0.00    +0.005 C 
ATOM      8  C   UNK A   0      -1.240   3.548  -2.579  0.00  0.00    +0.010 C 
ATOM      9  C   UNK A   0      -0.857   3.161  -1.164  0.00  0.00    +0.007 C 
ATOM     10  C   UNK A   0      -1.917   3.780  -0.213  0.00  0.00    +0.002 C 
ATOM     11  C   UNK A   0      -1.712   5.283  -0.236  0.00  0.00    -0.003 C 
ATOM     12  C   UNK A   0      -2.650   5.955   0.768  0.00  0.00    +0.008 C 
ATOM     13  C   UNK A   0      -2.418   7.470   0.766  0.00  0.00    +0.031 C 
ATOM     14  C   UNK A   0      -2.587   7.959  -0.663  0.00  0.00    -0.062 C 
ATOM     15  C   UNK A   0      -3.435   8.949  -0.902  0.00  0.00    +0.026 C 
ATOM     16  C   UNK A   0      -1.601   3.069   1.108  0.00  0.00    +0.008 C 
ATOM     17  C   UNK A   0      -1.340   1.606   0.660  0.00  0.00    +0.043 C 
ATOM     18  C   UNK A   0      -0.911   1.674  -0.827  0.00  0.00    +0.129 C 
ATOM     19  C   UNK A   0       0.528   3.719  -0.830  0.00  0.00    +0.015 C 
ATOM     20  C   UNK A   0      -0.310   7.473  -1.345  0.00  0.00    +0.016 C 
ENDROOT
BRANCH  18  21
ATOM     21  C   UNK A   0       0.449   1.049  -1.008  0.00  0.00    +0.162 C 
ATOM     22  O   UNK A   0       1.207   0.972  -0.071  0.00  0.00    -0.295 OA
ATOM     23  C   UNK A   0       0.864   0.526  -2.358  0.00  0.00    +0.089 C 
ENDBRANCH  18  21
BRANCH  18  24
ATOM     24  O   UNK A   0      -1.872   1.014  -1.653  0.00  0.00    -0.381 OA
ATOM     25  H   UNK A   0      -1.964   0.069  -1.471  0.00  0.00    +0.211 HD
ENDBRANCH  18  24
BRANCH   1  26
ATOM     26  O   UNK A   0      -4.207  10.987  -3.928  0.00  0.00    -0.384 OA
BRANCH  26  27
ATOM     27  C   UNK A   0      -4.647  12.337  -4.093  0.00  0.00    +0.358 C 
BRANCH  27  29
ATOM     28  N   ILE A   1      -5.209  13.861  -5.959  0.00  0.00    -0.299 N 
ATOM     29  C   UNK A   0      -4.801  12.639  -5.561  0.00  0.00    +0.254 C 
ATOM     30  O   UNK A   0      -4.557  11.783  -6.385  0.00  0.00    -0.272 OA
ATOM     31  H   ILE A   1      -5.404  14.545  -5.300  0.00  0.00    +0.150 HD
BRANCH  28  32
ATOM     32  CA  ILE A   1      -5.358  14.155  -7.386  0.00  0.00    +0.189 C 
BRANCH  32  33
ATOM     33  C   ILE A   1      -6.720  13.707  -7.851  0.00  0.00    +0.376 C 
ATOM     34  O   ILE A   1      -7.487  13.195  -7.071  0.00  0.00    -0.244 OA
ATOM     35  OXT ILE A   1      -7.081  13.877  -9.133  0.00  0.00    -0.244 OA
ENDBRANCH  32  33
BRANCH  32  36
ATOM     36  CB  ILE A   1      -5.210  15.660  -7.615  0.00  0.00    +0.017 C 
ATOM     37  CG2 ILE A   1      -6.289  16.404  -6.825  0.00  0.00    +0.010 C 
BRANCH  36  39
ATOM     38  CD1 ILE A   1      -5.096  17.453  -9.351  0.00  0.00    +0.004 C 
ATOM     39  CG1 ILE A   1      -5.366  15.967  -9.106  0.00  0.00    +0.002 C 
ENDBRANCH  36  39
ENDBRANCH  32  36
ENDBRANCH  28  32
ENDBRANCH  27  29
ENDBRANCH  26  27
ENDBRANCH   1  26
TORSDOF 9
