REMARK  Name = ZINC09569221
REMARK  9 active torsions:
REMARK  status: ('A' for Active; 'I' for Inactive)
REMARK    1  A    between atoms: C_1  and  N_2
REMARK    2  A    between atoms: N_2  and  C_3
REMARK    3  A    between atoms: N_2  and  C_4
REMARK    4  A    between atoms: C_7  and  C_10
REMARK    5  A    between atoms: C_10  and  C_12
REMARK    6  A    between atoms: C_10  and  N_60
REMARK    7  A    between atoms: C_12  and  N_13
REMARK    8  A    between atoms: N_13  and  S_14
REMARK    9  A    between atoms: S_14  and  C_17
REMARK                            x       y       z     vdW  Elec       q    Type
REMARK                         _______ _______ _______ _____ _____    ______ ____
ROOT
ATOM      1  C   UNL     1       2.547   0.914  -0.151  0.00  0.00    -0.021 C 
ENDROOT
BRANCH   1  11
ATOM      2  C   UNL     1       3.256   1.677  -2.339  0.00  0.00    -0.073 C 
ATOM      3  C   UNL     1       3.963   2.847  -3.024  0.00  0.00    +0.017 C 
ATOM      4  C   UNL     1       5.387   2.943  -2.539  0.00  0.00    -0.048 A 
ATOM      5  C   UNL     1       6.289   3.692  -3.280  0.00  0.00    +0.004 A 
ATOM      6  C   UNL     1       7.601   3.809  -2.869  0.00  0.00    +0.000 A 
ATOM      7  C   UNL     1       8.019   3.177  -1.712  0.00  0.00    +0.000 A 
ATOM      8  C   UNL     1       7.122   2.430  -0.975  0.00  0.00    +0.002 A 
ATOM      9  C   UNL     1       5.804   2.309  -1.388  0.00  0.00    -0.061 A 
ATOM     10  C   UNL     1       4.865   1.477  -0.555  0.00  0.00    -0.042 C 
ATOM     11  N   UNL     1       3.469   1.811  -0.884  0.00  0.00    +0.388 N 
ATOM     12  H   UNL     1       3.282   2.782  -0.606  0.00  0.00    -0.080 HD
ENDBRANCH   1  11
BRANCH   1  16
ATOM     13  C   UNL     1      -1.452   2.343  -0.632  0.00  0.00    +0.029 A 
ATOM     14  C   UNL     1      -1.192   0.979  -0.661  0.00  0.00    +0.023 A 
ATOM     15  C   UNL     1       0.101   0.520  -0.500  0.00  0.00    +0.004 A 
ATOM     16  C   UNL     1       1.137   1.418  -0.321  0.00  0.00    -0.060 A 
ATOM     17  C   UNL     1       0.882   2.777  -0.296  0.00  0.00    +0.004 A 
ATOM     18  C   UNL     1      -0.409   3.242  -0.452  0.00  0.00    +0.023 A 
BRANCH  13  20
ATOM     19  C   UNL     1      -3.052   4.236  -0.627  0.00  0.00    +0.129 C 
ATOM     20  N   UNL     1      -2.759   2.810  -0.790  0.00  0.00    -0.336 N 
ATOM     21  C   UNL     1      -3.837   1.873  -1.117  0.00  0.00    +0.129 C 
ENDBRANCH  13  20
ENDBRANCH   1  16
BRANCH   1  22
ATOM     22  C   UNL     1       2.915   0.919   1.334  0.00  0.00    +0.095 C 
BRANCH  22  23
ATOM     23  N   UNL     1       2.057  -0.025   2.053  0.00  0.00    -0.191 NA
ATOM     24  H   UNL     1       1.239  -0.347   1.643  0.00  0.00    +0.148 HD
BRANCH  23  25
ATOM     25  S   UNL     1       2.483  -0.544   3.567  0.00  0.00    +0.061 S 
ATOM     26  O   UNL     1       1.451  -1.419   4.002  0.00  0.00    -0.153 OA
ATOM     27  O   UNL     1       3.843  -0.950   3.489  0.00  0.00    -0.153 OA
BRANCH  25  28
ATOM     28  C   UNL     1       2.436   0.859   4.631  0.00  0.00    +0.140 A 
ATOM     29  C   UNL     1       1.516   0.915   5.661  0.00  0.00    +0.034 A 
ATOM     30  C   UNL     1       1.479   2.014   6.497  0.00  0.00    +0.040 A 
ATOM     31  C   UNL     1       2.363   3.062   6.303  0.00  0.00    +0.126 A 
ATOM     32  C   UNL     1       3.285   3.008   5.272  0.00  0.00    +0.078 A 
ATOM     33  C   UNL     1       3.325   1.903   4.439  0.00  0.00    +0.152 A 
ATOM     34  F   UNL     1       4.227   1.847   3.435  0.00  0.00    -0.203 F 
ATOM     35  F   UNL     1       2.327   4.138   7.120  0.00  0.00    -0.205 F 
ENDBRANCH  25  28
ENDBRANCH  23  25
ENDBRANCH  22  23
ENDBRANCH   1  22
TORSDOF 7
