REMARK  Name = ZINC64507176
REMARK  13 active torsions:
REMARK  status: ('A' for Active; 'I' for Inactive)
REMARK    1  A    between atoms: C_1  and  C_2
REMARK    2  A    between atoms: C_2  and  N_3
REMARK    3  A    between atoms: N_3  and  C_4
REMARK    4  A    between atoms: N_3  and  S_6
REMARK    5  A    between atoms: C_4  and  C_5
REMARK    6  A    between atoms: S_6  and  C_9
REMARK    7  A    between atoms: C_16  and  C_20
REMARK    8  A    between atoms: N_18  and  C_19
REMARK    9  A    between atoms: N_22  and  C_23
REMARK   10  A    between atoms: C_23  and  C_24
REMARK   11  A    between atoms: C_24  and  C_25
REMARK   12  A    between atoms: C_28  and  O_34
REMARK   13  A    between atoms: O_34  and  C_35
REMARK                            x       y       z     vdW  Elec       q    Type
REMARK                         _______ _______ _______ _____ _____    ______ ____
ROOT
ATOM      1  C   UNL     1       3.218   0.606   1.484  0.00  0.00    +0.106 A 
ATOM      2  C   UNL     1       3.569   1.489   0.479  0.00  0.00    +0.030 A 
ATOM      3  C   UNL     1       4.270   2.638   0.778  0.00  0.00    +0.025 A 
ATOM      4  C   UNL     1       4.631   2.919   2.098  0.00  0.00    +0.033 A 
ATOM      5  C   UNL     1       4.274   2.028   3.097  0.00  0.00    -0.022 A 
ATOM      6  C   UNL     1       3.566   0.881   2.793  0.00  0.00    +0.034 A 
ATOM      7  C   UNL     1       4.777   2.561   4.419  0.00  0.00    +0.069 C 
ATOM      8  C   UNL     1       5.477   3.882   4.061  0.00  0.00    +0.163 C 
ATOM      9  N   UNL     1       5.332   4.012   2.609  0.00  0.00    -0.321 N 
ATOM     10  C   UNL     1       5.848   5.127   1.810  0.00  0.00    +0.130 C 
ENDROOT
BRANCH   8  11
ATOM     11  C   UNL     1       6.935   3.822   4.439  0.00  0.00    +0.234 C 
ATOM     12  O   UNL     1       7.772   3.592   3.592  0.00  0.00    -0.274 OA
ATOM     13  N   UNL     1       7.308   4.022   5.719  0.00  0.00    -0.313 N 
ATOM     14  H   UNL     1       6.638   4.205   6.396  0.00  0.00    +0.149 HD
BRANCH  13  15
ATOM     15  C   UNL     1       8.725   3.963   6.087  0.00  0.00    +0.108 C 
BRANCH  15  16
ATOM     16  C   UNL     1       8.873   4.223   7.587  0.00  0.00    +0.052 C 
BRANCH  16  17
ATOM     17  C   UNL     1      10.331   4.162   7.965  0.00  0.00    -0.040 C 
ATOM     18  C   UNL     1      11.187   5.203   8.072  0.00  0.00    +0.002 A 
ATOM     19  C   UNL     1      11.027   6.648   7.875  0.00  0.00    +0.055 A 
ATOM     20  C   UNL     1      12.090   7.468   8.057  0.00  0.00    +0.121 A 
ATOM     21  C   UNL     1      13.355   6.984   8.432  0.00  0.00    +0.047 A 
ATOM     22  C   UNL     1      13.601   5.673   8.636  0.00  0.00    +0.029 A 
ATOM     23  C   UNL     1      12.521   4.695   8.467  0.00  0.00    +0.043 A 
ATOM     24  N   UNL     1      12.490   3.392   8.599  0.00  0.00    -0.380 N 
ATOM     25  C   UNL     1      11.130   2.925   8.309  0.00  0.00    +0.144 C 
ATOM     26  H   UNL     1      13.240   2.831   8.851  0.00  0.00    +0.160 HD
BRANCH  20  27
ATOM     27  O   UNL     1      11.927   8.805   7.870  0.00  0.00    -0.495 OA
ATOM     28  C   UNL     1      13.074   9.632   8.073  0.00  0.00    +0.277 C 
ENDBRANCH  20  27
ENDBRANCH  16  17
ENDBRANCH  15  16
ENDBRANCH  13  15
ENDBRANCH   8  11
BRANCH   1  29
ATOM     29  S   UNL     1       2.322  -0.861   1.097  0.00  0.00    +0.061 S 
ATOM     30  O   UNL     1       2.586  -1.786   2.143  0.00  0.00    -0.153 OA
ATOM     31  O   UNL     1       2.594  -1.155  -0.266  0.00  0.00    -0.153 OA
BRANCH  29  32
ATOM     32  N   UNL     1       0.711  -0.489   1.189  0.00  0.00    -0.177 NA
BRANCH  32  34
ATOM     33  C   UNL     1      -0.019   1.526   0.010  0.00  0.00    +0.022 C 
ATOM     34  C   UNL     1       0.002  -0.004   0.002  0.00  0.00    +0.106 C 
ENDBRANCH  32  34
BRANCH  32  35
ATOM     35  C   UNL     1      -0.006  -0.646   2.457  0.00  0.00    +0.106 C 
ATOM     36  C   UNL     1      -0.694  -2.013   2.489  0.00  0.00    +0.022 C 
ENDBRANCH  32  35
ENDBRANCH  29  32
ENDBRANCH   1  29
TORSDOF 9
