REMARK  Name = ZINC06592879
REMARK  10 active torsions:
REMARK  status: ('A' for Active; 'I' for Inactive)
REMARK    1  A    between atoms: C_1  and  C_2
REMARK    2  A    between atoms: C_2  and  C_3
REMARK    3  A    between atoms: C_3  and  C_4
REMARK    4  A    between atoms: C_4  and  C_5
REMARK    5  A    between atoms: C_5  and  C_7
REMARK    6  A    between atoms: C_5  and  N_59
REMARK    7  A    between atoms: C_9  and  C_12
REMARK    8  A    between atoms: N_14  and  C_15
REMARK    9  A    between atoms: C_15  and  C_17
REMARK   10  A    between atoms: C_15  and  C_18
REMARK                            x       y       z     vdW  Elec       q    Type
REMARK                         _______ _______ _______ _____ _____    ______ ____
ROOT
ATOM      1  C   UNL     1      -2.942   0.388   6.463  0.00  0.00    +0.263 C 
ATOM      2  O   UNL     1      -3.491   0.889   7.425  0.00  0.00    -0.269 OA
ATOM      3  N   UNL     1      -3.096  -0.926   6.207  0.00  0.00    -0.307 N 
ATOM      4  H   UNL     1      -2.658  -1.326   5.439  0.00  0.00    +0.149 HD
ENDROOT
BRANCH   1   7
ATOM      5  C   UNL     1      -0.761   1.454   3.743  0.00  0.00    +0.065 A 
ATOM      6  N   UNL     1      -1.499   0.695   4.511  0.00  0.00    -0.241 NA
ATOM      7  C   UNL     1      -2.109   1.218   5.576  0.00  0.00    +0.133 A 
ATOM      8  C   UNL     1      -1.935   2.558   5.812  0.00  0.00    +0.079 A 
ATOM      9  S   UNL     1      -0.897   3.009   4.497  0.00  0.00    -0.081 S 
BRANCH   5  10
ATOM     10  C   UNL     1       0.011   1.072   2.506  0.00  0.00    -0.018 C 
BRANCH  10  13
ATOM     11  H   UNL     1       1.909   1.383   1.772  0.00  0.00    -0.089 HD
ATOM     12  H   UNL     1       1.291   2.682   2.606  0.00  0.00    -0.089 HD
ATOM     13  N   UNL     1       1.358   1.666   2.580  0.00  0.00    +0.384 N 
ATOM     14  H   UNL     1       1.824   1.340   3.435  0.00  0.00    -0.089 HD
ENDBRANCH  10  13
BRANCH  10  15
ATOM     15  C   UNL     1      -0.729   1.579   1.267  0.00  0.00    -0.010 C 
BRANCH  15  16
ATOM     16  C   UNL     1      -0.013   1.086   0.008  0.00  0.00    -0.001 C 
BRANCH  16  18
ATOM     17  C   UNL     1      -0.037   1.099  -2.490  0.00  0.00    +0.004 C 
ATOM     18  C   UNL     1      -0.753   1.593  -1.232  0.00  0.00    -0.003 C 
ENDBRANCH  16  18
ENDBRANCH  15  16
ENDBRANCH  10  15
ENDBRANCH   5  10
ENDBRANCH   1   7
BRANCH   3  19
ATOM     19  C   UNL     1      -3.925  -1.752   7.089  0.00  0.00    +0.076 C 
ATOM     20  C   UNL     1      -3.086  -2.230   8.276  0.00  0.00    +0.028 C 
BRANCH  19  21
ATOM     21  C   UNL     1      -4.447  -2.962   6.312  0.00  0.00    -0.010 C 
ATOM     22  C   UNL     1      -3.265  -3.789   5.802  0.00  0.00    +0.012 C 
ATOM     23  C   UNL     1      -3.787  -5.000   5.025  0.00  0.00    -0.010 C 
ATOM     24  C   UNL     1      -4.653  -5.862   5.947  0.00  0.00    +0.007 C 
ATOM     25  C   UNL     1      -5.835  -5.035   6.457  0.00  0.00    -0.010 C 
ATOM     26  C   UNL     1      -5.312  -3.824   7.234  0.00  0.00    +0.012 C 
ATOM     27  C   UNL     1      -6.673  -4.556   5.270  0.00  0.00    +0.007 C 
ATOM     28  C   UNL     1      -5.807  -3.694   4.349  0.00  0.00    -0.010 C 
ATOM     29  C   UNL     1      -4.626  -4.521   3.838  0.00  0.00    +0.007 C 
ATOM     30  C   UNL     1      -5.285  -2.484   5.125  0.00  0.00    +0.012 C 
ENDBRANCH  19  21
ENDBRANCH   3  19
TORSDOF 8
