REMARK  Name = ZINC20855944
REMARK  7 active torsions:
REMARK  status: ('A' for Active; 'I' for Inactive)
REMARK    1  A    between atoms: C_10  and  C_12
REMARK    2  A    between atoms: C_18  and  C_20
REMARK    3  A    between atoms: C_20  and  O_22
REMARK    4  A    between atoms: O_22  and  C_23
REMARK    5  A    between atoms: C_23  and  C_24
REMARK    6  A    between atoms: N_26  and  C_27
REMARK    7  A    between atoms: C_32  and  N_33
REMARK                            x       y       z     vdW  Elec       q    Type
REMARK                         _______ _______ _______ _____ _____    ______ ____
ROOT
ATOM      1  C   UNL     1      -5.999   2.760  -1.380  0.00  0.00    +0.311 C 
ATOM      2  O   UNL     1      -5.231   3.332  -2.118  0.00  0.00    -0.251 OA
ENDROOT
BRANCH   1   8
ATOM      3  C   UNL     1      -3.959   2.201  -0.085  0.00  0.00    +0.089 C 
ATOM      4  C   UNL     1      -3.433   1.478   1.157  0.00  0.00    +0.013 C 
ATOM      5  C   UNL     1      -4.067   2.087   2.409  0.00  0.00    +0.001 C 
ATOM      6  C   UNL     1      -5.588   1.934   2.336  0.00  0.00    +0.001 C 
ATOM      7  C   UNL     1      -6.114   2.657   1.095  0.00  0.00    +0.015 C 
ATOM      8  C   UNL     1      -5.480   2.048  -0.157  0.00  0.00    +0.110 C 
BRANCH   3  18
ATOM      9  C   UNL     1      -0.662   7.872  -0.384  0.00  0.00    +0.000 A 
ATOM     10  C   UNL     1      -2.028   7.793  -0.180  0.00  0.00    +0.002 A 
ATOM     11  C   UNL     1      -2.647   6.564  -0.099  0.00  0.00    +0.024 A 
ATOM     12  C   UNL     1      -1.903   5.391  -0.233  0.00  0.00    +0.039 A 
ATOM     13  C   UNL     1      -0.535   5.481  -0.438  0.00  0.00    -0.024 A 
ATOM     14  C   UNL     1       0.082   6.715  -0.513  0.00  0.00    +0.005 A 
ATOM     15  C   UNL     1       0.029   4.082  -0.543  0.00  0.00    +0.056 C 
ATOM     16  C   UNL     1      -1.189   3.159  -0.373  0.00  0.00    +0.118 C 
ATOM     17  N   UNL     1      -2.330   4.060  -0.188  0.00  0.00    -0.271 N 
ATOM     18  C   UNL     1      -3.605   3.664  -0.002  0.00  0.00    +0.224 C 
ATOM     19  O   UNL     1      -4.467   4.484   0.231  0.00  0.00    -0.275 OA
ENDBRANCH   3  18
ENDBRANCH   1   8
BRANCH   1  20
ATOM     20  O   UNL     1      -7.314   2.760  -1.649  0.00  0.00    -0.455 OA
BRANCH  20  21
ATOM     21  C   UNL     1      -7.742   3.466  -2.844  0.00  0.00    +0.328 C 
BRANCH  21  22
ATOM     22  C   UNL     1      -9.239   3.358  -2.982  0.00  0.00    +0.255 C 
ATOM     23  O   UNL     1      -9.881   2.746  -2.155  0.00  0.00    -0.272 OA
ATOM     24  N   UNL     1      -9.863   3.941  -4.024  0.00  0.00    -0.281 N 
ATOM     25  H   UNL     1      -9.275   4.427  -4.816  0.00  0.00    +0.155 HD
BRANCH  24  26
ATOM     26  C   UNL     1     -11.261   3.928  -4.099  0.00  0.00    +0.064 A 
ATOM     27  C   UNL     1     -11.971   2.817  -3.663  0.00  0.00    +0.027 A 
ATOM     28  C   UNL     1     -13.350   2.807  -3.737  0.00  0.00    +0.022 A 
ATOM     29  C   UNL     1     -14.024   3.904  -4.245  0.00  0.00    +0.043 A 
ATOM     30  C   UNL     1     -13.320   5.012  -4.680  0.00  0.00    +0.054 A 
ATOM     31  C   UNL     1     -11.941   5.029  -4.603  0.00  0.00    +0.149 A 
ATOM     32 CL   UNL     1     -15.758   3.888  -4.338  0.00  0.00    -0.083 Cl
BRANCH  31  33
ATOM     33  N   UNL     1     -11.188   6.217  -5.063  0.00  0.00    +0.058 N 
ATOM     34  O   UNL     1     -11.786   7.213  -5.428  0.00  0.00    -0.126 OA
ATOM     35  O   UNL     1      -9.970   6.199  -5.076  0.00  0.00    -0.126 OA
ENDBRANCH  31  33
ENDBRANCH  24  26
ENDBRANCH  21  22
ENDBRANCH  20  21
ENDBRANCH   1  20
TORSDOF 7
