REMARK  Name = ZINC02801491
REMARK  6 active torsions:
REMARK  status: ('A' for Active; 'I' for Inactive)
REMARK    1  A    between atoms: C_1  and  C_2
REMARK    2  A    between atoms: C_3  and  C_29
REMARK    3  A    between atoms: C_4  and  C_21
REMARK    4  A    between atoms: C_10  and  C_15
REMARK    5  A    between atoms: C_29  and  O_31
REMARK    6  A    between atoms: O_31  and  C_32
REMARK                            x       y       z     vdW  Elec       q    Type
REMARK                         _______ _______ _______ _____ _____    ______ ____
ROOT
ATOM      1  C   UNL     1       3.753  -0.358  -0.801  0.00  0.00    +0.061 C 
ATOM      2  C   UNL     1       2.428   0.233  -0.397  0.00  0.00    +0.016 C 
ATOM      3  C   UNL     1       1.292  -0.444  -0.642  0.00  0.00    +0.065 C 
ATOM      4  C   UNL     1      -0.045   0.111  -0.247  0.00  0.00    +0.092 C 
ATOM      5  C   UNL     1       0.040   1.594   0.013  0.00  0.00    +0.024 C 
ATOM      6  C   UNL     1       1.231   2.187   0.236  0.00  0.00    +0.016 C 
ATOM      7  N   UNL     1       2.387   1.454   0.216  0.00  0.00    -0.321 N 
ATOM      8  C   UNL     1       1.322   3.667   0.518  0.00  0.00    +0.059 C 
ATOM      9  C   UNL     1       0.194   4.398  -0.214  0.00  0.00    +0.032 C 
ATOM     10  C   UNL     1      -1.145   3.822   0.258  0.00  0.00    +0.088 C 
ATOM     11  C   UNL     1      -1.153   2.338   0.011  0.00  0.00    +0.162 C 
ATOM     12  O   UNL     1      -2.209   1.773  -0.190  0.00  0.00    -0.292 OA
ATOM     13  H   UNL     1       3.290   1.857   0.698  0.00  0.00    +0.152 HD
ENDROOT
BRANCH   4  14
ATOM     14  C   UNL     1      -0.520  -0.585   1.002  0.00  0.00    -0.034 A 
ATOM     15  C   UNL     1      -1.691  -1.320   0.981  0.00  0.00    +0.006 A 
ATOM     16  C   UNL     1      -2.127  -1.959   2.127  0.00  0.00    +0.022 A 
ATOM     17  C   UNL     1      -1.393  -1.862   3.295  0.00  0.00    +0.059 A 
ATOM     18  C   UNL     1      -0.220  -1.126   3.316  0.00  0.00    +0.060 A 
ATOM     19  C   UNL     1       0.218  -0.492   2.167  0.00  0.00    +0.026 A 
ATOM     20 CL   UNL     1       0.703  -1.004   4.781  0.00  0.00    -0.082 Cl
ATOM     21 CL   UNL     1      -1.941  -2.664   4.734  0.00  0.00    -0.082 Cl
ENDBRANCH   4  14
BRANCH   9  22
ATOM     22  C   UNL     1       0.253   5.870   0.107  0.00  0.00    -0.044 A 
ATOM     23  C   UNL     1       0.126   6.298   1.415  0.00  0.00    +0.004 A 
ATOM     24  C   UNL     1       0.185   7.647   1.710  0.00  0.00    +0.000 A 
ATOM     25  C   UNL     1       0.361   8.569   0.695  0.00  0.00    +0.000 A 
ATOM     26  C   UNL     1       0.484   8.141  -0.614  0.00  0.00    +0.000 A 
ATOM     27  C   UNL     1       0.429   6.792  -0.908  0.00  0.00    +0.004 A 
ENDBRANCH   9  22
BRANCH   3  28
ATOM     28  C   UNL     1       1.359  -1.702  -1.285  0.00  0.00    +0.338 C 
ATOM     29  O   UNL     1       2.421  -2.107  -1.719  0.00  0.00    -0.245 OA
BRANCH  28  30
ATOM     30  O   UNL     1       0.246  -2.453  -1.415  0.00  0.00    -0.458 OA
BRANCH  30  31
ATOM     31  C   UNL     1       0.387  -3.713  -2.075  0.00  0.00    +0.177 C 
ATOM     32  C   UNL     1       0.160  -3.531  -3.577  0.00  0.00    +0.044 C 
ATOM     33  C   UNL     1       0.311  -4.880  -4.283  0.00  0.00    +0.004 C 
ATOM     34  C   UNL     1      -0.719  -5.864  -3.727  0.00  0.00    +0.000 C 
ATOM     35  C   UNL     1      -0.492  -6.047  -2.225  0.00  0.00    +0.004 C 
ATOM     36  C   UNL     1      -0.643  -4.698  -1.519  0.00  0.00    +0.044 C 
ENDBRANCH  30  31
ENDBRANCH  28  30
ENDBRANCH   3  28
TORSDOF 5
