REMARK  Name = ZINC34829686
REMARK  12 active torsions:
REMARK  status: ('A' for Active; 'I' for Inactive)
REMARK    1  A    between atoms: C_1  and  C_2
REMARK    2  A    between atoms: C_2  and  C_3
REMARK    3  A    between atoms: C_3  and  C_4
REMARK    4  A    between atoms: C_4  and  C_5
REMARK    5  A    between atoms: C_5  and  C_6
REMARK    6  A    between atoms: C_6  and  C_7
REMARK    7  A    between atoms: C_14  and  C_16
REMARK    8  A    between atoms: C_17  and  C_19
REMARK    9  A    between atoms: C_19  and  N_20
REMARK   10  A    between atoms: C_28  and  C_30
REMARK   11  A    between atoms: C_33  and  O_36
REMARK   12  A    between atoms: O_36  and  C_37
REMARK                            x       y       z     vdW  Elec       q    Type
REMARK                         _______ _______ _______ _____ _____    ______ ____
ROOT
ATOM      1  C   UNL     1       3.242 -10.671  -3.302  0.00  0.00    +0.020 C 
ENDROOT
BRANCH   1  11
ATOM      2  C   UNL     1       2.475  -4.560  -3.634  0.00  0.00    +0.216 C 
ATOM      3  O   UNL     1       2.896  -3.759  -4.442  0.00  0.00    -0.276 OA
ATOM      4  N   UNL     1       2.491  -5.877  -3.921  0.00  0.00    -0.296 N 
ATOM      5  C   UNL     1       2.085  -6.867  -2.913  0.00  0.00    +0.127 C 
ATOM      6  C   UNL     1       3.223  -7.879  -2.733  0.00  0.00    +0.126 C 
ATOM      7  N   UNL     1       3.646  -8.351  -4.059  0.00  0.00    -0.300 N 
ATOM      8  C   UNL     1       4.051  -7.361  -5.067  0.00  0.00    +0.130 C 
ATOM      9  C   UNL     1       2.908  -6.349  -5.249  0.00  0.00    +0.090 C 
ATOM     10  C   UNL     1       3.395  -5.164  -6.085  0.00  0.00    +0.029 C 
ATOM     11  C   UNL     1       3.661  -9.668  -4.346  0.00  0.00    +0.199 C 
ATOM     12  O   UNL     1       4.011 -10.045  -5.444  0.00  0.00    -0.278 OA
BRANCH   2  13
ATOM     13  C   UNL     1       1.936  -4.083  -2.311  0.00  0.00    +0.096 C 
BRANCH  13  14
ATOM     14  C   UNL     1       2.033  -2.558  -2.240  0.00  0.00    +0.009 C 
BRANCH  14  15
ATOM     15  C   UNL     1       1.485  -2.074  -0.896  0.00  0.00    +0.000 C 
BRANCH  15  16
ATOM     16  C   UNL     1       1.581  -0.549  -0.826  0.00  0.00    -0.000 C 
BRANCH  16  18
ATOM     17  C   UNL     1       1.130   1.461   0.589  0.00  0.00    +0.004 C 
ATOM     18  C   UNL     1       1.034  -0.064   0.518  0.00  0.00    -0.003 C 
ENDBRANCH  16  18
ENDBRANCH  15  16
ENDBRANCH  14  15
ENDBRANCH  13  14
ENDBRANCH   2  13
ENDBRANCH   1  11
BRANCH   1  19
ATOM     19  N   UNL     1       3.346 -12.027  -3.857  0.00  0.00    +0.393 N 
ATOM     20  C   UNL     1       4.752 -12.313  -4.173  0.00  0.00    -0.072 C 
ATOM     21  C   UNL     1       4.818 -13.578  -5.047  0.00  0.00    +0.024 C 
ATOM     22  C   UNL     1       3.947 -14.611  -4.410  0.00  0.00    -0.010 A 
ATOM     23  C   UNL     1       3.032 -14.400  -3.422  0.00  0.00    -0.047 A 
ATOM     24  C   UNL     1       2.334 -15.518  -2.973  0.00  0.00    +0.010 A 
ATOM     25  C   UNL     1       2.579 -16.733  -3.518  0.00  0.00    +0.045 A 
ATOM     26  S   UNL     1       3.841 -16.349  -4.724  0.00  0.00    -0.101 S 
ATOM     27  C   UNL     1       2.825 -12.990  -2.879  0.00  0.00    -0.005 C 
ATOM     28  H   UNL     1       2.799 -12.083  -4.702  0.00  0.00    -0.080 HD
BRANCH  27  29
ATOM     29  C   UNL     1       1.355 -12.743  -2.661  0.00  0.00    -0.056 A 
ATOM     30  C   UNL     1       0.541 -12.432  -3.734  0.00  0.00    +0.006 A 
ATOM     31  C   UNL     1      -0.808 -12.204  -3.537  0.00  0.00    +0.046 A 
ATOM     32  C   UNL     1      -1.344 -12.289  -2.260  0.00  0.00    +0.120 A 
ATOM     33  C   UNL     1      -0.525 -12.601  -1.185  0.00  0.00    +0.046 A 
ATOM     34  C   UNL     1       0.821 -12.833  -1.389  0.00  0.00    +0.006 A 
BRANCH  32  35
ATOM     35  O   UNL     1      -2.670 -12.065  -2.063  0.00  0.00    -0.495 OA
ATOM     36  C   UNL     1      -3.154 -12.169  -0.723  0.00  0.00    +0.277 C 
ENDBRANCH  32  35
ENDBRANCH  27  29
ENDBRANCH   1  19
TORSDOF 9
