REMARK  Name = ZINC21242366
REMARK  10 active torsions:
REMARK  status: ('A' for Active; 'I' for Inactive)
REMARK    1  A    between atoms: C_1  and  O_2
REMARK    2  A    between atoms: O_2  and  C_3
REMARK    3  A    between atoms: C_5  and  C_13
REMARK    4  A    between atoms: C_7  and  O_11
REMARK    5  A    between atoms: C_8  and  O_9
REMARK    6  A    between atoms: O_9  and  C_10
REMARK    7  A    between atoms: O_11  and  C_12
REMARK    8  A    between atoms: C_18  and  C_28
REMARK    9  A    between atoms: C_31  and  O_37
REMARK   10  A    between atoms: C_32  and  N_34
REMARK                            x       y       z     vdW  Elec       q    Type
REMARK                         _______ _______ _______ _____ _____    ______ ____
ROOT
ATOM      1  C   UNL     1       0.101   6.076  -0.509  0.00  0.00    +0.032 C 
ATOM      2  C   UNL     1      -0.975   6.978  -1.112  0.00  0.00    +0.059 C 
ATOM      3  C   UNL     1      -0.352   7.911  -2.138  0.00  0.00    +0.017 C 
ATOM      4  C   UNL     1       0.903   8.358  -1.973  0.00  0.00    +0.036 C 
ATOM      5  C   UNL     1       1.634   9.307  -2.893  0.00  0.00    +0.136 C 
ATOM      6  N   UNL     1       0.975   9.532  -4.162  0.00  0.00    -0.331 N 
ATOM      7  C   UNL     1      -0.270  10.152  -4.225  0.00  0.00    +0.049 A 
ATOM      8  C   UNL     1      -0.427  11.396  -4.817  0.00  0.00    +0.025 A 
ATOM      9  C   UNL     1      -1.673  11.999  -4.816  0.00  0.00    +0.002 A 
ATOM     10  C   UNL     1      -2.755  11.370  -4.228  0.00  0.00    +0.002 A 
ATOM     11  C   UNL     1      -2.607  10.120  -3.651  0.00  0.00    +0.025 A 
ATOM     12  C   UNL     1      -1.367   9.507  -3.672  0.00  0.00    +0.052 A 
ATOM     13  N   UNL     1      -1.163   8.221  -3.182  0.00  0.00    -0.316 N 
ATOM     14  C   UNL     1       1.668   7.943  -0.858  0.00  0.00    +0.163 C 
ATOM     15  O   UNL     1       2.793   8.383  -0.723  0.00  0.00    -0.292 OA
ATOM     16  C   UNL     1       1.144   6.978   0.163  0.00  0.00    +0.088 C 
ATOM     17  H   UNL     1       1.457   9.211  -5.097  0.00  0.00    +0.147 HD
ATOM     18  H   UNL     1      -1.717   7.427  -3.704  0.00  0.00    +0.152 HD
ENDROOT
BRANCH   1  21
ATOM     19  C   UNL     1      -0.990   2.941   1.299  0.00  0.00    +0.165 A 
ATOM     20  C   UNL     1      -0.424   3.789   0.358  0.00  0.00    +0.053 A 
ATOM     21  C   UNL     1      -0.516   5.159   0.515  0.00  0.00    -0.036 A 
ATOM     22  C   UNL     1      -1.173   5.690   1.610  0.00  0.00    +0.053 A 
ATOM     23  C   UNL     1      -1.742   4.849   2.555  0.00  0.00    +0.165 A 
ATOM     24  C   UNL     1      -1.656   3.471   2.397  0.00  0.00    +0.204 A 
BRANCH  19  26
ATOM     25  C   UNL     1      -0.206   1.119  -0.013  0.00  0.00    +0.277 C 
ATOM     26  O   UNL     1      -0.899   1.593   1.143  0.00  0.00    -0.491 OA
ENDBRANCH  19  26
BRANCH  24  27
ATOM     27  O   UNL     1      -2.217   2.643   3.320  0.00  0.00    -0.488 OA
ATOM     28  C   UNL     1      -1.396   2.246   4.420  0.00  0.00    +0.277 C 
ENDBRANCH  24  27
BRANCH  23  29
ATOM     29  O   UNL     1      -2.387   5.373   3.631  0.00  0.00    -0.491 OA
ATOM     30  C   UNL     1      -2.441   6.798   3.725  0.00  0.00    +0.277 C 
ENDBRANCH  23  29
ENDBRANCH   1  21
BRANCH   5  31
ATOM     31  C   UNL     1       1.786  10.633  -2.192  0.00  0.00    -0.020 A 
ATOM     32  C   UNL     1       3.047  11.112  -1.887  0.00  0.00    +0.009 A 
ATOM     33  C   UNL     1       3.189  12.328  -1.249  0.00  0.00    +0.048 A 
ATOM     34  C   UNL     1       2.065  13.065  -0.904  0.00  0.00    +0.147 A 
ATOM     35  C   UNL     1       0.801  12.580  -1.206  0.00  0.00    +0.168 A 
ATOM     36  C   UNL     1       0.664  11.364  -1.849  0.00  0.00    +0.042 A 
BRANCH  35  37
ATOM     37  N   UNL     1      -0.400  13.363  -0.838  0.00  0.00    +0.060 N 
ATOM     38  O   UNL     1      -1.509  12.936  -1.103  0.00  0.00    -0.126 OA
ATOM     39  O   UNL     1      -0.279  14.434  -0.271  0.00  0.00    -0.126 OA
ENDBRANCH  35  37
BRANCH  34  40
ATOM     40  O   UNL     1       2.202  14.260  -0.271  0.00  0.00    -0.504 OA
ATOM     41  H   UNL     1       1.310  14.843   0.002  0.00  0.00    +0.292 HD
ENDBRANCH  34  40
ENDBRANCH   5  31
TORSDOF 7
