REMARK  Name = ZINC08791841
REMARK  10 active torsions:
REMARK  status: ('A' for Active; 'I' for Inactive)
REMARK    1  A    between atoms: C_1  and  C_2
REMARK    2  A    between atoms: C_2  and  C_4
REMARK    3  A    between atoms: C_2  and  N_12
REMARK    4  A    between atoms: C_4  and  C_5
REMARK    5  A    between atoms: C_5  and  C_6
REMARK    6  A    between atoms: C_15  and  C_22
REMARK    7  A    between atoms: C_16  and  O_21
REMARK    8  A    between atoms: C_29  and  O_30
REMARK    9  A    between atoms: O_30  and  C_31
REMARK   10  A    between atoms: C_37  and  N_64
REMARK                            x       y       z     vdW  Elec       q    Type
REMARK                         _______ _______ _______ _____ _____    ______ ____
ROOT
ATOM      1  N   UNL     1       0.961   3.074  -0.382  0.00  0.00    -0.258 N 
ATOM      2  C   UNL     1      -0.125   3.850  -0.568  0.00  0.00    +0.262 A 
ATOM      3  O   UNL     1       0.004   5.031  -0.840  0.00  0.00    -0.267 OA
ATOM      4  C   UNL     1      -1.408   3.288  -0.446  0.00  0.00    +0.067 A 
ATOM      5  C   UNL     1      -1.526   1.963  -0.147  0.00  0.00    +0.201 A 
ATOM      6  N   UNL     1      -0.394   1.210   0.039  0.00  0.00    -0.278 N 
ATOM      7  H   UNL     1      -0.472   0.268   0.256  0.00  0.00    +0.173 HD
ATOM      8  C   UNL     1       0.824   1.769  -0.083  0.00  0.00    +0.332 A 
ATOM      9  O   UNL     1       1.816   1.085   0.081  0.00  0.00    -0.246 OA
ENDROOT
BRANCH   4  10
ATOM     10  C   UNL     1      -2.637   4.137  -0.650  0.00  0.00    +0.007 C 
ATOM     11  C   UNL     1      -2.650   4.661  -2.062  0.00  0.00    -0.008 A 
ATOM     12  C   UNL     1      -2.998   5.964  -2.351  0.00  0.00    -0.040 A 
ATOM     13  C   UNL     1      -3.002   6.404  -3.666  0.00  0.00    +0.053 A 
ATOM     14  C   UNL     1      -2.657   5.546  -4.696  0.00  0.00    +0.170 A 
ATOM     15  C   UNL     1      -2.303   4.232  -4.409  0.00  0.00    +0.208 A 
ATOM     16  C   UNL     1      -2.300   3.794  -3.092  0.00  0.00    +0.167 A 
ATOM     17  O   UNL     1      -2.007   3.594  -5.580  0.00  0.00    -0.449 OA
ATOM     18  C   UNL     1      -2.579   4.411  -6.618  0.00  0.00    +0.467 C 
ATOM     19  O   UNL     1      -2.586   5.733  -6.047  0.00  0.00    -0.452 OA
ATOM     20  C   UNL     1      -3.379   6.939  -1.267  0.00  0.00    +0.017 C 
ATOM     21  C   UNL     1      -3.718   6.185   0.019  0.00  0.00    -0.073 C 
ATOM     22  C   UNL     1      -2.709   4.748   1.690  0.00  0.00    -0.095 C 
ATOM     23  N   UNL     1      -2.604   5.258   0.304  0.00  0.00    +0.386 N 
ATOM     24  H   UNL     1      -1.714   5.761   0.200  0.00  0.00    -0.081 HD
BRANCH  16  25
ATOM     25  O   UNL     1      -1.953   2.510  -2.807  0.00  0.00    -0.491 OA
ATOM     26  C   UNL     1      -2.977   1.520  -2.925  0.00  0.00    +0.277 C 
ENDBRANCH  16  25
ENDBRANCH   4  10
BRANCH   1  28
ATOM     27  C   UNL     1       3.055   3.485   0.812  0.00  0.00    +0.031 C 
ATOM     28  C   UNL     1       2.300   3.654  -0.508  0.00  0.00    +0.092 C 
BRANCH  28  29
ATOM     29  C   UNL     1       3.063   2.941  -1.626  0.00  0.00    +0.030 C 
BRANCH  29  30
ATOM     30  C   UNL     1       2.358   3.189  -2.962  0.00  0.00    +0.037 C 
BRANCH  30  31
ATOM     31  C   UNL     1       3.041   2.394  -4.045  0.00  0.00    -0.047 A 
ATOM     32  C   UNL     1       4.083   2.953  -4.760  0.00  0.00    +0.003 A 
ATOM     33  C   UNL     1       4.713   2.222  -5.750  0.00  0.00    +0.000 A 
ATOM     34  C   UNL     1       4.293   0.936  -6.032  0.00  0.00    +0.000 A 
ATOM     35  C   UNL     1       3.248   0.378  -5.320  0.00  0.00    +0.000 A 
ATOM     36  C   UNL     1       2.622   1.107  -4.326  0.00  0.00    +0.003 A 
ENDBRANCH  30  31
ENDBRANCH  29  30
ENDBRANCH  28  29
ENDBRANCH   1  28
BRANCH   5  37
ATOM     37  O   UNL     1      -2.746   1.398  -0.029  0.00  0.00    -0.493 OA
ATOM     38  H   UNL     1      -2.723   0.456   0.189  0.00  0.00    +0.294 HD
ENDBRANCH   5  37
TORSDOF 7
