REMARK  Name = ZINC33912832
REMARK  9 active torsions:
REMARK  status: ('A' for Active; 'I' for Inactive)
REMARK    1  A    between atoms: C_1  and  C_2
REMARK    2  A    between atoms: C_5  and  N_9
REMARK    3  A    between atoms: C_14  and  C_32
REMARK    4  A    between atoms: C_17  and  C_22
REMARK    5  A    between atoms: C_17  and  C_29
REMARK    6  A    between atoms: C_22  and  C_23
REMARK    7  A    between atoms: C_34  and  C_40
REMARK    8  A    between atoms: C_35  and  O_39
REMARK    9  A    between atoms: C_36  and  C_38
REMARK                            x       y       z     vdW  Elec       q    Type
REMARK                         _______ _______ _______ _____ _____    ______ ____
ROOT
ATOM      1  N   UNL     1      -0.157  -4.327   0.886  0.00  0.00    -0.210 N 
ATOM      2  C   UNL     1       0.011  -4.737  -0.413  0.00  0.00    +0.229 C 
ATOM      3  O   UNL     1       0.264  -4.050  -1.379  0.00  0.00    -0.275 OA
ATOM      4  C   UNL     1      -0.181  -6.166  -0.376  0.00  0.00    +0.077 C 
ATOM      5  C   UNL     1       0.134  -7.377  -1.155  0.00  0.00    -0.027 C 
ATOM      6  N   UNL     1      -0.255  -8.473  -0.203  0.00  0.00    +0.395 N 
ATOM      7  C   UNL     1      -0.214  -7.913   1.181  0.00  0.00    +0.048 C 
ATOM      8  C   UNL     1       0.444  -6.533   1.029  0.00  0.00    +0.086 C 
ATOM      9  C   UNL     1      -0.143  -5.366   1.773  0.00  0.00    +0.229 C 
ATOM     10  O   UNL     1      -0.527  -5.351   2.923  0.00  0.00    -0.275 OA
ATOM     11  H   UNL     1      -1.188  -8.795  -0.414  0.00  0.00    -0.083 HD
ATOM     12  H   UNL     1       0.397  -9.240  -0.280  0.00  0.00    -0.083 HD
ENDROOT
BRANCH   1  17
ATOM     13  C   UNL     1      -0.815   1.102   2.407  0.00  0.00    +0.045 C 
ATOM     14  C   UNL     1      -0.640  -0.340   2.004  0.00  0.00    -0.032 A 
ATOM     15  C   UNL     1      -0.482  -0.669   0.670  0.00  0.00    +0.006 A 
ATOM     16  C   UNL     1      -0.322  -1.989   0.297  0.00  0.00    +0.024 A 
ATOM     17  C   UNL     1      -0.319  -2.987   1.262  0.00  0.00    +0.045 A 
ATOM     18  C   UNL     1      -0.478  -2.655   2.600  0.00  0.00    +0.044 A 
ATOM     19  C   UNL     1      -0.633  -1.331   2.969  0.00  0.00    +0.046 A 
ATOM     20 CL   UNL     1      -0.825  -0.913   4.643  0.00  0.00    -0.083 Cl
ENDBRANCH   1  17
BRANCH   5  21
ATOM     21  C   UNL     1      -0.695  -7.437  -2.412  0.00  0.00    -0.060 A 
ATOM     22  C   UNL     1      -2.045  -7.724  -2.336  0.00  0.00    +0.009 A 
ATOM     23  C   UNL     1      -2.806  -7.781  -3.488  0.00  0.00    -0.009 A 
ATOM     24  C   UNL     1      -2.215  -7.548  -4.721  0.00  0.00    +0.123 A 
ATOM     25  C   UNL     1      -0.860  -7.259  -4.795  0.00  0.00    -0.009 A 
ATOM     26  C   UNL     1      -0.104  -7.199  -3.640  0.00  0.00    +0.009 A 
ATOM     27  C   UNL     1      -0.214  -7.006  -6.133  0.00  0.00    +0.047 C 
ATOM     28  C   UNL     1      -4.277  -8.095  -3.404  0.00  0.00    +0.047 C 
BRANCH  24  29
ATOM     29  O   UNL     1      -2.961  -7.603  -5.855  0.00  0.00    -0.506 OA
ATOM     30  H   UNL     1      -3.357  -6.758  -6.107  0.00  0.00    +0.292 HD
ENDBRANCH  24  29
ENDBRANCH   5  21
BRANCH   7  31
ATOM     31  C   UNL     1       0.631  -8.785   2.073  0.00  0.00    +0.346 C 
ATOM     32  O   UNL     1       1.139  -9.800   1.628  0.00  0.00    -0.248 OA
ATOM     33  O   UNL     1       0.807  -8.476   3.239  0.00  0.00    -0.248 OA
ENDBRANCH   7  31
BRANCH   7  34
ATOM     34  C   UNL     1      -1.631  -7.792   1.746  0.00  0.00    +0.003 C 
BRANCH  34  35
ATOM     35  C   UNL     1      -2.179  -9.188   2.050  0.00  0.00    -0.012 C 
ATOM     36  C   UNL     1      -2.268  -9.995   0.754  0.00  0.00    +0.003 C 
ATOM     37  C   UNL     1      -2.817 -11.391   1.059  0.00  0.00    +0.000 C 
ATOM     38  C   UNL     1      -4.210 -11.267   1.679  0.00  0.00    +0.000 C 
ATOM     39  C   UNL     1      -4.121 -10.460   2.976  0.00  0.00    +0.000 C 
ATOM     40  C   UNL     1      -3.572  -9.064   2.671  0.00  0.00    +0.003 C 
ENDBRANCH  34  35
ENDBRANCH   7  34
TORSDOF 6
