REMARK  Name = ZINC35917597
REMARK  13 active torsions:
REMARK  status: ('A' for Active; 'I' for Inactive)
REMARK    1  A    between atoms: C_1  and  C_2
REMARK    2  A    between atoms: C_4  and  O_11
REMARK    3  A    between atoms: C_7  and  C_8
REMARK    4  A    between atoms: C_8  and  C_9
REMARK    5  A    between atoms: C_8  and  C_10
REMARK    6  A    between atoms: O_11  and  C_12
REMARK    7  A    between atoms: C_12  and  C_14
REMARK    8  A    between atoms: C_12  and  C_25
REMARK    9  A    between atoms: C_14  and  C_15
REMARK   10  A    between atoms: C_15  and  N_16
REMARK   11  A    between atoms: N_16  and  C_17
REMARK   12  A    between atoms: N_16  and  C_18
REMARK   13  A    between atoms: C_18  and  C_19
REMARK                            x       y       z     vdW  Elec       q    Type
REMARK                         _______ _______ _______ _____ _____    ______ ____
ROOT
ATOM      1  C   UNL     1      -0.074  -4.176  -2.365  0.00  0.00    +0.202 C 
ENDROOT
BRANCH   1   2
ATOM      2  C   UNL     1      -1.425  -4.775  -2.072  0.00  0.00    -0.004 A 
ATOM      3  C   UNL     1      -2.560  -4.227  -2.641  0.00  0.00    +0.011 A 
ATOM      4  C   UNL     1      -3.802  -4.773  -2.376  0.00  0.00    +0.050 A 
ATOM      5  C   UNL     1      -3.913  -5.871  -1.538  0.00  0.00    +0.166 A 
ATOM      6  C   UNL     1      -2.769  -6.422  -0.964  0.00  0.00    +0.167 A 
ATOM      7  C   UNL     1      -1.527  -5.873  -1.239  0.00  0.00    +0.056 A 
ATOM      8  O   UNL     1      -3.139  -7.482  -0.188  0.00  0.00    -0.453 OA
ATOM      9  C   UNL     1      -4.553  -7.323   0.033  0.00  0.00    +0.466 C 
ATOM     10  O   UNL     1      -4.998  -6.586  -1.121  0.00  0.00    -0.453 OA
ENDBRANCH   1   2
BRANCH   1  11
ATOM     11  O   UNL     1      -0.176  -2.751  -2.376  0.00  0.00    -0.484 OA
BRANCH  11  15
ATOM     12  C   UNL     1       0.058   1.419   0.150  0.00  0.00    +0.044 C 
ATOM     13  C   UNL     1       0.034  -0.087   0.093  0.00  0.00    -0.044 A 
ATOM     14  C   UNL     1      -0.061  -0.730  -1.126  0.00  0.00    +0.049 A 
ATOM     15  C   UNL     1      -0.083  -2.116  -1.178  0.00  0.00    +0.122 A 
ATOM     16  C   UNL     1      -0.009  -2.853  -0.005  0.00  0.00    +0.046 A 
ATOM     17  C   UNL     1       0.086  -2.205   1.211  0.00  0.00    +0.008 A 
ATOM     18  C   UNL     1       0.112  -0.823   1.260  0.00  0.00    -0.042 A 
BRANCH  18  19
ATOM     19  C   UNL     1       0.222  -0.119   2.588  0.00  0.00    +0.013 C 
ATOM     20  C   UNL     1      -1.014  -0.431   3.434  0.00  0.00    +0.012 C 
ATOM     21  C   UNL     1       1.476  -0.603   3.320  0.00  0.00    +0.012 C 
ENDBRANCH  18  19
ENDBRANCH  11  15
ENDBRANCH   1  11
BRANCH   1  22
ATOM     22  C   UNL     1       0.415  -4.663  -3.730  0.00  0.00    +0.031 C 
BRANCH  22  23
ATOM     23  C   UNL     1       1.838  -4.157  -3.973  0.00  0.00    -0.075 C 
BRANCH  23  24
ATOM     24  N   UNL     1       2.307  -4.625  -5.284  0.00  0.00    +0.381 N 
ATOM     25  C   UNL     1       2.412  -6.090  -5.273  0.00  0.00    -0.096 C 
ATOM     26  H   UNL     1       1.651  -4.340  -5.997  0.00  0.00    -0.082 HD
BRANCH  24  27
ATOM     27  C   UNL     1       3.624  -4.041  -5.570  0.00  0.00    -0.043 C 
BRANCH  27  28
ATOM     28  C   UNL     1       4.051  -4.421  -6.964  0.00  0.00    -0.064 A 
ATOM     29  C   UNL     1       4.770  -5.583  -7.175  0.00  0.00    +0.002 A 
ATOM     30  C   UNL     1       5.161  -5.931  -8.454  0.00  0.00    +0.000 A 
ATOM     31  C   UNL     1       4.832  -5.119  -9.523  0.00  0.00    +0.000 A 
ATOM     32  C   UNL     1       4.112  -3.958  -9.313  0.00  0.00    +0.000 A 
ATOM     33  C   UNL     1       3.717  -3.612  -8.034  0.00  0.00    +0.002 A 
ENDBRANCH  27  28
ENDBRANCH  24  27
ENDBRANCH  23  24
ENDBRANCH  22  23
ENDBRANCH   1  22
TORSDOF 9
