REMARK  Name = ZINC54616503
REMARK  14 active torsions:
REMARK  status: ('A' for Active; 'I' for Inactive)
REMARK    1  A    between atoms: C_1  and  C_2
REMARK    2  A    between atoms: C_2  and  C_3
REMARK    3  A    between atoms: C_3  and  S_4
REMARK    4  A    between atoms: S_4  and  C_5
REMARK    5  A    between atoms: C_10  and  C_27
REMARK    6  A    between atoms: C_12  and  C_16
REMARK    7  A    between atoms: C_13  and  C_15
REMARK    8  A    between atoms: N_18  and  C_19
REMARK    9  A    between atoms: C_23  and  C_26
REMARK   10  A    between atoms: C_24  and  C_25
REMARK   11  A    between atoms: C_31  and  O_33
REMARK   12  A    between atoms: O_33  and  C_34
REMARK   13  A    between atoms: C_34  and  C_35
REMARK   14  A    between atoms: C_34  and  C_36
REMARK                            x       y       z     vdW  Elec       q    Type
REMARK                         _______ _______ _______ _____ _____    ______ ____
ROOT
ATOM      1  C   UNL     1       1.349  -3.780  -4.693  0.00  0.00    +0.210 A 
ATOM      2  N   UNL     1       1.766  -2.721  -5.402  0.00  0.00    -0.187 NA
ATOM      3  C   UNL     1       2.615  -3.113  -6.313  0.00  0.00    +0.219 A 
ATOM      4  N   UNL     1       2.765  -4.456  -6.199  0.00  0.00    -0.220 N 
ATOM      5  N   UNL     1       1.943  -4.862  -5.149  0.00  0.00    -0.141 NA
ATOM      6  C   UNL     1       3.651  -5.245  -7.051  0.00  0.00    +0.177 C 
ATOM      7  C   UNL     1       4.106  -4.406  -8.215  0.00  0.00    +0.060 C 
ATOM      8  C   UNL     1       3.926  -3.078  -8.274  0.00  0.00    +0.018 C 
ATOM      9  N   UNL     1       3.297  -2.379  -7.273  0.00  0.00    -0.287 N 
ATOM     10  C   UNL     1       4.431  -2.328  -9.480  0.00  0.00    +0.061 C 
ATOM     11  H   UNL     1       3.328  -1.410  -7.239  0.00  0.00    +0.155 HD
ENDROOT
BRANCH   6  12
ATOM     12  C   UNL     1       4.849  -5.691  -6.253  0.00  0.00    -0.015 A 
ATOM     13  C   UNL     1       5.683  -4.750  -5.676  0.00  0.00    +0.006 A 
ATOM     14  C   UNL     1       6.784  -5.156  -4.944  0.00  0.00    +0.004 A 
ATOM     15  C   UNL     1       7.053  -6.502  -4.788  0.00  0.00    +0.045 A 
ATOM     16  C   UNL     1       6.218  -7.447  -5.366  0.00  0.00    +0.121 A 
ATOM     17  C   UNL     1       5.111  -7.037  -6.095  0.00  0.00    +0.051 A 
BRANCH  16  18
ATOM     18  O   UNL     1       6.481  -8.771  -5.213  0.00  0.00    -0.489 OA
BRANCH  18  19
ATOM     19  C   UNL     1       5.516  -9.688  -5.734  0.00  0.00    +0.167 C 
ATOM     20  C   UNL     1       5.778  -9.913  -7.224  0.00  0.00    +0.051 C 
ATOM     21  C   UNL     1       5.626 -11.021  -4.990  0.00  0.00    +0.051 C 
ENDBRANCH  18  19
ENDBRANCH  16  18
ENDBRANCH   6  12
BRANCH   7  22
ATOM     22  C   UNL     1       4.754  -5.048  -9.296  0.00  0.00    +0.248 C 
ATOM     23  O   UNL     1       4.097  -5.615 -10.150  0.00  0.00    -0.270 OA
ATOM     24  N   UNL     1       6.099  -5.031  -9.381  0.00  0.00    -0.281 N 
ATOM     25  H   UNL     1       6.625  -4.624  -8.675  0.00  0.00    +0.155 HD
BRANCH  24  26
ATOM     26  C   UNL     1       6.737  -5.601 -10.488  0.00  0.00    +0.037 A 
ATOM     27  C   UNL     1       6.135  -6.647 -11.176  0.00  0.00    +0.023 A 
ATOM     28  C   UNL     1       6.767  -7.207 -12.268  0.00  0.00    +0.002 A 
ATOM     29  C   UNL     1       7.999  -6.729 -12.677  0.00  0.00    +0.004 A 
ATOM     30  C   UNL     1       8.601  -5.688 -11.994  0.00  0.00    -0.046 A 
ATOM     31  C   UNL     1       7.971  -5.119 -10.904  0.00  0.00    -0.026 A 
ATOM     32  C   UNL     1       8.625  -3.981 -10.164  0.00  0.00    +0.046 C 
ATOM     33  C   UNL     1       9.943  -5.170 -12.443  0.00  0.00    +0.044 C 
ENDBRANCH  24  26
ENDBRANCH   7  22
BRANCH   1  34
ATOM     34  S   UNL     1       0.198  -3.730  -3.360  0.00  0.00    -0.084 S 
BRANCH  34  35
ATOM     35  C   UNL     1      -0.244  -1.976  -3.228  0.00  0.00    +0.077 C 
BRANCH  35  37
ATOM     36  C   UNL     1      -1.625  -0.308  -1.981  0.00  0.00    +0.004 C 
ATOM     37  C   UNL     1      -1.252  -1.788  -2.092  0.00  0.00    +0.008 C 
ENDBRANCH  35  37
ENDBRANCH  34  35
ENDBRANCH   1  34
TORSDOF 8
