REMARK  Name = ZINC19194246
REMARK  10 active torsions:
REMARK  status: ('A' for Active; 'I' for Inactive)
REMARK    1  A    between atoms: C_1  and  C_2
REMARK    2  A    between atoms: C_2  and  O_3
REMARK    3  A    between atoms: O_3  and  C_4
REMARK    4  A    between atoms: C_4  and  C_6
REMARK    5  A    between atoms: C_7  and  C_19
REMARK    6  A    between atoms: C_12  and  C_14
REMARK    7  A    between atoms: C_19  and  O_20
REMARK    8  A    between atoms: O_20  and  C_21
REMARK    9  A    between atoms: C_21  and  C_23
REMARK   10  A    between atoms: C_24  and  C_33
REMARK                            x       y       z     vdW  Elec       q    Type
REMARK                         _______ _______ _______ _____ _____    ______ ____
ROOT
ATOM      1  C   UNL     1       2.221  -2.149  -1.484  0.00  0.00    +0.084 C 
ATOM      2  C   UNL     1       3.497  -2.550  -1.666  0.00  0.00    +0.061 C 
ATOM      3  N   UNL     1       4.372  -2.617  -0.619  0.00  0.00    -0.269 N 
ATOM      4  C   UNL     1       4.047  -2.300   0.640  0.00  0.00    +0.305 C 
ATOM      5  O   UNL     1       4.895  -2.391   1.506  0.00  0.00    -0.252 OA
ATOM      6  N   UNL     1       2.812  -1.882   0.979  0.00  0.00    -0.285 N 
ATOM      7  C   UNL     1       1.793  -1.776  -0.079  0.00  0.00    +0.179 C 
ATOM      8  H   UNL     1       5.408  -2.946  -0.788  0.00  0.00    +0.156 HD
ATOM      9  H   UNL     1       2.555  -1.623   2.017  0.00  0.00    +0.151 HD
ENDROOT
BRANCH   7  10
ATOM     10  C   UNL     1       1.299  -0.352  -0.107  0.00  0.00    +0.130 A 
ATOM     11  C   UNL     1       0.011   0.033  -0.145  0.00  0.00    +0.047 A 
ATOM     12  C   UNL     1       0.006   1.446  -0.160  0.00  0.00    +0.041 A 
ATOM     13  C   UNL     1       1.291   1.841  -0.130  0.00  0.00    +0.195 A 
ATOM     14  O   UNL     1       2.070   0.747  -0.097  0.00  0.00    -0.466 OA
ENDBRANCH   7  10
BRANCH   1  15
ATOM     15  C   UNL     1       1.314  -2.080  -2.567  0.00  0.00    +0.339 C 
ATOM     16  O   UNL     1       1.705  -2.281  -3.702  0.00  0.00    -0.245 OA
BRANCH  15  17
ATOM     17  O   UNL     1       0.015  -1.790  -2.343  0.00  0.00    -0.462 OA
BRANCH  17  19
ATOM     18  C   UNL     1      -2.267  -1.398  -3.034  0.00  0.00    +0.048 C 
ATOM     19  C   UNL     1      -0.844  -1.737  -3.483  0.00  0.00    +0.229 C 
ENDBRANCH  17  19
ENDBRANCH  15  17
ENDBRANCH   1  15
BRANCH   2  20
ATOM     20  C   UNL     1       3.965  -2.930  -3.048  0.00  0.00    +0.283 C 
BRANCH  20  21
ATOM     21  O   UNL     1       5.325  -3.433  -2.977  0.00  0.00    -0.455 OA
BRANCH  21  22
ATOM     22  C   UNL     1       5.896  -3.819  -4.137  0.00  0.00    +0.347 C 
ATOM     23  O   UNL     1       5.273  -3.738  -5.178  0.00  0.00    -0.244 OA
BRANCH  22  24
ATOM     24  C   UNL     1       7.269  -4.337  -4.142  0.00  0.00    +0.100 A 
ATOM     25  C   UNL     1       8.006  -4.776  -5.198  0.00  0.00    -0.019 A 
ATOM     26  C   UNL     1       9.318  -5.236  -4.994  0.00  0.00    +0.028 A 
ATOM     27  C   UNL     1      10.238  -5.726  -5.961  0.00  0.00    +0.132 A 
ATOM     28  C   UNL     1      11.488  -6.142  -5.586  0.00  0.00    +0.039 A 
ATOM     29  C   UNL     1      11.898  -6.101  -4.259  0.00  0.00    +0.004 A 
ATOM     30  C   UNL     1      11.032  -5.631  -3.293  0.00  0.00    +0.016 A 
ATOM     31  C   UNL     1       9.770  -5.208  -3.654  0.00  0.00    +0.023 A 
ATOM     32  S   UNL     1       8.381  -4.553  -2.763  0.00  0.00    -0.081 S 
ATOM     33  F   UNL     1       9.876  -5.782  -7.261  0.00  0.00    -0.205 F 
ATOM     34  C   UNL     1       7.417  -4.766  -6.585  0.00  0.00    +0.046 C 
ENDBRANCH  22  24
ENDBRANCH  21  22
ENDBRANCH  20  21
ENDBRANCH   2  20
TORSDOF 8
