REMARK  Name = ZINC67017480
REMARK  10 active torsions:
REMARK  status: ('A' for Active; 'I' for Inactive)
REMARK    1  A    between atoms: C_1  and  C_2
REMARK    2  A    between atoms: C_2  and  C_4
REMARK    3  A    between atoms: C_2  and  N_15
REMARK    4  A    between atoms: C_8  and  S_10
REMARK    5  A    between atoms: S_10  and  N_13
REMARK    6  A    between atoms: N_13  and  C_14
REMARK    7  A    between atoms: N_18  and  C_19
REMARK    8  A    between atoms: N_23  and  C_24
REMARK    9  A    between atoms: C_24  and  C_25
REMARK   10  A    between atoms: C_24  and  C_26
REMARK                            x       y       z     vdW  Elec       q    Type
REMARK                         _______ _______ _______ _____ _____    ______ ____
ROOT
ATOM      1  C   UNL     1      -0.019   1.526   0.010  0.00  0.00    +0.033 C 
ATOM      2  C   UNL     1       0.002  -0.004   0.002  0.00  0.00    +0.102 C 
ENDROOT
BRANCH   2   3
ATOM      3  C   UNL     1       0.707  -0.490  -1.238  0.00  0.00    -0.026 A 
ATOM      4  C   UNL     1       0.037  -0.522  -2.447  0.00  0.00    +0.005 A 
ATOM      5  C   UNL     1       0.684  -0.967  -3.584  0.00  0.00    +0.002 A 
ATOM      6  C   UNL     1       2.002  -1.381  -3.513  0.00  0.00    +0.028 A 
ATOM      7  C   UNL     1       2.672  -1.349  -2.304  0.00  0.00    +0.106 A 
ATOM      8  C   UNL     1       2.026  -0.899  -1.167  0.00  0.00    +0.034 A 
BRANCH   7   9
ATOM      9  S   UNL     1       4.350  -1.877  -2.213  0.00  0.00    +0.058 S 
ATOM     10  O   UNL     1       4.582  -2.263  -0.865  0.00  0.00    -0.153 OA
ATOM     11  O   UNL     1       4.558  -2.762  -3.306  0.00  0.00    -0.153 OA
BRANCH   9  12
ATOM     12  N   UNL     1       5.298  -0.548  -2.494  0.00  0.00    -0.193 NA
ATOM     13  C   UNL     1       5.288   0.571  -1.549  0.00  0.00    +0.127 C 
ATOM     14  H   UNL     1       5.859  -0.510  -3.284  0.00  0.00    +0.148 HD
ENDBRANCH   9  12
ENDBRANCH   7   9
ENDBRANCH   2   3
BRANCH   2  15
ATOM     15  N   UNL     1      -1.372  -0.511   0.012  0.00  0.00    -0.293 N 
ATOM     16  C   UNL     1      -2.029  -0.655   1.181  0.00  0.00    +0.305 C 
ATOM     17  O   UNL     1      -1.480  -0.364   2.226  0.00  0.00    -0.252 OA
ATOM     18  N   UNL     1      -3.293  -1.122   1.190  0.00  0.00    -0.254 N 
ATOM     19  H   UNL     1      -1.810  -0.743  -0.822  0.00  0.00    +0.151 HD
ATOM     20  H   UNL     1      -3.731  -1.354   0.356  0.00  0.00    +0.158 HD
BRANCH  18  21
ATOM     21  C   UNL     1      -3.972  -1.271   2.400  0.00  0.00    +0.125 A 
ATOM     22  C   UNL     1      -3.485  -0.980   3.637  0.00  0.00    +0.065 A 
ATOM     23  C   UNL     1      -4.484  -1.273   4.570  0.00  0.00    +0.136 A 
ATOM     24  N   UNL     1      -5.530  -1.721   3.925  0.00  0.00    -0.178 NA
ATOM     25  N   UNL     1      -5.237  -1.725   2.555  0.00  0.00    -0.248 N 
BRANCH  25  26
ATOM     26  C   UNL     1      -6.138  -2.149   1.481  0.00  0.00    +0.103 C 
ATOM     27  C   UNL     1      -6.532  -3.613   1.694  0.00  0.00    +0.032 C 
ATOM     28  C   UNL     1      -7.395  -1.276   1.496  0.00  0.00    +0.032 C 
ENDBRANCH  25  26
ENDBRANCH  18  21
ENDBRANCH   2  15
TORSDOF 6
