REMARK  Name = ZINC46842852
REMARK  8 active torsions:
REMARK  status: ('A' for Active; 'I' for Inactive)
REMARK    1  A    between atoms: C_1  and  C_2
REMARK    2  A    between atoms: C_5  and  N_8
REMARK    3  A    between atoms: C_9  and  C_33
REMARK    4  A    between atoms: C_10  and  C_13
REMARK    5  A    between atoms: N_15  and  C_16
REMARK    6  A    between atoms: C_16  and  C_17
REMARK    7  A    between atoms: C_25  and  C_32
REMARK    8  A    between atoms: C_28  and  C_31
REMARK                            x       y       z     vdW  Elec       q    Type
REMARK                         _______ _______ _______ _____ _____    ______ ____
ROOT
ATOM      1  C   UNL     1       0.991  -7.469   1.179  0.00  0.00    +0.248 C 
ATOM      2  O   UNL     1       1.671  -7.356   2.182  0.00  0.00    -0.270 OA
ATOM      3  N   UNL     1       0.678  -8.694   0.711  0.00  0.00    -0.307 N 
ATOM      4  H   UNL     1       0.136  -8.783  -0.088  0.00  0.00    +0.149 HD
ENDROOT
BRANCH   1   7
ATOM      5  N   UNL     1       0.135  -4.171  -0.067  0.00  0.00    -0.227 N 
ATOM      6  C   UNL     1       0.750  -4.955   0.837  0.00  0.00    +0.159 A 
ATOM      7  C   UNL     1       0.510  -6.266   0.476  0.00  0.00    +0.086 A 
ATOM      8  C   UNL     1      -0.283  -6.239  -0.694  0.00  0.00    +0.148 A 
ATOM      9  N   UNL     1      -0.505  -4.991  -1.003  0.00  0.00    -0.174 NA
BRANCH   5  14
ATOM     10  C   UNL     1       0.113   1.504  -0.067  0.00  0.00    +0.044 C 
ATOM     11  C   UNL     1       0.119  -0.003  -0.067  0.00  0.00    -0.050 A 
ATOM     12  C   UNL     1       0.134  -0.693  -1.265  0.00  0.00    +0.005 A 
ATOM     13  C   UNL     1       0.140  -2.074  -1.268  0.00  0.00    +0.028 A 
ATOM     14  C   UNL     1       0.130  -2.769  -0.067  0.00  0.00    +0.066 A 
ATOM     15  C   UNL     1       0.115  -2.074   1.135  0.00  0.00    +0.028 A 
ATOM     16  C   UNL     1       0.115  -0.693   1.131  0.00  0.00    +0.005 A 
ENDBRANCH   5  14
BRANCH   6  17
ATOM     17  C   UNL     1       1.553  -4.489   2.023  0.00  0.00    +0.435 C 
ATOM     18  F   UNL     1       0.710  -4.347   3.131  0.00  0.00    -0.164 F 
ATOM     19  F   UNL     1       2.548  -5.429   2.311  0.00  0.00    -0.164 F 
ATOM     20  F   UNL     1       2.147  -3.257   1.729  0.00  0.00    -0.164 F 
ENDBRANCH   6  17
ENDBRANCH   1   7
BRANCH   3  21
ATOM     21  C   UNL     1       1.157  -9.889   1.410  0.00  0.00    +0.141 C 
BRANCH  21  22
ATOM     22  C   UNL     1       0.672 -11.120   0.689  0.00  0.00    -0.014 A 
ATOM     23  C   UNL     1      -0.549 -11.694   1.022  0.00  0.00    +0.010 A 
ATOM     24  C   UNL     1      -0.957 -12.823   0.336  0.00  0.00    +0.042 A 
ATOM     25  C   UNL     1      -0.136 -13.343  -0.659  0.00  0.00    +0.099 A 
ATOM     26  N   UNL     1       1.021 -12.768  -0.948  0.00  0.00    -0.349 N 
ATOM     27  C   UNL     1       1.433 -11.686  -0.314  0.00  0.00    +0.089 A 
ATOM     28  N   UNL     1      -0.533 -14.478  -1.357  0.00  0.00    -0.312 N 
ATOM     29  C   UNL     1       0.250 -14.979  -2.498  0.00  0.00    +0.137 C 
ATOM     30  C   UNL     1       0.509 -16.475  -2.286  0.00  0.00    +0.133 C 
ATOM     31  O   UNL     1      -0.732 -17.136  -2.029  0.00  0.00    -0.371 OA
ATOM     32  C   UNL     1      -1.392 -16.699  -0.838  0.00  0.00    +0.133 C 
ATOM     33  C   UNL     1      -1.746 -15.218  -0.972  0.00  0.00    +0.137 C 
ATOM     34  C   UNL     1      -0.463 -16.894   0.362  0.00  0.00    +0.039 C 
ATOM     35  C   UNL     1       1.152 -17.065  -3.543  0.00  0.00    +0.039 C 
ATOM     36  H   UNL     1       1.578 -13.148  -1.645  0.00  0.00    +0.167 HD
ENDBRANCH  21  22
ENDBRANCH   3  21
TORSDOF 5
