REMARK  Name = ZINC03264841
REMARK  13 active torsions:
REMARK  status: ('A' for Active; 'I' for Inactive)
REMARK    1  A    between atoms: C_1  and  C_2
REMARK    2  A    between atoms: C_2  and  O_3
REMARK    3  A    between atoms: O_3  and  C_4
REMARK    4  A    between atoms: C_4  and  C_6
REMARK    5  A    between atoms: C_9  and  O_21
REMARK    6  A    between atoms: C_14  and  C_15
REMARK    7  A    between atoms: O_21  and  C_22
REMARK    8  A    between atoms: C_22  and  C_23
REMARK    9  A    between atoms: C_23  and  C_25
REMARK   10  A    between atoms: C_23  and  O_36
REMARK   11  A    between atoms: C_25  and  N_62
REMARK   12  A    between atoms: C_26  and  C_27
REMARK   13  A    between atoms: C_26  and  N_62
REMARK                            x       y       z     vdW  Elec       q    Type
REMARK                         _______ _______ _______ _____ _____    ______ ____
ROOT
ATOM      1  C   UNL     1      15.286  -3.967  -0.678  0.00  0.00    +0.112 A 
ATOM      2  C   UNL     1      14.106  -3.438   0.032  0.00  0.00    +0.038 A 
ATOM      3  C   UNL     1      12.793  -3.167  -0.344  0.00  0.00    +0.058 A 
ATOM      4  C   UNL     1      11.907  -2.657   0.587  0.00  0.00    +0.121 A 
ATOM      5  C   UNL     1      12.325  -2.427   1.894  0.00  0.00    +0.049 A 
ATOM      6  C   UNL     1      13.622  -2.698   2.274  0.00  0.00    +0.050 A 
ATOM      7  C   UNL     1      14.528  -3.206   1.349  0.00  0.00    +0.137 A 
ATOM      8  O   UNL     1      15.829  -3.555   1.441  0.00  0.00    -0.454 OA
ATOM      9  C   UNL     1      16.300  -4.005   0.267  0.00  0.00    +0.150 A 
ENDROOT
BRANCH   9  10
ATOM     10  C   UNL     1      17.679  -4.467   0.021  0.00  0.00    +0.018 A 
ATOM     11  C   UNL     1      18.052  -4.920  -1.247  0.00  0.00    +0.011 A 
ATOM     12  C   UNL     1      19.345  -5.345  -1.470  0.00  0.00    +0.001 A 
ATOM     13  C   UNL     1      20.268  -5.335  -0.440  0.00  0.00    +0.000 A 
ATOM     14  C   UNL     1      19.904  -4.894   0.820  0.00  0.00    +0.001 A 
ATOM     15  C   UNL     1      18.616  -4.460   1.057  0.00  0.00    +0.011 A 
ENDBRANCH   9  10
BRANCH   1  16
ATOM     16  C   UNL     1      15.370  -4.367  -2.086  0.00  0.00    +0.343 C 
ATOM     17  O   UNL     1      15.123  -5.514  -2.407  0.00  0.00    -0.245 OA
BRANCH  16  18
ATOM     18  O   UNL     1      15.720  -3.464  -3.024  0.00  0.00    -0.461 OA
BRANCH  18  20
ATOM     19  C   UNL     1      16.192  -2.775  -5.311  0.00  0.00    +0.048 C 
ATOM     20  C   UNL     1      15.782  -3.931  -4.397  0.00  0.00    +0.229 C 
ENDBRANCH  18  20
ENDBRANCH  16  18
ENDBRANCH   1  16
BRANCH   4  21
ATOM     21  O   UNL     1      10.624  -2.386   0.227  0.00  0.00    -0.489 OA
BRANCH  21  22
ATOM     22  C   UNL     1       9.761  -1.867   1.241  0.00  0.00    +0.258 C 
BRANCH  22  23
ATOM     23  C   UNL     1       8.370  -1.626   0.652  0.00  0.00    +0.135 C 
BRANCH  23  24
ATOM     24  O   UNL     1       8.444  -0.602  -0.341  0.00  0.00    -0.390 OA
ATOM     25  H   UNL     1       8.764   0.248  -0.007  0.00  0.00    +0.210 HD
ENDBRANCH  23  24
BRANCH  23  26
ATOM     26  C   UNL     1       7.414  -1.190   1.764  0.00  0.00    -0.047 C 
BRANCH  26  27
ATOM     27  N   UNL     1       6.051  -1.076   1.213  0.00  0.00    +0.383 N 
ATOM     28  H   UNL     1       5.759  -1.987   0.840  0.00  0.00    -0.085 HD
ATOM     29  H   UNL     1       6.048  -0.380   0.458  0.00  0.00    -0.085 HD
BRANCH  27  30
ATOM     30  C   UNL     1       5.107  -0.655   2.265  0.00  0.00    -0.047 C 
BRANCH  30  31
ATOM     31  C   UNL     1       3.725  -0.548   1.674  0.00  0.00    -0.061 A 
ATOM     32  C   UNL     1       2.885  -1.646   1.677  0.00  0.00    +0.005 A 
ATOM     33  C   UNL     1       1.617  -1.553   1.135  0.00  0.00    +0.050 A 
ATOM     34  C   UNL     1       1.183  -0.356   0.589  0.00  0.00    +0.166 A 
ATOM     35  C   UNL     1       2.028   0.751   0.586  0.00  0.00    +0.166 A 
ATOM     36  C   UNL     1       3.298   0.650   1.131  0.00  0.00    +0.051 A 
ATOM     37  O   UNL     1       1.376   1.797  -0.001  0.00  0.00    -0.453 OA
ATOM     38  C   UNL     1      -0.018   1.436   0.010  0.00  0.00    +0.466 C 
ATOM     39  O   UNL     1       0.002  -0.004   0.002  0.00  0.00    -0.453 OA
ENDBRANCH  30  31
ENDBRANCH  27  30
ENDBRANCH  26  27
ENDBRANCH  23  26
ENDBRANCH  22  23
ENDBRANCH  21  22
ENDBRANCH   4  21
TORSDOF 12
