REMARK  Name = ZINC36727990
REMARK  6 active torsions:
REMARK  status: ('A' for Active; 'I' for Inactive)
REMARK    1  A    between atoms: C_3  and  C_25
REMARK    2  A    between atoms: C_6  and  C_7
REMARK    3  A    between atoms: C_7  and  N_8
REMARK    4  A    between atoms: C_9  and  C_11
REMARK    5  A    between atoms: C_14  and  N_20
REMARK    6  A    between atoms: C_15  and  N_17
REMARK                            x       y       z     vdW  Elec       q    Type
REMARK                         _______ _______ _______ _____ _____    ______ ____
ROOT
ATOM      1  N   UNL     1      -1.728  -1.013  -1.368  0.00  0.00    -0.307 N 
ATOM      2  C   UNL     1      -2.870  -1.687  -1.607  0.00  0.00    +0.244 C 
ATOM      3  O   UNL     1      -3.542  -2.095  -0.679  0.00  0.00    -0.270 OA
ATOM      4  H   UNL     1      -1.193  -0.688  -2.109  0.00  0.00    +0.149 HD
ENDROOT
BRANCH   2   5
ATOM      5  C   UNL     1      -3.307  -1.930  -2.995  0.00  0.00    +0.039 A 
ATOM      6  C   UNL     1      -2.533  -1.467  -4.064  0.00  0.00    +0.015 A 
ATOM      7  C   UNL     1      -2.943  -1.696  -5.357  0.00  0.00    +0.026 A 
ATOM      8  C   UNL     1      -4.126  -2.387  -5.603  0.00  0.00    +0.060 A 
ATOM      9  C   UNL     1      -4.899  -2.849  -4.541  0.00  0.00    +0.148 A 
ATOM     10  C   UNL     1      -4.492  -2.629  -3.245  0.00  0.00    +0.047 A 
BRANCH   8  11
ATOM     11  N   UNL     1      -4.538  -2.616  -6.911  0.00  0.00    -0.328 N 
ATOM     12  C   UNL     1      -5.390  -1.724  -7.710  0.00  0.00    +0.105 C 
ATOM     13  C   UNL     1      -5.601  -2.399  -9.082  0.00  0.00    +0.020 C 
ATOM     14  C   UNL     1      -5.323  -3.895  -8.780  0.00  0.00    +0.020 C 
ATOM     15  C   UNL     1      -4.186  -3.792  -7.729  0.00  0.00    +0.105 C 
ENDBRANCH   8  11
BRANCH   9  16
ATOM     16  N   UNL     1      -6.157  -3.583  -4.806  0.00  0.00    +0.058 N 
ATOM     17  O   UNL     1      -6.828  -3.984  -3.884  0.00  0.00    -0.126 OA
ATOM     18  O   UNL     1      -6.513  -3.781  -5.944  0.00  0.00    -0.126 OA
ENDBRANCH   9  16
ENDBRANCH   2   5
BRANCH   1  19
ATOM     19  C   UNL     1      -1.295  -0.772   0.010  0.00  0.00    +0.139 C 
BRANCH  19  25
ATOM     20  C   UNL     1      -0.017   1.379   0.010  0.00  0.00    +0.006 A 
ATOM     21  C   UNL     1       1.167   2.088   0.002  0.00  0.00    +0.013 A 
ATOM     22  C   UNL     1       2.385   1.407  -0.013  0.00  0.00    +0.037 A 
ATOM     23  C   UNL     1       2.397   0.011  -0.021  0.00  0.00    +0.013 A 
ATOM     24  C   UNL     1       1.206  -0.686  -0.013  0.00  0.00    +0.006 A 
ATOM     25  C   UNL     1       0.002  -0.004   0.002  0.00  0.00    -0.030 A 
BRANCH  22  26
ATOM     26  C   UNL     1       3.657   2.160  -0.022  0.00  0.00    +0.242 C 
ATOM     27  O   UNL     1       3.643   3.376  -0.015  0.00  0.00    -0.270 OA
ATOM     28  N   UNL     1       4.831   1.499  -0.037  0.00  0.00    -0.325 N 
ATOM     29  H   UNL     1       4.842   0.529  -0.042  0.00  0.00    +0.145 HD
ATOM     30  H   UNL     1       5.666   1.994  -0.042  0.00  0.00    +0.145 HD
ENDBRANCH  22  26
ENDBRANCH  19  25
ENDBRANCH   1  19
TORSDOF 6
