REMARK  Name = ZINC39699340
REMARK  10 active torsions:
REMARK  status: ('A' for Active; 'I' for Inactive)
REMARK    1  A    between atoms: C_1  and  C_2
REMARK    2  A    between atoms: N_5  and  C_8
REMARK    3  A    between atoms: C_8  and  C_10
REMARK    4  A    between atoms: C_8  and  C_24
REMARK    5  A    between atoms: C_15  and  O_22
REMARK    6  A    between atoms: O_22  and  C_23
REMARK    7  A    between atoms: N_29  and  C_30
REMARK    8  A    between atoms: C_30  and  C_31
REMARK    9  A    between atoms: C_30  and  C_32
REMARK   10  A    between atoms: C_30  and  C_33
REMARK                            x       y       z     vdW  Elec       q    Type
REMARK                         _______ _______ _______ _____ _____    ______ ____
ROOT
ATOM      1  C   UNL     1      -0.825  -3.859   1.547  0.00  0.00    -0.010 C 
ENDROOT
BRANCH   1   2
ATOM      2  C   UNL     1      -2.235  -4.435   1.686  0.00  0.00    +0.088 C 
ATOM      3  C   UNL     1      -2.937  -3.684   2.800  0.00  0.00    -0.006 C 
ATOM      4  C   UNL     1      -3.405  -4.417   3.850  0.00  0.00    -0.004 A 
ATOM      5  C   UNL     1      -4.093  -3.771   4.968  0.00  0.00    +0.055 A 
ATOM      6  C   UNL     1      -4.543  -4.543   5.995  0.00  0.00    +0.121 A 
ATOM      7  C   UNL     1      -4.359  -5.931   5.997  0.00  0.00    +0.047 A 
ATOM      8  C   UNL     1      -3.728  -6.586   4.989  0.00  0.00    +0.027 A 
ATOM      9  C   UNL     1      -3.225  -5.879   3.880  0.00  0.00    +0.041 A 
ATOM     10  N   UNL     1      -2.608  -6.536   2.897  0.00  0.00    -0.285 N 
ATOM     11  C   UNL     1      -2.111  -5.935   1.830  0.00  0.00    +0.223 C 
ATOM     12  O   UNL     1      -1.558  -6.588   0.965  0.00  0.00    -0.275 OA
ATOM     13  H   UNL     1      -2.518  -7.499   2.970  0.00  0.00    +0.155 HD
BRANCH   6  14
ATOM     14  O   UNL     1      -5.185  -3.955   7.040  0.00  0.00    -0.495 OA
ATOM     15  C   UNL     1      -5.636  -4.812   8.090  0.00  0.00    +0.277 C 
ENDBRANCH   6  14
ENDBRANCH   1   2
BRANCH   1  20
ATOM     16  C   UNL     1      -0.742   1.573  -0.190  0.00  0.00    +0.007 C 
ATOM     17  C   UNL     1      -0.613   0.049  -0.139  0.00  0.00    -0.018 C 
ATOM     18  C   UNL     1      -1.982  -0.571   0.155  0.00  0.00    -0.016 C 
ATOM     19  C   UNL     1      -1.832  -2.089   0.283  0.00  0.00    -0.078 C 
ATOM     20  N   UNL     1      -0.905  -2.402   1.377  0.00  0.00    +0.385 N 
ATOM     21  C   UNL     1       0.428  -1.872   1.068  0.00  0.00    -0.078 C 
ATOM     22  C   UNL     1       0.365  -0.346   0.971  0.00  0.00    -0.016 C 
ATOM     23  H   UNL     1      -1.242  -1.984   2.232  0.00  0.00    -0.081 HD
ENDBRANCH   1  20
BRANCH   1  24
ATOM     24  C   UNL     1      -0.016  -4.182   2.804  0.00  0.00    +0.205 C 
ATOM     25  N   UNL     1      -0.476  -3.365   3.935  0.00  0.00    -0.152 NA
ATOM     26  N   UNL     1       0.457  -2.660   4.324  0.00  0.00    -0.070 NA
ATOM     27  N   UNL     1       1.627  -2.855   3.590  0.00  0.00    -0.179 N 
ATOM     28  N   UNL     1       1.400  -3.799   2.620  0.00  0.00    -0.183 NA
ATOM     29  H   UNL     1       2.468  -2.396   3.741  0.00  0.00    +0.191 HD
BRANCH  28  30
ATOM     30  C   UNL     1       2.286  -4.958   2.793  0.00  0.00    +0.035 C 
ATOM     31  C   UNL     1       1.941  -6.024   1.750  0.00  0.00    +0.029 C 
ATOM     32  C   UNL     1       3.740  -4.520   2.612  0.00  0.00    +0.029 C 
ATOM     33  C   UNL     1       2.098  -5.538   4.196  0.00  0.00    +0.029 C 
ENDBRANCH  28  30
ENDBRANCH   1  24
TORSDOF 5
