REMARK  Name = ZINC35248404
REMARK  3 active torsions:
REMARK  status: ('A' for Active; 'I' for Inactive)
REMARK    1  A    between atoms: C_3  and  C_20
REMARK    2  A    between atoms: C_8  and  C_10
REMARK    3  A    between atoms: C_20  and  O_21
REMARK                            x       y       z     vdW  Elec       q    Type
REMARK                         _______ _______ _______ _____ _____    ______ ____
ROOT
ATOM      1  C   UNL     1       3.087  -0.560  -0.019  0.00  0.00    +0.019 C 
ATOM      2  C   UNL     1       2.401  -0.093   1.267  0.00  0.00    +0.009 C 
ATOM      3  C   UNL     1       1.016  -0.735   1.371  0.00  0.00    +0.032 C 
ATOM      4  C   UNL     1       0.162  -0.292   0.179  0.00  0.00    +0.113 C 
ATOM      5  N   UNL     1       0.882  -0.607  -1.062  0.00  0.00    -0.301 N 
ATOM      6  C   UNL     1       2.256  -0.114  -1.226  0.00  0.00    +0.108 C 
ATOM      7  C   UNL     1       0.293  -1.334  -2.032  0.00  0.00    +0.220 C 
ATOM      8  O   UNL     1       0.857  -1.501  -3.093  0.00  0.00    -0.275 OA
ENDROOT
BRANCH   7   9
ATOM      9  C   UNL     1      -1.067  -1.940  -1.799  0.00  0.00    +0.093 C 
ATOM     10  C   UNL     1      -1.354  -2.983  -2.882  0.00  0.00    +0.016 C 
ATOM     11  C   UNL     1      -2.721  -3.622  -2.627  0.00  0.00    +0.020 C 
ATOM     12  C   UNL     1      -3.806  -2.543  -2.694  0.00  0.00    +0.109 C 
ATOM     13  N   UNL     1      -3.460  -1.466  -1.757  0.00  0.00    -0.285 N 
ATOM     14  C   UNL     1      -2.133  -0.842  -1.856  0.00  0.00    +0.122 C 
ATOM     15  C   UNL     1      -4.343  -1.056  -0.825  0.00  0.00    +0.300 C 
ATOM     16  O   UNL     1      -4.081  -0.104  -0.116  0.00  0.00    -0.253 OA
ATOM     17  N   UNL     1      -5.517  -1.702  -0.679  0.00  0.00    -0.313 N 
ATOM     18  H   UNL     1      -5.758  -2.415  -1.291  0.00  0.00    +0.146 HD
ATOM     19  H   UNL     1      -6.120  -1.455   0.039  0.00  0.00    +0.146 HD
ENDBRANCH   7   9
BRANCH   3  20
ATOM     20  C   UNL     1       0.345  -0.295   2.673  0.00  0.00    +0.160 C 
BRANCH  20  21
ATOM     21  O   UNL     1       1.082  -0.806   3.785  0.00  0.00    -0.395 OA
ATOM     22  H   UNL     1       0.713  -0.565   4.646  0.00  0.00    +0.209 HD
ENDBRANCH  20  21
ENDBRANCH   3  20
TORSDOF 3
