REMARK  Name = ZINC12383883
REMARK  11 active torsions:
REMARK  status: ('A' for Active; 'I' for Inactive)
REMARK    1  A    between atoms: C_1  and  C_2
REMARK    2  A    between atoms: C_2  and  C_4
REMARK    3  A    between atoms: C_2  and  N_10
REMARK    4  A    between atoms: C_11  and  C_13
REMARK    5  A    between atoms: C_18  and  N_19
REMARK    6  A    between atoms: C_20  and  C_22
REMARK    7  A    between atoms: C_27  and  N_28
REMARK    8  A    between atoms: N_28  and  C_29
REMARK    9  A    between atoms: N_28  and  S_36
REMARK   10  A    between atoms: C_29  and  C_30
REMARK   11  A    between atoms: S_36  and  C_39
REMARK                            x       y       z     vdW  Elec       q    Type
REMARK                         _______ _______ _______ _____ _____    ______ ____
ROOT
ATOM      1  N   UNL     1       6.230  -4.587  -1.138  0.00  0.00    -0.281 N 
ATOM      2  C   UNL     1       5.521  -3.442  -1.191  0.00  0.00    +0.250 C 
ATOM      3  O   UNL     1       5.916  -2.455  -0.600  0.00  0.00    -0.270 OA
ATOM      4  H   UNL     1       5.954  -5.353  -1.665  0.00  0.00    +0.155 HD
ENDROOT
BRANCH   1  10
ATOM      5  C   UNL     1       8.438  -5.484  -0.703  0.00  0.00    +0.058 A 
ATOM      6  C   UNL     1       9.565  -5.559   0.119  0.00  0.00    +0.015 A 
ATOM      7  C   UNL     1       9.610  -4.835   1.291  0.00  0.00    +0.001 A 
ATOM      8  C   UNL     1       8.542  -4.032   1.659  0.00  0.00    +0.002 A 
ATOM      9  C   UNL     1       7.424  -3.944   0.854  0.00  0.00    +0.024 A 
ATOM     10  C   UNL     1       7.359  -4.670  -0.328  0.00  0.00    +0.046 A 
BRANCH   5  12
ATOM     11  N   UNL     1       9.357  -7.142  -2.248  0.00  0.00    -0.305 N 
ATOM     12  C   UNL     1       8.383  -6.257  -1.959  0.00  0.00    +0.246 C 
ATOM     13  O   UNL     1       7.459  -6.094  -2.732  0.00  0.00    -0.270 OA
ATOM     14  H   UNL     1      10.094  -7.271  -1.631  0.00  0.00    +0.150 HD
BRANCH  11  16
ATOM     15  C   UNL     1       9.917  -7.085  -4.628  0.00  0.00    +0.033 C 
ATOM     16  C   UNL     1       9.302  -7.909  -3.495  0.00  0.00    +0.100 C 
BRANCH  16  17
ATOM     17  C   UNL     1      10.076  -9.192  -3.330  0.00  0.00    -0.027 A 
ATOM     18  C   UNL     1      11.274  -9.192  -2.641  0.00  0.00    +0.005 A 
ATOM     19  C   UNL     1      11.982 -10.370  -2.486  0.00  0.00    +0.000 A 
ATOM     20  C   UNL     1      11.496 -11.545  -3.028  0.00  0.00    +0.000 A 
ATOM     21  C   UNL     1      10.300 -11.543  -3.721  0.00  0.00    +0.000 A 
ATOM     22  C   UNL     1       9.590 -10.367  -3.872  0.00  0.00    +0.005 A 
ENDBRANCH  16  17
ENDBRANCH  11  16
ENDBRANCH   5  12
ENDBRANCH   1  10
BRANCH   2  23
ATOM     23  C   UNL     1       4.267  -3.386  -1.964  0.00  0.00    +0.060 A 
ATOM     24  C   UNL     1       3.741  -4.548  -2.534  0.00  0.00    +0.015 A 
ATOM     25  C   UNL     1       2.568  -4.490  -3.255  0.00  0.00    +0.001 A 
ATOM     26  C   UNL     1       1.906  -3.283  -3.418  0.00  0.00    +0.002 A 
ATOM     27  C   UNL     1       2.411  -2.128  -2.857  0.00  0.00    +0.025 A 
ATOM     28  C   UNL     1       3.595  -2.166  -2.131  0.00  0.00    +0.063 A 
BRANCH  28  29
ATOM     29  N   UNL     1       4.107  -1.004  -1.570  0.00  0.00    -0.203 N 
BRANCH  29  30
ATOM     30  S   UNL     1       3.793  -0.642   0.016  0.00  0.00    +0.043 S 
ATOM     31  O   UNL     1       3.428  -1.883   0.605  0.00  0.00    -0.155 OA
ATOM     32  O   UNL     1       4.944   0.061   0.462  0.00  0.00    -0.155 OA
ATOM     33  C   UNL     1       2.361   0.471  -0.035  0.00  0.00    +0.218 C 
ENDBRANCH  29  30
BRANCH  29  34
ATOM     34  C   UNL     1       4.925  -0.098  -2.380  0.00  0.00    +0.166 C 
BRANCH  34  35
ATOM     35  C   UNL     1       6.358  -0.565  -2.364  0.00  0.00    -0.028 A 
ATOM     36  C   UNL     1       6.806  -1.454  -3.323  0.00  0.00    +0.005 A 
ATOM     37  C   UNL     1       8.120  -1.882  -3.308  0.00  0.00    +0.000 A 
ATOM     38  C   UNL     1       8.986  -1.421  -2.334  0.00  0.00    +0.000 A 
ATOM     39  C   UNL     1       8.538  -0.532  -1.375  0.00  0.00    +0.000 A 
ATOM     40  C   UNL     1       7.224  -0.103  -1.390  0.00  0.00    +0.005 A 
ENDBRANCH  34  35
ENDBRANCH  29  34
ENDBRANCH  28  29
ENDBRANCH   2  23
TORSDOF 9
