REMARK  Name = ZINC17541257
REMARK  9 active torsions:
REMARK  status: ('A' for Active; 'I' for Inactive)
REMARK    1  A    between atoms: C_1  and  C_2
REMARK    2  A    between atoms: C_2  and  N_3
REMARK    3  A    between atoms: C_4  and  C_6
REMARK    4  A    between atoms: C_6  and  C_8
REMARK    5  A    between atoms: C_6  and  S_9
REMARK    6  A    between atoms: S_9  and  C_10
REMARK    7  A    between atoms: N_23  and  C_24
REMARK    8  A    between atoms: C_26  and  C_31
REMARK    9  A    between atoms: C_29  and  C_30
REMARK                            x       y       z     vdW  Elec       q    Type
REMARK                         _______ _______ _______ _____ _____    ______ ____
ROOT
ATOM      1  C   UNL     1       0.019  -4.839  -0.013  0.00  0.00    +0.178 A 
ATOM      2  N   UNL     1      -0.885  -3.902   0.237  0.00  0.00    -0.215 NA
ATOM      3  C   UNL     1      -0.497  -2.637   0.134  0.00  0.00    +0.117 A 
ATOM      4  C   UNL     1       0.812  -2.240  -0.224  0.00  0.00    +0.076 A 
ATOM      5  C   UNL     1       1.051  -0.807  -0.287  0.00  0.00    -0.023 A 
ATOM      6  C   UNL     1       0.002  -0.004   0.002  0.00  0.00    -0.004 A 
ATOM      7  S   UNL     1      -1.341  -1.105   0.368  0.00  0.00    -0.073 S 
ATOM      8  C   UNL     1      -0.018   1.493   0.010  0.00  0.00    +0.043 C 
ATOM      9  C   UNL     1       1.431   2.000  -0.001  0.00  0.00    +0.005 C 
ATOM     10  C   UNL     1       2.206   1.244  -1.083  0.00  0.00    +0.005 C 
ATOM     11  C   UNL     1       2.406  -0.211  -0.659  0.00  0.00    +0.037 C 
ATOM     12  C   UNL     1       1.763  -3.279  -0.487  0.00  0.00    +0.268 A 
ATOM     13  O   UNL     1       2.916  -3.036  -0.803  0.00  0.00    -0.267 OA
ATOM     14  N   UNL     1       1.304  -4.546  -0.364  0.00  0.00    -0.255 N 
ENDROOT
BRANCH  14  15
ATOM     15  C   UNL     1       2.188  -5.605  -0.609  0.00  0.00    +0.055 A 
ATOM     16  C   UNL     1       2.306  -6.132  -1.888  0.00  0.00    +0.030 A 
ATOM     17  C   UNL     1       3.183  -7.172  -2.127  0.00  0.00    -0.048 A 
ATOM     18  C   UNL     1       3.935  -7.696  -1.092  0.00  0.00    +0.004 A 
ATOM     19  C   UNL     1       3.816  -7.177   0.184  0.00  0.00    +0.005 A 
ATOM     20  C   UNL     1       2.945  -6.133   0.428  0.00  0.00    -0.026 A 
ATOM     21  C   UNL     1       2.816  -5.568   1.820  0.00  0.00    +0.046 C 
ATOM     22  C   UNL     1       3.315  -7.741  -3.516  0.00  0.00    +0.044 C 
ENDBRANCH  14  15
BRANCH   1  23
ATOM     23  S   UNL     1      -0.458  -6.530   0.114  0.00  0.00    -0.075 S 
BRANCH  23  24
ATOM     24  C   UNL     1      -2.193  -6.332   0.591  0.00  0.00    +0.137 C 
ATOM     25  C   UNL     1      -2.963  -5.668  -0.552  0.00  0.00    +0.029 C 
BRANCH  24  27
ATOM     26  N   UNL     1      -3.911  -7.781   1.625  0.00  0.00    -0.315 N 
ATOM     27  C   UNL     1      -2.791  -7.685   0.881  0.00  0.00    +0.226 C 
ATOM     28  O   UNL     1      -2.265  -8.687   0.445  0.00  0.00    -0.275 OA
ATOM     29  H   UNL     1      -4.332  -6.979   1.974  0.00  0.00    +0.149 HD
BRANCH  26  31
ATOM     30  C   UNL     1      -5.749  -8.924   2.764  0.00  0.00    +0.024 C 
ATOM     31  C   UNL     1      -4.493  -9.095   1.907  0.00  0.00    +0.101 C 
ENDBRANCH  26  31
ENDBRANCH  24  27
ENDBRANCH  23  24
ENDBRANCH   1  23
TORSDOF 5
