REMARK  Name = ZINC00866886
REMARK  4 active torsions:
REMARK  status: ('A' for Active; 'I' for Inactive)
REMARK    1  A    between atoms: C_3  and  C_6
REMARK    2  A    between atoms: C_9  and  C_33
REMARK    3  A    between atoms: C_14  and  C_16
REMARK    4  A    between atoms: N_21  and  C_24
REMARK                            x       y       z     vdW  Elec       q    Type
REMARK                         _______ _______ _______ _____ _____    ______ ____
ROOT
ATOM      1  C   UNL     1       3.622   0.699  -0.072  0.00  0.00    +0.140 C 
ATOM      2  C   UNL     1       4.129   0.418   1.347  0.00  0.00    +0.066 C 
ATOM      3  C   UNL     1       5.662   0.431   1.365  0.00  0.00    +0.215 C 
ATOM      4  N   UNL     1       6.156  -0.430   0.287  0.00  0.00    -0.237 N 
ATOM      5  C   UNL     1       5.402  -0.806  -0.789  0.00  0.00    +0.137 A 
ATOM      6  C   UNL     1       6.160  -1.593  -1.578  0.00  0.00    +0.112 A 
ATOM      7  C   UNL     1       7.432  -1.708  -0.971  0.00  0.00    +0.167 A 
ATOM      8  N   UNL     1       7.419  -1.005   0.148  0.00  0.00    -0.163 NA
ATOM      9 CL   UNL     1       5.665  -2.331  -3.069  0.00  0.00    -0.078 Cl
ATOM     10  N   UNL     1       4.077  -0.388  -0.961  0.00  0.00    -0.318 N 
ATOM     11  H   UNL     1       3.492  -0.790  -1.622  0.00  0.00    +0.148 HD
ENDROOT
BRANCH   7  12
ATOM     12  C   UNL     1       8.576  -2.481  -1.496  0.00  0.00    +0.268 C 
ATOM     13  O   UNL     1       8.438  -3.176  -2.484  0.00  0.00    -0.268 OA
ATOM     14  N   UNL     1       9.773  -2.415  -0.880  0.00  0.00    -0.293 N 
ATOM     15  C   UNL     1      10.949  -3.079  -1.459  0.00  0.00    +0.127 C 
ATOM     16  C   UNL     1      12.064  -2.039  -1.630  0.00  0.00    +0.124 C 
ATOM     17  N   UNL     1      12.216  -1.302  -0.368  0.00  0.00    -0.327 N 
ATOM     18  C   UNL     1      11.039  -0.638   0.211  0.00  0.00    +0.124 C 
ATOM     19  C   UNL     1       9.926  -1.673   0.379  0.00  0.00    +0.127 C 
BRANCH  17  20
ATOM     20  C   UNL     1      13.458  -1.234   0.271  0.00  0.00    +0.030 A 
ATOM     21  C   UNL     1      13.564  -0.640   1.522  0.00  0.00    +0.026 A 
ATOM     22  C   UNL     1      14.792  -0.574   2.152  0.00  0.00    +0.040 A 
ATOM     23  C   UNL     1      15.916  -1.099   1.537  0.00  0.00    +0.124 A 
ATOM     24  C   UNL     1      15.812  -1.692   0.290  0.00  0.00    +0.040 A 
ATOM     25  C   UNL     1      14.585  -1.765  -0.341  0.00  0.00    +0.026 A 
ATOM     26  F   UNL     1      17.116  -1.033   2.154  0.00  0.00    -0.205 F 
ENDBRANCH  17  20
ENDBRANCH   7  12
BRANCH   1  29
ATOM     27  C   UNL     1       0.015   1.460  -0.065  0.00  0.00    +0.041 A 
ATOM     28  C   UNL     1       1.368   1.871  -0.066  0.00  0.00    +0.046 A 
ATOM     29  C   UNL     1       2.115   0.752  -0.069  0.00  0.00    +0.125 A 
ATOM     30  O   UNL     1       1.292  -0.308  -0.070  0.00  0.00    -0.466 OA
ATOM     31  C   UNL     1       0.017   0.115  -0.067  0.00  0.00    +0.195 A 
ENDBRANCH   1  29
BRANCH   3  32
ATOM     32  C   UNL     1       6.162  -0.093   2.713  0.00  0.00    +0.412 C 
ATOM     33  F   UNL     1       5.706  -1.402   2.903  0.00  0.00    -0.168 F 
ATOM     34  F   UNL     1       7.561  -0.081   2.727  0.00  0.00    -0.168 F 
ATOM     35  F   UNL     1       5.678   0.724   3.740  0.00  0.00    -0.168 F 
ENDBRANCH   3  32
TORSDOF 4
