REMARK  Name = ZINC35555274
REMARK  7 active torsions:
REMARK  status: ('A' for Active; 'I' for Inactive)
REMARK    1  A    between atoms: C_1  and  C_2
REMARK    2  A    between atoms: C_2  and  C_3
REMARK    3  A    between atoms: C_2  and  N_4
REMARK    4  A    between atoms: C_5  and  C_7
REMARK    5  A    between atoms: C_7  and  N_8
REMARK    6  A    between atoms: C_15  and  N_36
REMARK    7  A    between atoms: C_19  and  C_24
REMARK                            x       y       z     vdW  Elec       q    Type
REMARK                         _______ _______ _______ _____ _____    ______ ____
ROOT
ATOM      1  N   UNL     1      -3.084  -3.599  -1.074  0.00  0.00    +0.388 N 
ATOM      2  C   UNL     1      -2.726  -3.522  -2.498  0.00  0.00    -0.059 C 
ATOM      3  C   UNL     1      -2.550  -4.943  -3.029  0.00  0.00    +0.087 C 
ATOM      4  N   UNL     1      -3.729  -5.757  -2.722  0.00  0.00    -0.329 N 
ATOM      5  C   UNL     1      -4.067  -6.773  -3.630  0.00  0.00    +0.033 A 
ATOM      6  C   UNL     1      -3.247  -6.981  -4.735  0.00  0.00    +0.025 A 
ATOM      7  C   UNL     1      -3.551  -7.975  -5.642  0.00  0.00    +0.034 A 
ATOM      8  C   UNL     1      -4.670  -8.765  -5.454  0.00  0.00    +0.127 A 
ATOM      9  C   UNL     1      -5.488  -8.559  -4.359  0.00  0.00    +0.038 A 
ATOM     10  C   UNL     1      -5.189  -7.562  -3.447  0.00  0.00    -0.023 A 
ATOM     11  C   UNL     1      -6.101  -7.346  -2.267  0.00  0.00    +0.051 C 
ATOM     12  C   UNL     1      -5.988  -5.898  -1.794  0.00  0.00    +0.098 C 
ATOM     13  C   UNL     1      -4.518  -5.564  -1.516  0.00  0.00    +0.069 C 
ATOM     14  C   UNL     1      -4.431  -4.154  -0.954  0.00  0.00    -0.055 C 
ATOM     15  H   UNL     1      -2.429  -4.196  -0.591  0.00  0.00    -0.081 HD
ENDROOT
BRANCH  12  16
ATOM     16  C   UNL     1      -6.518  -4.978  -2.864  0.00  0.00    +0.221 C 
ATOM     17  O   UNL     1      -5.757  -4.472  -3.660  0.00  0.00    -0.275 OA
ATOM     18  N   UNL     1      -7.839  -4.718  -2.936  0.00  0.00    -0.297 N 
ATOM     19  C   UNL     1      -8.403  -3.916  -4.034  0.00  0.00    +0.113 C 
ATOM     20  C   UNL     1      -9.337  -4.816  -4.841  0.00  0.00    +0.054 C 
ATOM     21  C   UNL     1     -10.262  -5.581  -3.933  0.00  0.00    -0.041 A 
ATOM     22  C   UNL     1     -11.427  -6.099  -4.487  0.00  0.00    +0.004 A 
ATOM     23  C   UNL     1     -12.313  -6.818  -3.713  0.00  0.00    +0.000 A 
ATOM     24  C   UNL     1     -12.043  -7.027  -2.373  0.00  0.00    +0.000 A 
ATOM     25  C   UNL     1     -10.890  -6.511  -1.819  0.00  0.00    +0.005 A 
ATOM     26  C   UNL     1     -10.000  -5.782  -2.596  0.00  0.00    -0.027 A 
ATOM     27  C   UNL     1      -8.773  -5.228  -1.926  0.00  0.00    +0.143 C 
ENDBRANCH  12  16
BRANCH   8  28
ATOM     28  N   UNL     1      -4.994  -9.833  -6.426  0.00  0.00    +0.056 N 
ATOM     29  O   UNL     1      -4.279 -10.014  -7.385  0.00  0.00    -0.126 OA
ATOM     30  O   UNL     1      -5.972 -10.524  -6.263  0.00  0.00    -0.126 OA
ENDBRANCH   8  28
BRANCH   1  31
ATOM     31  C   UNL     1      -3.051  -2.254  -0.485  0.00  0.00    +0.019 C 
BRANCH  31  33
ATOM     32  N   UNL     1      -1.364  -0.510  -0.004  0.00  0.00    -0.315 N 
ATOM     33  C   UNL     1      -1.636  -1.734  -0.499  0.00  0.00    +0.197 C 
ATOM     34  O   UNL     1      -0.744  -2.417  -0.954  0.00  0.00    -0.278 OA
ATOM     35  H   UNL     1      -2.078   0.036   0.360  0.00  0.00    +0.149 HD
BRANCH  32  37
ATOM     36  C   UNL     1      -0.008   1.525  -0.013  0.00  0.00    +0.027 C 
ATOM     37  C   UNL     1       0.011  -0.005  -0.018  0.00  0.00    +0.067 C 
ATOM     38  C   UNL     1       0.752  -0.510   1.222  0.00  0.00    +0.027 C 
ENDBRANCH  32  37
ENDBRANCH  31  33
ENDBRANCH   1  31
TORSDOF 5
