REMARK  Name = ZINC09469259
REMARK  12 active torsions:
REMARK  status: ('A' for Active; 'I' for Inactive)
REMARK    1  A    between atoms: C_1  and  N_50
REMARK    2  A    between atoms: C_2  and  N_50
REMARK    3  A    between atoms: C_3  and  C_5
REMARK    4  A    between atoms: C_3  and  C_23
REMARK    5  A    between atoms: C_3  and  N_50
REMARK    6  A    between atoms: C_5  and  N_6
REMARK    7  A    between atoms: N_6  and  C_7
REMARK    8  A    between atoms: C_10  and  S_16
REMARK    9  A    between atoms: C_12  and  N_13
REMARK   10  A    between atoms: S_16  and  C_19
REMARK   11  A    between atoms: C_26  and  O_29
REMARK   12  A    between atoms: O_29  and  C_30
REMARK                            x       y       z     vdW  Elec       q    Type
REMARK                         _______ _______ _______ _____ _____    ______ ____
ROOT
ATOM      1  N   UNL     1      -0.909   1.277  -0.269  0.00  0.00    -0.343 N 
ATOM      2  H   UNL     1      -0.829   0.350  -0.543  0.00  0.00    +0.146 HD
ENDROOT
BRANCH   1   3
ATOM      3  C   UNL     1      -2.160   1.899  -0.267  0.00  0.00    +0.058 A 
ATOM      4  C   UNL     1      -2.261   3.258   0.001  0.00  0.00    +0.027 A 
ATOM      5  C   UNL     1      -3.499   3.870   0.003  0.00  0.00    +0.029 A 
ATOM      6  C   UNL     1      -4.638   3.130  -0.261  0.00  0.00    +0.100 A 
ATOM      7  C   UNL     1      -4.541   1.777  -0.528  0.00  0.00    +0.062 A 
ATOM      8  C   UNL     1      -3.305   1.161  -0.537  0.00  0.00    +0.149 A 
BRANCH   8   9
ATOM      9  N   UNL     1      -3.201  -0.287  -0.829  0.00  0.00    +0.058 N 
ATOM     10  O   UNL     1      -4.192  -0.914  -1.160  0.00  0.00    -0.126 OA
ATOM     11  O   UNL     1      -2.125  -0.851  -0.739  0.00  0.00    -0.126 OA
ENDBRANCH   8   9
BRANCH   6  12
ATOM     12  S   UNL     1      -6.216   3.914  -0.257  0.00  0.00    +0.091 S 
ATOM     13  O   UNL     1      -7.135   2.878   0.058  0.00  0.00    -0.161 OA
ATOM     14  O   UNL     1      -6.062   5.033   0.606  0.00  0.00    -0.161 OA
BRANCH  12  15
ATOM     15  C   UNL     1      -6.464   4.472  -1.965  0.00  0.00    +0.526 C 
ATOM     16  F   UNL     1      -6.436   3.368  -2.824  0.00  0.00    -0.150 F 
ATOM     17  F   UNL     1      -7.702   5.115  -2.071  0.00  0.00    -0.150 F 
ATOM     18  F   UNL     1      -5.444   5.363  -2.317  0.00  0.00    -0.150 F 
ENDBRANCH  12  15
ENDBRANCH   6  12
ENDBRANCH   1   3
BRANCH   1  19
ATOM     19  C   UNL     1       0.283   2.027   0.135  0.00  0.00    +0.091 C 
BRANCH  19  20
ATOM     20  C   UNL     1       1.482   1.079   0.207  0.00  0.00    -0.021 C 
BRANCH  20  21
ATOM     21  C   UNL     1       2.730   1.871   0.499  0.00  0.00    -0.059 A 
ATOM     22  C   UNL     1       3.072   2.163   1.807  0.00  0.00    +0.005 A 
ATOM     23  C   UNL     1       4.220   2.883   2.078  0.00  0.00    +0.046 A 
ATOM     24  C   UNL     1       5.023   3.324   1.036  0.00  0.00    +0.120 A 
ATOM     25  C   UNL     1       4.675   3.034  -0.276  0.00  0.00    +0.046 A 
ATOM     26  C   UNL     1       3.529   2.308  -0.541  0.00  0.00    +0.005 A 
BRANCH  24  27
ATOM     27  O   UNL     1       6.149   4.038   1.299  0.00  0.00    -0.495 OA
ATOM     28  C   UNL     1       6.445   4.298   2.672  0.00  0.00    +0.277 C 
ENDBRANCH  24  27
ENDBRANCH  20  21
BRANCH  20  31
ATOM     29  C   UNL     1       0.421   0.653   2.342  0.00  0.00    -0.096 C 
ATOM     30  C   UNL     1       0.685  -1.144   0.741  0.00  0.00    -0.096 C 
ATOM     31  N   UNL     1       1.290   0.089   1.288  0.00  0.00    +0.382 N 
ATOM     32  H   UNL     1       2.203  -0.141   1.696  0.00  0.00    -0.082 HD
ENDBRANCH  20  31
ENDBRANCH  19  20
ENDBRANCH   1  19
TORSDOF 9
