REMARK  Name = ZINC64392336
REMARK  9 active torsions:
REMARK  status: ('A' for Active; 'I' for Inactive)
REMARK    1  A    between atoms: C_1  and  C_2
REMARK    2  A    between atoms: C_2  and  C_3
REMARK    3  A    between atoms: C_3  and  C_5
REMARK    4  A    between atoms: C_3  and  C_6
REMARK    5  A    between atoms: C_6  and  C_8
REMARK    6  A    between atoms: C_6  and  N_20
REMARK    7  A    between atoms: N_10  and  C_11
REMARK    8  A    between atoms: C_21  and  C_23
REMARK    9  A    between atoms: C_23  and  C_24
REMARK                            x       y       z     vdW  Elec       q    Type
REMARK                         _______ _______ _______ _____ _____    ______ ____
ROOT
ATOM      1  C   UNL     1      -0.129  -0.107   2.473  0.00  0.00    +0.162 C 
ENDROOT
BRANCH   1   2
ATOM      2  C   UNL     1       0.462  -0.905   3.607  0.00  0.00    +0.236 C 
ATOM      3  O   UNL     1       0.742  -0.357   4.652  0.00  0.00    -0.274 OA
ATOM      4  N   UNL     1       0.680  -2.227   3.458  0.00  0.00    -0.277 N 
ATOM      5  H   UNL     1       0.526  -2.650   2.600  0.00  0.00    +0.152 HD
BRANCH   4   6
ATOM      6  C   UNL     1       1.150  -3.023   4.595  0.00  0.00    +0.269 C 
ATOM      7  N   UNL     1       2.589  -2.813   4.796  0.00  0.00    -0.348 N 
ATOM      8  C   UNL     1       3.176  -3.966   4.652  0.00  0.00    +0.061 A 
ATOM      9  C   UNL     1       4.581  -4.390   4.734  0.00  0.00    +0.027 A 
ATOM     10  C   UNL     1       4.898  -5.684   4.534  0.00  0.00    +0.002 A 
ATOM     11  C   UNL     1       3.933  -6.665   4.245  0.00  0.00    +0.002 A 
ATOM     12  C   UNL     1       2.618  -6.385   4.146  0.00  0.00    +0.027 A 
ATOM     13  C   UNL     1       2.155  -5.005   4.347  0.00  0.00    +0.061 A 
ATOM     14  N   UNL     1       0.976  -4.454   4.313  0.00  0.00    -0.348 N 
ATOM     15  H   UNL     1       3.023  -1.970   4.999  0.00  0.00    +0.163 HD
ATOM     16  H   UNL     1       0.136  -4.905   4.136  0.00  0.00    +0.163 HD
ENDBRANCH   4   6
ENDBRANCH   1   2
BRANCH   1  17
ATOM     17  N   UNL     1      -0.256   1.296   2.877  0.00  0.00    -0.303 N 
ATOM     18  C   UNL     1      -1.266   2.047   2.397  0.00  0.00    +0.218 C 
ATOM     19  O   UNL     1      -2.124   1.539   1.706  0.00  0.00    -0.275 OA
ATOM     20  H   UNL     1       0.388   1.684   3.490  0.00  0.00    +0.149 HD
BRANCH  18  21
ATOM     21  C   UNL     1      -1.331   3.518   2.718  0.00  0.00    +0.133 C 
BRANCH  21  22
ATOM     22  C   UNL     1      -2.548   4.121   2.065  0.00  0.00    -0.003 A 
ATOM     23  C   UNL     1      -2.439   4.728   0.828  0.00  0.00    +0.007 A 
ATOM     24  C   UNL     1      -3.555   5.282   0.229  0.00  0.00    +0.000 A 
ATOM     25  C   UNL     1      -4.781   5.230   0.867  0.00  0.00    +0.003 A 
ATOM     26  C   UNL     1      -4.891   4.624   2.104  0.00  0.00    +0.038 A 
ATOM     27  C   UNL     1      -3.775   4.064   2.702  0.00  0.00    +0.127 A 
ATOM     28  F   UNL     1      -3.883   3.467   3.910  0.00  0.00    -0.205 F 
ENDBRANCH  21  22
ENDBRANCH  18  21
ENDBRANCH   1  17
BRANCH   1  29
ATOM     29  C   UNL     1       0.785  -0.205   1.250  0.00  0.00    +0.015 C 
ATOM     30  C   UNL     1       0.106   0.463   0.052  0.00  0.00    +0.010 C 
BRANCH  29  32
ATOM     31  C   UNL     1       2.885  -0.288   2.600  0.00  0.00    +0.004 C 
ATOM     32  C   UNL     1       2.109   0.502   1.544  0.00  0.00    +0.002 C 
ENDBRANCH  29  32
ENDBRANCH   1  29
TORSDOF 7
