REMARK  Name = ZINC63133519
REMARK  7 active torsions:
REMARK  status: ('A' for Active; 'I' for Inactive)
REMARK    1  A    between atoms: C_7  and  C_10
REMARK    2  A    between atoms: C_10  and  C_12
REMARK    3  A    between atoms: C_10  and  C_26
REMARK    4  A    between atoms: C_12  and  N_13
REMARK    5  A    between atoms: C_14  and  C_16
REMARK    6  A    between atoms: C_16  and  C_17
REMARK    7  A    between atoms: C_17  and  C_18
REMARK                            x       y       z     vdW  Elec       q    Type
REMARK                         _______ _______ _______ _____ _____    ______ ____
ROOT
ATOM      1  C   UNL     1       0.691  -3.186  -0.024  0.00  0.00    +0.066 C 
ENDROOT
BRANCH   1   8
ATOM      2  C   UNL     1      -0.016   1.348   0.009  0.00  0.00    +0.001 A 
ATOM      3  C   UNL     1       1.166   2.101   0.002  0.00  0.00    +0.002 A 
ATOM      4  C   UNL     1       2.391   1.535  -0.013  0.00  0.00    +0.026 A 
ATOM      5  C   UNL     1       2.529   0.120  -0.022  0.00  0.00    +0.043 A 
ATOM      6  N   UNL     1       3.587  -0.654  -0.037  0.00  0.00    -0.380 N 
ATOM      7  C   UNL     1       3.143  -2.053  -0.041  0.00  0.00    +0.145 C 
ATOM      8  C   UNL     1       1.631  -2.008  -0.025  0.00  0.00    -0.033 C 
ATOM      9  C   UNL     1       1.295  -0.698  -0.014  0.00  0.00    -0.000 A 
ATOM     10  C   UNL     1       0.002  -0.004   0.002  0.00  0.00    +0.010 A 
ATOM     11  H   UNL     1       4.509  -0.353  -0.045  0.00  0.00    +0.160 HD
ENDBRANCH   1   8
BRANCH   1  12
ATOM     12  C   UNL     1       0.944  -4.029   1.199  0.00  0.00    -0.020 A 
ATOM     13  C   UNL     1       2.189  -4.591   1.405  0.00  0.00    +0.006 A 
ATOM     14  C   UNL     1       2.422  -5.365   2.527  0.00  0.00    +0.000 A 
ATOM     15  C   UNL     1       1.408  -5.577   3.443  0.00  0.00    +0.001 A 
ATOM     16  C   UNL     1       0.162  -5.016   3.238  0.00  0.00    +0.020 A 
ATOM     17  C   UNL     1      -0.069  -4.237   2.118  0.00  0.00    +0.045 A 
ATOM     18 CL   UNL     1      -1.632  -3.525   1.863  0.00  0.00    -0.083 Cl
ENDBRANCH   1  12
BRANCH   1  19
ATOM     19  C   UNL     1       0.923  -4.026  -1.281  0.00  0.00    +0.116 C 
BRANCH  19  20
ATOM     20  N   UNL     1      -0.070  -5.102  -1.340  0.00  0.00    -0.314 N 
ATOM     21  C   UNL     1      -0.058  -5.974  -2.367  0.00  0.00    +0.213 C 
ATOM     22  O   UNL     1       0.774  -5.869  -3.243  0.00  0.00    -0.276 OA
ATOM     23  H   UNL     1      -0.735  -5.186  -0.639  0.00  0.00    +0.149 HD
BRANCH  21  24
ATOM     24  C   UNL     1      -1.080  -7.080  -2.428  0.00  0.00    +0.098 C 
BRANCH  24  25
ATOM     25  C   UNL     1      -0.847  -7.921  -3.685  0.00  0.00    +0.041 C 
BRANCH  25  26
ATOM     26  C   UNL     1      -1.884  -9.044  -3.746  0.00  0.00    +0.161 C 
ATOM     27  C   UNL     1      -1.699  -9.873  -5.002  0.00  0.00    +0.241 C 
ATOM     28  O   UNL     1      -1.785  -9.492  -6.150  0.00  0.00    -0.273 OA
ATOM     29  N   UNL     1      -1.417 -11.120  -4.577  0.00  0.00    -0.239 N 
ATOM     30  C   UNL     1      -1.399 -11.195  -3.242  0.00  0.00    +0.307 C 
ATOM     31  O   UNL     1      -1.169 -12.216  -2.625  0.00  0.00    -0.252 OA
ATOM     32  N   UNL     1      -1.667 -10.010  -2.655  0.00  0.00    -0.288 N 
ATOM     33  H   UNL     1      -1.250 -11.872  -5.167  0.00  0.00    +0.159 HD
ATOM     34  H   UNL     1      -1.708  -9.828  -1.703  0.00  0.00    +0.151 HD
ENDBRANCH  25  26
ENDBRANCH  24  25
ENDBRANCH  21  24
ENDBRANCH  19  20
ENDBRANCH   1  19
TORSDOF 7
