REMARK  Name = ZINC13396296
REMARK  6 active torsions:
REMARK  status: ('A' for Active; 'I' for Inactive)
REMARK    1  A    between atoms: C_3  and  C_12
REMARK    2  A    between atoms: C_6  and  C_7
REMARK    3  A    between atoms: N_14  and  C_15
REMARK    4  A    between atoms: C_18  and  S_21
REMARK    5  A    between atoms: S_21  and  N_24
REMARK    6  A    between atoms: C_28  and  C_31
REMARK                            x       y       z     vdW  Elec       q    Type
REMARK                         _______ _______ _______ _____ _____    ______ ____
ROOT
ATOM      1  C   UNL     1       2.268   5.642   0.100  0.00  0.00    +0.034 A 
ATOM      2  C   UNL     1       1.036   6.275   0.205  0.00  0.00    +0.025 A 
ATOM      3  C   UNL     1       0.975   7.651   0.305  0.00  0.00    +0.030 A 
ATOM      4  C   UNL     1       2.138   8.399   0.292  0.00  0.00    +0.106 A 
ATOM      5  C   UNL     1       3.365   7.772   0.183  0.00  0.00    +0.030 A 
ATOM      6  C   UNL     1       3.434   6.396   0.087  0.00  0.00    +0.025 A 
ENDROOT
BRANCH   1   9
ATOM      7  C   UNL     1       3.354   3.580   0.575  0.00  0.00    +0.248 C 
ATOM      8  O   UNL     1       4.262   4.193   1.103  0.00  0.00    -0.270 OA
ATOM      9  N   UNL     1       2.333   4.248   0.002  0.00  0.00    -0.282 N 
ATOM     10  H   UNL     1       1.644   3.763  -0.478  0.00  0.00    +0.155 HD
BRANCH   7  13
ATOM     11  C   UNL     1       4.435   0.027   1.135  0.00  0.00    +0.006 A 
ATOM     12  C   UNL     1       4.426   1.407   1.152  0.00  0.00    +0.013 A 
ATOM     13  C   UNL     1       3.371   2.102   0.560  0.00  0.00    +0.037 A 
ATOM     14  C   UNL     1       2.331   1.395  -0.047  0.00  0.00    +0.013 A 
ATOM     15  C   UNL     1       2.352   0.016  -0.056  0.00  0.00    +0.006 A 
ATOM     16  C   UNL     1       3.401  -0.667   0.533  0.00  0.00    -0.025 A 
BRANCH  16  17
ATOM     17  C   UNL     1       3.417  -2.174   0.518  0.00  0.00    +0.133 C 
ATOM     18  S   UNL     1       3.290  -2.813  -1.201  0.00  0.00    -0.141 S 
ATOM     19  C   UNL     1       2.166  -4.257  -1.006  0.00  0.00    +0.081 C 
ATOM     20  C   UNL     1       1.063  -3.783  -0.028  0.00  0.00    +0.081 C 
ATOM     21  S   UNL     1       1.903  -2.851   1.302  0.00  0.00    -0.141 S 
ENDBRANCH  16  17
ENDBRANCH   7  13
ENDBRANCH   1   9
BRANCH   4  22
ATOM     22  S   UNL     1       2.055  10.155   0.414  0.00  0.00    +0.061 S 
ATOM     23  O   UNL     1       0.824  10.460   1.055  0.00  0.00    -0.153 OA
ATOM     24  O   UNL     1       3.308  10.586   0.928  0.00  0.00    -0.153 OA
BRANCH  22  25
ATOM     25  N   UNL     1       1.946  10.748  -1.128  0.00  0.00    -0.176 NA
ATOM     26  C   UNL     1       0.636  10.953  -1.760  0.00  0.00    +0.109 C 
ATOM     27  C   UNL     1       0.619  10.221  -3.106  0.00  0.00    +0.018 C 
ATOM     28  C   UNL     1       1.805  10.689  -3.952  0.00  0.00    +0.017 C 
ATOM     29  C   UNL     1       3.112  10.348  -3.233  0.00  0.00    +0.118 C 
ATOM     30  C   UNL     1       3.158  11.086  -1.887  0.00  0.00    +0.124 C 
BRANCH  29  31
ATOM     31  C   UNL     1       4.280  10.779  -4.082  0.00  0.00    +0.360 C 
ATOM     32  O   UNL     1       5.071  11.588  -3.656  0.00  0.00    -0.246 OA
ATOM     33  O   UNL     1       4.443  10.265  -5.311  0.00  0.00    -0.246 OA
ENDBRANCH  29  31
ENDBRANCH  22  25
ENDBRANCH   4  22
TORSDOF 6
