REMARK  Name = ZINC47516422
REMARK  7 active torsions:
REMARK  status: ('A' for Active; 'I' for Inactive)
REMARK    1  A    between atoms: C_4  and  O_28
REMARK    2  A    between atoms: C_5  and  C_7
REMARK    3  A    between atoms: C_7  and  N_8
REMARK    4  A    between atoms: N_8  and  C_9
REMARK    5  A    between atoms: C_9  and  C_10
REMARK    6  A    between atoms: N_17  and  C_18
REMARK    7  A    between atoms: C_22  and  C_24
REMARK                            x       y       z     vdW  Elec       q    Type
REMARK                         _______ _______ _______ _____ _____    ______ ____
ROOT
ATOM      1  N   UNL     1       1.326  -2.496   1.437  0.00  0.00    -0.274 N 
ATOM      2  C   UNL     1       2.556  -2.603   1.977  0.00  0.00    +0.307 C 
ATOM      3  O   UNL     1       3.526  -2.201   1.364  0.00  0.00    -0.252 OA
ATOM      4  N   UNL     1       2.711  -3.155   3.197  0.00  0.00    -0.269 N 
ATOM      5  H   UNL     1       1.948  -3.539   3.656  0.00  0.00    +0.156 HD
ENDROOT
BRANCH   4   6
ATOM      6  C   UNL     1       3.975  -3.174   3.801  0.00  0.00    +0.036 A 
ATOM      7  C   UNL     1       4.087  -3.030   5.180  0.00  0.00    +0.026 A 
ATOM      8  C   UNL     1       5.330  -3.048   5.782  0.00  0.00    +0.041 A 
ATOM      9  C   UNL     1       6.471  -3.209   5.018  0.00  0.00    +0.136 A 
ATOM     10  C   UNL     1       6.368  -3.355   3.631  0.00  0.00    +0.073 A 
ATOM     11  C   UNL     1       5.110  -3.342   3.026  0.00  0.00    +0.039 A 
ATOM     12  F   UNL     1       7.685  -3.226   5.611  0.00  0.00    -0.205 F 
BRANCH  10  13
ATOM     13  C   UNL     1       7.584  -3.526   2.811  0.00  0.00    +0.244 C 
ATOM     14  O   UNL     1       8.678  -3.542   3.341  0.00  0.00    -0.270 OA
ATOM     15  N   UNL     1       7.481  -3.666   1.474  0.00  0.00    -0.325 N 
ATOM     16  H   UNL     1       6.608  -3.654   1.051  0.00  0.00    +0.145 HD
ATOM     17  H   UNL     1       8.279  -3.779   0.935  0.00  0.00    +0.145 HD
ENDBRANCH  10  13
ENDBRANCH   4   6
BRANCH   1  18
ATOM     18  C   UNL     1       1.144  -1.799   0.161  0.00  0.00    +0.148 C 
BRANCH  18  23
ATOM     19  C   UNL     1       1.913   1.884   0.476  0.00  0.00    +0.001 A 
ATOM     20  C   UNL     1       0.692   2.391   0.880  0.00  0.00    +0.004 A 
ATOM     21  C   UNL     1      -0.386   1.545   1.052  0.00  0.00    +0.046 A 
ATOM     22  C   UNL     1      -0.242   0.184   0.820  0.00  0.00    +0.122 A 
ATOM     23  C   UNL     1       0.984  -0.322   0.414  0.00  0.00    +0.011 A 
ATOM     24  C   UNL     1       2.059   0.529   0.244  0.00  0.00    +0.009 A 
BRANCH  22  25
ATOM     25  O   UNL     1      -1.301  -0.651   0.989  0.00  0.00    -0.506 OA
ATOM     26  H   UNL     1      -1.880  -0.713   0.218  0.00  0.00    +0.292 HD
ENDBRANCH  22  25
ENDBRANCH  18  23
ENDBRANCH   1  18
BRANCH   1  27
ATOM     27  C   UNL     1       0.171  -3.077   2.126  0.00  0.00    +0.183 C 
BRANCH  27  28
ATOM     28  C   UNL     1      -0.026  -4.498   1.666  0.00  0.00    +0.122 A 
ATOM     29  C   UNL     1       0.521  -5.590   2.230  0.00  0.00    +0.046 A 
ATOM     30  C   UNL     1       0.073  -6.704   1.483  0.00  0.00    +0.041 A 
ATOM     31  C   UNL     1      -0.720  -6.226   0.507  0.00  0.00    +0.195 A 
ATOM     32  O   UNL     1      -0.781  -4.890   0.626  0.00  0.00    -0.466 OA
ENDBRANCH  27  28
ENDBRANCH   1  27
TORSDOF 7
