REMARK  Name = ZINC42014787
REMARK  4 active torsions:
REMARK  status: ('A' for Active; 'I' for Inactive)
REMARK    1  A    between atoms: C_3  and  N_20
REMARK    2  A    between atoms: C_4  and  C_8
REMARK    3  A    between atoms: N_12  and  C_13
REMARK    4  A    between atoms: C_13  and  C_14
REMARK                            x       y       z     vdW  Elec       q    Type
REMARK                         _______ _______ _______ _____ _____    ______ ____
ROOT
ATOM      1  C   UNL     1       3.694  -0.697  -0.061  0.00  0.00    +0.184 A 
ATOM      2  N   UNL     1       4.892  -0.157  -0.147  0.00  0.00    -0.108 NA
ATOM      3  N   UNL     1       5.799  -1.065  -0.105  0.00  0.00    -0.023 NA
ATOM      4  N   UNL     1       5.262  -2.232   0.009  0.00  0.00    -0.044 NA
ATOM      5  N   UNL     1       3.870  -2.038   0.048  0.00  0.00    -0.223 N 
ENDROOT
BRANCH   1   9
ATOM      6  C   UNL     1      -0.022   1.372  -0.100  0.00  0.00    +0.040 A 
ATOM      7  C   UNL     1       0.924   1.649  -1.068  0.00  0.00    +0.026 A 
ATOM      8  C   UNL     1       2.139   0.979  -1.064  0.00  0.00    +0.036 A 
ATOM      9  C   UNL     1       2.402   0.022  -0.074  0.00  0.00    +0.044 A 
ATOM     10  C   UNL     1       1.440  -0.249   0.897  0.00  0.00    +0.051 A 
ATOM     11  C   UNL     1       0.234   0.426   0.880  0.00  0.00    +0.124 A 
ATOM     12  F   UNL     1      -0.698   0.163   1.821  0.00  0.00    -0.205 F 
BRANCH   8  13
ATOM     13  N   UNL     1       3.095   1.258  -2.040  0.00  0.00    -0.357 N 
ATOM     14  H   UNL     1       2.911   1.920  -2.724  0.00  0.00    +0.142 HD
ATOM     15  H   UNL     1       3.944   0.788  -2.035  0.00  0.00    +0.142 HD
ENDBRANCH   8  13
ENDBRANCH   1   9
BRANCH   5  16
ATOM     16  C   UNL     1       2.832  -3.064   0.176  0.00  0.00    +0.179 C 
BRANCH  16  17
ATOM     17  C   UNL     1       2.482  -3.612  -1.209  0.00  0.00    +0.140 C 
ATOM     18  C   UNL     1       1.306  -4.606  -1.097  0.00  0.00    +0.035 C 
ATOM     19  C   UNL     1       1.712  -5.712  -2.109  0.00  0.00    +0.031 C 
ATOM     20  C   UNL     1       3.254  -5.704  -1.950  0.00  0.00    +0.160 C 
ATOM     21  O   UNL     1       3.603  -4.324  -1.747  0.00  0.00    -0.375 OA
ENDBRANCH  16  17
ENDBRANCH   5  16
TORSDOF 4
