REMARK  Name = ZINC08868906
REMARK  9 active torsions:
REMARK  status: ('A' for Active; 'I' for Inactive)
REMARK    1  A    between atoms: C_1  and  N_60
REMARK    2  A    between atoms: C_2  and  N_60
REMARK    3  A    between atoms: C_3  and  C_4
REMARK    4  A    between atoms: C_3  and  N_60
REMARK    5  A    between atoms: C_4  and  C_5
REMARK    6  A    between atoms: C_5  and  N_6
REMARK    7  A    between atoms: C_17  and  C_19
REMARK    8  A    between atoms: N_24  and  S_25
REMARK    9  A    between atoms: S_25  and  C_28
REMARK                            x       y       z     vdW  Elec       q    Type
REMARK                         _______ _______ _______ _____ _____    ______ ____
ROOT
ATOM      1  N   UNL     1       5.645   3.676   0.221  0.00  0.00    -0.249 N 
ATOM      2  C   UNL     1       4.462   2.961   0.142  0.00  0.00    +0.168 A 
ATOM      3  N   UNL     1       3.228   3.407   0.154  0.00  0.00    -0.224 NA
ATOM      4  C   UNL     1       2.158   2.586   0.068  0.00  0.00    +0.080 A 
ATOM      5  C   UNL     1       0.787   2.936   0.070  0.00  0.00    +0.032 A 
ATOM      6  C   UNL     1      -0.182   1.972  -0.025  0.00  0.00    +0.040 A 
ATOM      7  C   UNL     1       0.142   0.625  -0.132  0.00  0.00    +0.125 A 
ATOM      8  C   UNL     1       1.474   0.247  -0.131  0.00  0.00    +0.055 A 
ATOM      9  C   UNL     1       2.451   1.207  -0.036  0.00  0.00    +0.043 A 
ATOM     10  S   UNL     1       4.227   1.195  -0.002  0.00  0.00    -0.052 S 
ATOM     11  F   UNL     1      -0.832  -0.306  -0.230  0.00  0.00    -0.205 F 
ATOM     12  C   UNL     1       5.615   5.020   0.326  0.00  0.00    +0.240 C 
ATOM     13  O   UNL     1       4.557   5.609   0.262  0.00  0.00    -0.273 OA
ENDROOT
BRANCH  12  14
ATOM     14  C   UNL     1       6.896   5.789   0.522  0.00  0.00    +0.166 C 
ATOM     15  C   UNL     1       7.194   5.935   2.029  0.00  0.00    +0.031 C 
ATOM     16  C   UNL     1       7.762   7.378   2.130  0.00  0.00    +0.019 C 
ATOM     17  C   UNL     1       6.923   8.121   1.060  0.00  0.00    +0.110 C 
ATOM     18  N   UNL     1       6.755   7.144  -0.031  0.00  0.00    -0.165 NA
BRANCH  18  19
ATOM     19  S   UNL     1       6.457   7.512  -1.618  0.00  0.00    +0.062 S 
ATOM     20  O   UNL     1       7.061   8.775  -1.863  0.00  0.00    -0.153 OA
ATOM     21  O   UNL     1       6.782   6.353  -2.372  0.00  0.00    -0.153 OA
BRANCH  19  22
ATOM     22  C   UNL     1       4.718   7.747  -1.781  0.00  0.00    +0.106 A 
ATOM     23  C   UNL     1       3.917   6.704  -2.209  0.00  0.00    +0.031 A 
ATOM     24  C   UNL     1       2.553   6.886  -2.332  0.00  0.00    +0.040 A 
ATOM     25  C   UNL     1       1.989   8.116  -2.037  0.00  0.00    +0.124 A 
ATOM     26  C   UNL     1       2.792   9.161  -1.613  0.00  0.00    +0.040 A 
ATOM     27  C   UNL     1       4.156   8.975  -1.486  0.00  0.00    +0.031 A 
ATOM     28  F   UNL     1       0.656   8.295  -2.162  0.00  0.00    -0.205 F 
ENDBRANCH  19  22
ENDBRANCH  18  19
ENDBRANCH  12  14
BRANCH   1  29
ATOM     29  C   UNL     1       6.930   2.973   0.190  0.00  0.00    +0.114 C 
BRANCH  29  30
ATOM     30  C   UNL     1       7.416   2.862  -1.257  0.00  0.00    +0.001 C 
BRANCH  30  31
ATOM     31  C   UNL     1       8.758   2.127  -1.289  0.00  0.00    -0.078 C 
BRANCH  31  34
ATOM     32  C   UNL     1      10.611   1.537  -2.732  0.00  0.00    -0.097 C 
ATOM     33  C   UNL     1       8.335   1.159  -3.467  0.00  0.00    -0.097 C 
ATOM     34  N   UNL     1       9.224   2.047  -2.689  0.00  0.00    +0.376 N 
ATOM     35  H   UNL     1       9.201   2.987  -3.103  0.00  0.00    -0.083 HD
ENDBRANCH  31  34
ENDBRANCH  30  31
ENDBRANCH  29  30
ENDBRANCH   1  29
TORSDOF 7
