REMARK  Name = ZINC38519400
REMARK  6 active torsions:
REMARK  status: ('A' for Active; 'I' for Inactive)
REMARK    1  A    between atoms: C_1  and  C_2
REMARK    2  A    between atoms: N_12  and  C_13
REMARK    3  A    between atoms: C_15  and  C_17
REMARK    4  A    between atoms: C_17  and  C_18
REMARK    5  A    between atoms: C_18  and  C_19
REMARK    6  A    between atoms: C_18  and  C_20
REMARK                            x       y       z     vdW  Elec       q    Type
REMARK                         _______ _______ _______ _____ _____    ______ ____
ROOT
ATOM      1  C   UNL     1      -0.019   1.526   0.010  0.00  0.00    +0.013 C 
ATOM      2  C   UNL     1       0.002  -0.004   0.002  0.00  0.00    +0.031 C 
ATOM      3  C   UNL     1      -1.433  -0.540   0.027  0.00  0.00    +0.104 C 
ATOM      4  C   UNL     1      -2.038  -0.413   1.397  0.00  0.00    +0.219 C 
ATOM      5  O   UNL     1      -3.206  -0.104   1.497  0.00  0.00    -0.275 OA
ATOM      6  N   UNL     1      -1.321  -0.631   2.520  0.00  0.00    -0.270 N 
ATOM      7  C   UNL     1       0.060  -0.790   2.397  0.00  0.00    +0.128 A 
ATOM      8  C   UNL     1       0.718  -0.509   1.229  0.00  0.00    +0.037 A 
ATOM      9  C   UNL     1       2.071  -0.773   1.423  0.00  0.00    +0.152 A 
ATOM     10  N   UNL     1       2.234  -1.180   2.664  0.00  0.00    -0.154 NA
ATOM     11  N   UNL     1       0.978  -1.188   3.298  0.00  0.00    -0.251 N 
ATOM     12  C   UNL     1       0.715  -1.563   4.690  0.00  0.00    +0.174 C 
ATOM     13  N   UNL     1       3.083  -0.632   0.464  0.00  0.00    -0.269 N 
ATOM     14  C   UNL     1       4.359  -0.923   0.783  0.00  0.00    +0.219 C 
ATOM     15  O   UNL     1       4.633  -1.308   1.900  0.00  0.00    -0.275 OA
ATOM     16  H   UNL     1      -1.753  -0.677   3.387  0.00  0.00    +0.156 HD
ATOM     17  H   UNL     1       2.865  -0.324  -0.430  0.00  0.00    +0.156 HD
ENDROOT
BRANCH  14  18
ATOM     18  C   UNL     1       5.448  -0.770  -0.248  0.00  0.00    +0.099 C 
BRANCH  18  19
ATOM     19  C   UNL     1       6.792  -1.163   0.367  0.00  0.00    -0.008 C 
ATOM     20  C   UNL     1       6.776  -2.651   0.721  0.00  0.00    +0.008 C 
ATOM     21  C   UNL     1       7.913  -0.890  -0.639  0.00  0.00    +0.008 C 
ENDBRANCH  18  19
ENDBRANCH  14  18
TORSDOF 2
