REMARK  Name = ZINC41587651
REMARK  6 active torsions:
REMARK  status: ('A' for Active; 'I' for Inactive)
REMARK    1  A    between atoms: C_1  and  C_2
REMARK    2  A    between atoms: C_10  and  C_11
REMARK    3  A    between atoms: N_21  and  C_24
REMARK    4  A    between atoms: C_24  and  C_25
REMARK    5  A    between atoms: C_25  and  C_26
REMARK    6  A    between atoms: C_25  and  C_27
REMARK                            x       y       z     vdW  Elec       q    Type
REMARK                         _______ _______ _______ _____ _____    ______ ____
ROOT
ATOM      1  C   UNL     1       0.986   1.398   0.042  0.00  0.00    +0.051 C 
ATOM      2  C   UNL     1       0.927  -0.108   0.056  0.00  0.00    +0.034 A 
ATOM      3  C   UNL     1       1.114  -0.819  -1.121  0.00  0.00    +0.133 A 
ATOM      4  C   UNL     1       1.064  -2.209  -1.119  0.00  0.00    +0.010 A 
ATOM      5  C   UNL     1       0.825  -2.885   0.046  0.00  0.00    +0.024 A 
ATOM      6  C   UNL     1       0.635  -2.182   1.235  0.00  0.00    +0.068 A 
ATOM      7  C   UNL     1       0.691  -0.779   1.248  0.00  0.00    +0.146 A 
ATOM      8  O   UNL     1       0.487  -0.326   2.504  0.00  0.00    -0.451 OA
ATOM      9  C   UNL     1       0.292  -1.340   3.380  0.00  0.00    +0.176 C 
ATOM     10  C   UNL     1       0.061  -1.216   4.710  0.00  0.00    +0.059 C 
ATOM     11  C   UNL     1       0.365  -2.600   2.623  0.00  0.00    +0.231 C 
ATOM     12  O   UNL     1       0.243  -3.735   3.050  0.00  0.00    -0.283 OA
ATOM     13  C   UNL     1       1.273  -2.990  -2.392  0.00  0.00    +0.126 C 
ATOM     14  N   UNL     1       1.098  -2.101  -3.550  0.00  0.00    -0.266 NA
ATOM     15  C   UNL     1       1.890  -0.873  -3.370  0.00  0.00    +0.318 C 
ATOM     16  O   UNL     1       1.345  -0.136  -2.273  0.00  0.00    -0.476 OA
ENDROOT
BRANCH  10  17
ATOM     17  C   UNL     1       0.162   0.101   5.354  0.00  0.00    -0.007 A 
ATOM     18  C   UNL     1       0.142   1.266   4.580  0.00  0.00    +0.009 A 
ATOM     19  C   UNL     1       0.236   2.498   5.192  0.00  0.00    +0.001 A 
ATOM     20  C   UNL     1       0.351   2.584   6.569  0.00  0.00    +0.001 A 
ATOM     21  C   UNL     1       0.371   1.437   7.343  0.00  0.00    +0.016 A 
ATOM     22  C   UNL     1       0.272   0.197   6.747  0.00  0.00    +0.025 A 
ATOM     23 BR   UNL     1       0.293  -1.369   7.807  0.00  0.00    -0.050 Br
ENDBRANCH  10  17
BRANCH  14  24
ATOM     24  C   UNL     1       1.463  -2.784  -4.798  0.00  0.00    +0.091 C 
BRANCH  24  25
ATOM     25  C   UNL     1       1.037  -1.927  -5.992  0.00  0.00    -0.003 C 
ATOM     26  C   UNL     1       1.526  -2.578  -7.287  0.00  0.00    +0.008 C 
ATOM     27  C   UNL     1      -0.489  -1.816  -6.021  0.00  0.00    +0.008 C 
ENDBRANCH  24  25
ENDBRANCH  14  24
TORSDOF 3
