REMARK  Name = ZINC20927455
REMARK  8 active torsions:
REMARK  status: ('A' for Active; 'I' for Inactive)
REMARK    1  A    between atoms: C_1  and  C_2
REMARK    2  A    between atoms: C_2  and  C_3
REMARK    3  A    between atoms: C_6  and  N_9
REMARK    4  A    between atoms: N_12  and  C_13
REMARK    5  A    between atoms: C_13  and  C_14
REMARK    6  A    between atoms: C_18  and  N_19
REMARK    7  A    between atoms: N_25  and  C_28
REMARK    8  A    between atoms: C_28  and  C_29
REMARK                            x       y       z     vdW  Elec       q    Type
REMARK                         _______ _______ _______ _____ _____    ______ ____
ROOT
ATOM      1  C   UNL     1      -3.099   5.980   8.412  0.00  0.00    +0.004 A 
ATOM      2  C   UNL     1      -2.598   5.504   9.621  0.00  0.00    -0.034 A 
ATOM      3  C   UNL     1      -3.437   5.554  10.694  0.00  0.00    -0.021 A 
ATOM      4  S   UNL     1      -4.921   6.264  10.038  0.00  0.00    -0.077 S 
ATOM      5  C   UNL     1      -4.366   6.471   8.352  0.00  0.00    +0.089 A 
ATOM      6  C   UNL     1      -3.139   5.105  12.086  0.00  0.00    -0.035 C 
ATOM      7  N   UNL     1      -1.919   4.275  12.051  0.00  0.00    +0.383 N 
ATOM      8  C   UNL     1      -0.856   4.949  11.292  0.00  0.00    -0.074 C 
ATOM      9  C   UNL     1      -1.189   4.944   9.798  0.00  0.00    +0.018 C 
ATOM     10  H   UNL     1      -2.156   3.330  11.541  0.00  0.00    -0.081 HD
ENDROOT
BRANCH   5  11
ATOM     11  N   UNL     1      -5.056   6.998   7.255  0.00  0.00    -0.317 N 
ATOM     12  C   UNL     1      -5.766   8.165   7.247  0.00  0.00    +0.092 A 
ATOM     13  C   UNL     1      -6.282   8.335   6.012  0.00  0.00    +0.019 A 
ATOM     14  C   UNL     1      -5.885   7.231   5.232  0.00  0.00    +0.019 A 
ATOM     15  C   UNL     1      -5.137   6.429   6.017  0.00  0.00    +0.092 A 
ENDBRANCH   5  11
BRANCH   7  16
ATOM     16  C   UNL     1      -1.467   3.946  13.410  0.00  0.00    -0.082 C 
ATOM     17  C   UNL     1      -2.496   3.034  14.082  0.00  0.00    -0.017 C 
ENDBRANCH   7  16
BRANCH   1  18
ATOM     18  C   UNL     1      -2.237   5.958   7.176  0.00  0.00    +0.144 C 
BRANCH  18  22
ATOM     19  N   UNL     1      -1.810   3.216   4.764  0.00  0.00    -0.269 N 
ATOM     20  C   UNL     1      -1.687   4.410   5.377  0.00  0.00    +0.304 C 
ATOM     21  O   UNL     1      -0.959   5.263   4.906  0.00  0.00    -0.252 OA
ATOM     22  N   UNL     1      -2.371   4.660   6.511  0.00  0.00    -0.295 N 
ATOM     23  H   UNL     1      -2.532   2.477   5.142  0.00  0.00    +0.156 HD
ATOM     24  H   UNL     1      -3.030   3.889   6.937  0.00  0.00    +0.151 HD
BRANCH  19  28
ATOM     25  C   UNL     1       0.543   2.324   1.444  0.00  0.00    -0.048 A 
ATOM     26  C   UNL     1      -0.735   1.804   1.544  0.00  0.00    +0.005 A 
ATOM     27  C   UNL     1      -1.515   2.094   2.646  0.00  0.00    +0.023 A 
ATOM     28  C   UNL     1      -1.020   2.917   3.649  0.00  0.00    +0.035 A 
ATOM     29  C   UNL     1       0.261   3.441   3.543  0.00  0.00    +0.023 A 
ATOM     30  C   UNL     1       1.039   3.143   2.442  0.00  0.00    +0.005 A 
BRANCH  25  32
ATOM     31  C   UNL     1       2.211   0.738   0.522  0.00  0.00    +0.009 C 
ATOM     32  C   UNL     1       1.394   2.001   0.244  0.00  0.00    +0.032 C 
ENDBRANCH  25  32
ENDBRANCH  19  28
ENDBRANCH  18  22
ENDBRANCH   1  18
TORSDOF 6
