REMARK  Name = ZINC40840016
REMARK  6 active torsions:
REMARK  status: ('A' for Active; 'I' for Inactive)
REMARK    1  A    between atoms: C_1  and  C_2
REMARK    2  A    between atoms: C_5  and  C_33
REMARK    3  A    between atoms: N_13  and  C_21
REMARK    4  A    between atoms: C_21  and  C_22
REMARK    5  A    between atoms: C_22  and  C_23
REMARK    6  A    between atoms: N_25  and  C_26
REMARK                            x       y       z     vdW  Elec       q    Type
REMARK                         _______ _______ _______ _____ _____    ______ ____
ROOT
ATOM      1  C   UNL     1       3.663  -3.404   1.138  0.00  0.00    +0.009 C 
ATOM      2  C   UNL     1       2.713  -3.004   0.007  0.00  0.00    +0.004 C 
ATOM      3  C   UNL     1       1.371  -3.716   0.192  0.00  0.00    +0.009 C 
ATOM      4  C   UNL     1       0.776  -3.343   1.551  0.00  0.00    +0.004 C 
ATOM      5  C   UNL     1       0.532  -1.831   1.600  0.00  0.00    +0.110 C 
ATOM      6  N   UNL     1       1.788  -1.139   1.280  0.00  0.00    -0.310 N 
ATOM      7  C   UNL     1       2.491  -1.489   0.037  0.00  0.00    +0.110 C 
ATOM      8  C   UNL     1       2.299  -0.176   2.131  0.00  0.00    +0.188 A 
ATOM      9  C   UNL     1       1.504   0.283   3.287  0.00  0.00    +0.292 A 
ATOM     10  O   UNL     1       0.398  -0.181   3.498  0.00  0.00    -0.264 OA
ATOM     11  N   UNL     1       2.019   1.224   4.107  0.00  0.00    -0.303 N 
ATOM     12  C   UNL     1       3.278   1.731   3.840  0.00  0.00    +0.070 A 
ATOM     13  C   UNL     1       3.833   2.700   4.670  0.00  0.00    +0.028 A 
ATOM     14  C   UNL     1       5.088   3.200   4.398  0.00  0.00    +0.002 A 
ATOM     15  C   UNL     1       5.805   2.743   3.301  0.00  0.00    +0.002 A 
ATOM     16  C   UNL     1       5.279   1.793   2.474  0.00  0.00    +0.030 A 
ATOM     17  C   UNL     1       4.004   1.268   2.729  0.00  0.00    +0.090 A 
ATOM     18  N   UNL     1       3.488   0.324   1.915  0.00  0.00    -0.225 NA
ATOM     19  C   UNL     1      -0.549  -4.081   1.749  0.00  0.00    +0.009 C 
ENDROOT
BRANCH  11  20
ATOM     20  C   UNL     1       1.256   1.701   5.263  0.00  0.00    +0.135 C 
BRANCH  20  21
ATOM     21  C   UNL     1       1.578   0.834   6.481  0.00  0.00    +0.118 C 
BRANCH  21  22
ATOM     22  C   UNL     1       0.793   1.325   7.669  0.00  0.00    +0.219 C 
ATOM     23  O   UNL     1       0.048   2.275   7.553  0.00  0.00    -0.275 OA
ATOM     24  N   UNL     1       0.918   0.708   8.861  0.00  0.00    -0.285 N 
ATOM     25  H   UNL     1       1.574   0.003   8.976  0.00  0.00    +0.155 HD
BRANCH  24  26
ATOM     26  C   UNL     1       0.100   1.084   9.933  0.00  0.00    +0.047 A 
ATOM     27  C   UNL     1      -1.078   1.781   9.698  0.00  0.00    +0.024 A 
ATOM     28  C   UNL     1      -1.883   2.151  10.758  0.00  0.00    +0.002 A 
ATOM     29  C   UNL     1      -1.517   1.828  12.052  0.00  0.00    +0.001 A 
ATOM     30  C   UNL     1      -0.345   1.135  12.290  0.00  0.00    +0.017 A 
ATOM     31  C   UNL     1       0.462   0.756  11.234  0.00  0.00    +0.039 A 
ATOM     32 BR   UNL     1       2.062  -0.199  11.559  0.00  0.00    -0.048 Br
ENDBRANCH  24  26
ENDBRANCH  21  22
ENDBRANCH  20  21
ENDBRANCH  11  20
TORSDOF 4
