REMARK  Name = ZINC36304248
REMARK  15 active torsions:
REMARK  status: ('A' for Active; 'I' for Inactive)
REMARK    1  A    between atoms: C_1  and  C_2
REMARK    2  A    between atoms: C_3  and  C_22
REMARK    3  A    between atoms: C_4  and  O_13
REMARK    4  A    between atoms: N_5  and  C_7
REMARK    5  A    between atoms: O_13  and  C_14
REMARK    6  A    between atoms: C_22  and  N_23
REMARK    7  A    between atoms: N_23  and  C_24
REMARK    8  A    between atoms: N_23  and  C_31
REMARK    9  A    between atoms: C_24  and  C_25
REMARK   10  A    between atoms: C_31  and  C_32
REMARK   11  A    between atoms: C_32  and  C_34
REMARK   12  A    between atoms: C_32  and  O_39
REMARK   13  A    between atoms: C_34  and  O_35
REMARK   14  A    between atoms: O_35  and  C_36
REMARK   15  A    between atoms: C_36  and  C_37
REMARK                            x       y       z     vdW  Elec       q    Type
REMARK                         _______ _______ _______ _____ _____    ______ ____
ROOT
ATOM      1  C   UNL     1       2.091   1.016   0.732  0.00  0.00    +0.068 C 
ATOM      2  C   UNL     1       1.510  -0.372   0.662  0.00  0.00    +0.065 A 
ATOM      3  C   UNL     1       0.815  -0.914  -0.424  0.00  0.00    +0.021 A 
ATOM      4  C   UNL     1       0.456  -2.184  -0.099  0.00  0.00    +0.225 A 
ATOM      5  N   UNL     1       0.915  -2.429   1.158  0.00  0.00    -0.200 N 
ATOM      6  N   UNL     1       1.575  -1.277   1.605  0.00  0.00    -0.168 NA
ENDROOT
BRANCH   5   7
ATOM      7  C   UNL     1       0.760  -3.623   1.876  0.00  0.00    +0.069 A 
ATOM      8  C   UNL     1      -0.455  -4.294   1.856  0.00  0.00    +0.028 A 
ATOM      9  C   UNL     1      -0.604  -5.471   2.564  0.00  0.00    +0.002 A 
ATOM     10  C   UNL     1       0.455  -5.980   3.292  0.00  0.00    +0.000 A 
ATOM     11  C   UNL     1       1.666  -5.314   3.314  0.00  0.00    +0.002 A 
ATOM     12  C   UNL     1       1.823  -4.140   2.604  0.00  0.00    +0.028 A 
ENDBRANCH   5   7
BRANCH   4  13
ATOM     13  O   UNL     1      -0.234  -3.050  -0.884  0.00  0.00    -0.435 OA
BRANCH  13  14
ATOM     14  C   UNL     1      -1.592  -2.992  -0.858  0.00  0.00    +0.166 A 
ATOM     15  C   UNL     1      -2.231  -1.998  -0.132  0.00  0.00    +0.052 A 
ATOM     16  C   UNL     1      -3.611  -1.940  -0.107  0.00  0.00    +0.042 A 
ATOM     17  C   UNL     1      -4.358  -2.873  -0.805  0.00  0.00    +0.126 A 
ATOM     18  C   UNL     1      -3.723  -3.867  -1.532  0.00  0.00    +0.080 A 
ATOM     19  C   UNL     1      -2.342  -3.925  -1.564  0.00  0.00    +0.168 A 
ATOM     20  F   UNL     1      -1.722  -4.891  -2.277  0.00  0.00    -0.202 F 
ATOM     21  F   UNL     1      -5.707  -2.814  -0.778  0.00  0.00    -0.205 F 
ENDBRANCH  13  14
ENDBRANCH   4  13
BRANCH   3  22
ATOM     22  C   UNL     1       0.516  -0.213  -1.725  0.00  0.00    -0.036 C 
BRANCH  22  23
ATOM     23  N   UNL     1       1.668  -0.344  -2.627  0.00  0.00    +0.386 N 
ATOM     24  H   UNL     1       2.494   0.016  -2.173  0.00  0.00    -0.081 HD
BRANCH  23  25
ATOM     25  C   UNL     1       1.414   0.416  -3.858  0.00  0.00    -0.046 C 
BRANCH  25  26
ATOM     26  C   UNL     1       1.235   1.896  -3.516  0.00  0.00    +0.102 C 
ATOM     27  C   UNL     1       1.083   2.719  -4.813  0.00  0.00    +0.032 C 
ATOM     28  C   UNL     1       1.895   4.002  -4.487  0.00  0.00    +0.030 C 
ATOM     29  C   UNL     1       3.023   3.418  -3.599  0.00  0.00    +0.160 C 
ATOM     30  O   UNL     1       2.395   2.380  -2.828  0.00  0.00    -0.378 OA
ENDBRANCH  25  26
ENDBRANCH  23  25
BRANCH  23  31
ATOM     31  C   UNL     1       1.871  -1.761  -2.959  0.00  0.00    -0.044 C 
BRANCH  31  32
ATOM     32  C   UNL     1       3.184  -1.921  -3.729  0.00  0.00    +0.124 C 
BRANCH  32  33
ATOM     33  O   UNL     1       3.058  -1.315  -5.016  0.00  0.00    -0.391 OA
ATOM     34  H   UNL     1       2.358  -1.696  -5.564  0.00  0.00    +0.210 HD
ENDBRANCH  32  33
BRANCH  32  35
ATOM     35  C   UNL     1       3.499  -3.409  -3.894  0.00  0.00    +0.190 C 
BRANCH  35  36
ATOM     36  O   UNL     1       4.781  -3.559  -4.509  0.00  0.00    -0.365 OA
BRANCH  36  37
ATOM     37  C   UNL     1       5.174  -4.918  -4.710  0.00  0.00    +0.248 C 
BRANCH  37  38
ATOM     38  C   UNL     1       6.501  -4.956  -5.345  0.00  0.00    -0.077 C 
ATOM     39  C   UNL     1       7.559  -4.986  -5.852  0.00  0.00    +0.006 C 
ENDBRANCH  37  38
ENDBRANCH  36  37
ENDBRANCH  35  36
ENDBRANCH  32  35
ENDBRANCH  31  32
ENDBRANCH  23  31
ENDBRANCH  22  23
ENDBRANCH   3  22
TORSDOF 14
