REMARK  Name = ZINC39880100
REMARK  13 active torsions:
REMARK  status: ('A' for Active; 'I' for Inactive)
REMARK    1  A    between atoms: C_1  and  C_2
REMARK    2  A    between atoms: C_2  and  C_3
REMARK    3  A    between atoms: C_3  and  C_4
REMARK    4  A    between atoms: C_4  and  O_5
REMARK    5  A    between atoms: O_5  and  C_6
REMARK    6  A    between atoms: C_9  and  C_15
REMARK    7  A    between atoms: C_11  and  O_12
REMARK    8  A    between atoms: O_12  and  C_13
REMARK    9  A    between atoms: C_13  and  C_14
REMARK   10  A    between atoms: C_22  and  C_39
REMARK   11  A    between atoms: N_30  and  C_31
REMARK   12  A    between atoms: C_34  and  C_37
REMARK   13  A    between atoms: C_37  and  C_38
REMARK                            x       y       z     vdW  Elec       q    Type
REMARK                         _______ _______ _______ _____ _____    ______ ____
ROOT
ATOM      1  C   UNL     1      -3.411  -8.156  -0.009  0.00  0.00    +0.150 C 
ATOM      2  C   UNL     1      -3.176  -8.696  -1.381  0.00  0.00    +0.072 A 
ATOM      3  C   UNL     1      -3.869  -8.447  -2.649  0.00  0.00    +0.199 A 
ATOM      4  O   UNL     1      -4.701  -7.568  -2.794  0.00  0.00    -0.287 OA
ATOM      5  C   UNL     1      -3.462  -9.368  -3.740  0.00  0.00    +0.065 A 
ATOM      6  C   UNL     1      -4.166  -9.392  -4.944  0.00  0.00    +0.018 A 
ATOM      7  C   UNL     1      -3.781 -10.250  -5.937  0.00  0.00    -0.050 A 
ATOM      8  C   UNL     1      -2.695 -11.093  -5.750  0.00  0.00    +0.007 A 
ATOM      9  C   UNL     1      -1.988 -11.082  -4.568  0.00  0.00    +0.047 A 
ATOM     10  C   UNL     1      -2.359 -10.214  -3.541  0.00  0.00    +0.139 A 
ATOM     11  O   UNL     1      -1.644 -10.212  -2.393  0.00  0.00    -0.450 OA
ATOM     12  C   UNL     1      -2.117  -9.557  -1.314  0.00  0.00    +0.199 A 
ATOM     13  C   UNL     1      -1.647  -9.604   0.081  0.00  0.00    +0.287 C 
ATOM     14  O   UNL     1      -0.719 -10.279   0.480  0.00  0.00    -0.266 OA
ATOM     15  N   UNL     1      -2.398  -8.788   0.852  0.00  0.00    -0.253 N 
ATOM     16  C   UNL     1      -4.539 -10.279  -7.239  0.00  0.00    +0.044 C 
ENDROOT
BRANCH   1  20
ATOM     17  C   UNL     1      -2.913  -3.909   0.009  0.00  0.00    +0.162 A 
ATOM     18  C   UNL     1      -1.804  -4.739  -0.000  0.00  0.00    +0.050 A 
ATOM     19  C   UNL     1      -1.968  -6.112  -0.006  0.00  0.00    +0.009 A 
ATOM     20  C   UNL     1      -3.238  -6.659  -0.002  0.00  0.00    -0.018 A 
ATOM     21  C   UNL     1      -4.348  -5.836   0.006  0.00  0.00    +0.055 A 
ATOM     22  C   UNL     1      -4.191  -4.460   0.018  0.00  0.00    +0.162 A 
BRANCH  17  23
ATOM     23  O   UNL     1      -2.753  -2.558   0.015  0.00  0.00    -0.488 OA
BRANCH  23  24
ATOM     24  C   UNL     1      -1.413  -2.063   0.004  0.00  0.00    +0.229 C 
BRANCH  24  25
ATOM     25  C   UNL     1      -1.433  -0.534   0.013  0.00  0.00    +0.041 C 
BRANCH  25  27
ATOM     26  C   UNL     1      -0.019   1.526   0.010  0.00  0.00    +0.004 C 
ATOM     27  C   UNL     1       0.002  -0.004   0.002  0.00  0.00    -0.000 C 
ENDBRANCH  25  27
ENDBRANCH  24  25
ENDBRANCH  23  24
ENDBRANCH  17  23
BRANCH  22  28
ATOM     28  O   UNL     1      -5.282  -3.649   0.033  0.00  0.00    -0.489 OA
BRANCH  28  29
ATOM     29  C   UNL     1      -6.562  -4.284   0.042  0.00  0.00    +0.226 C 
ATOM     30  C   UNL     1      -7.660  -3.219   0.058  0.00  0.00    +0.048 C 
ENDBRANCH  28  29
ENDBRANCH  22  28
ENDBRANCH   1  20
BRANCH  15  31
ATOM     31  C   UNL     1      -2.240  -8.579   2.225  0.00  0.00    +0.038 A 
ATOM     32  C   UNL     1      -3.089  -7.711   2.899  0.00  0.00    +0.024 A 
ATOM     33  C   UNL     1      -2.931  -7.506   4.255  0.00  0.00    +0.005 A 
ATOM     34  C   UNL     1      -1.928  -8.165   4.943  0.00  0.00    -0.048 A 
ATOM     35  C   UNL     1      -1.081  -9.030   4.275  0.00  0.00    +0.005 A 
ATOM     36  C   UNL     1      -1.237  -9.244   2.920  0.00  0.00    +0.024 A 
BRANCH  34  37
ATOM     37  C   UNL     1      -1.758  -7.939   6.423  0.00  0.00    +0.032 C 
ATOM     38  C   UNL     1      -2.603  -8.955   7.194  0.00  0.00    +0.009 C 
ENDBRANCH  34  37
ENDBRANCH  15  31
TORSDOF 9
