REMARK  Name = ZINC23483858
REMARK  11 active torsions:
REMARK  status: ('A' for Active; 'I' for Inactive)
REMARK    1  A    between atoms: C_1  and  C_2
REMARK    2  A    between atoms: C_2  and  C_4
REMARK    3  A    between atoms: C_2  and  S_18
REMARK    4  A    between atoms: C_4  and  C_6
REMARK    5  A    between atoms: C_6  and  C_16
REMARK    6  A    between atoms: S_18  and  C_19
REMARK    7  A    between atoms: C_22  and  C_28
REMARK    8  A    between atoms: N_23  and  C_24
REMARK    9  A    between atoms: C_24  and  C_25
REMARK   10  A    between atoms: C_25  and  C_26
REMARK   11  A    between atoms: C_25  and  C_27
REMARK                            x       y       z     vdW  Elec       q    Type
REMARK                         _______ _______ _______ _____ _____    ______ ____
ROOT
ATOM      1  C   UNL     1      -0.019   1.526   0.010  0.00  0.00    +0.028 C 
ATOM      2  C   UNL     1       0.002  -0.004   0.002  0.00  0.00    +0.123 C 
ENDROOT
BRANCH   2   3
ATOM      3  C   UNL     1      -1.412  -0.526   0.013  0.00  0.00    +0.189 C 
ATOM      4  O   UNL     1      -1.960  -0.817  -1.032  0.00  0.00    -0.290 OA
BRANCH   3   5
ATOM      5  C   UNL     1      -2.096  -0.676   1.230  0.00  0.00    +0.123 C 
ATOM      6  C   UNL     1      -3.416  -1.163   1.240  0.00  0.00    +0.091 C 
ATOM      7  N   UNL     1      -4.172  -1.538   0.178  0.00  0.00    -0.307 N 
ATOM      8  C   UNL     1      -5.460  -1.996   0.379  0.00  0.00    +0.046 A 
ATOM      9  C   UNL     1      -6.403  -2.429  -0.564  0.00  0.00    +0.024 A 
ATOM     10  C   UNL     1      -7.649  -2.853  -0.165  0.00  0.00    +0.002 A 
ATOM     11  C   UNL     1      -8.008  -2.866   1.173  0.00  0.00    +0.001 A 
ATOM     12  C   UNL     1      -7.095  -2.444   2.123  0.00  0.00    +0.017 A 
ATOM     13  C   UNL     1      -5.849  -2.020   1.726  0.00  0.00    +0.035 A 
ATOM     14  S   UNL     1      -4.410  -1.419   2.571  0.00  0.00    -0.071 S 
ATOM     15  H   UNL     1      -3.810  -1.484  -0.720  0.00  0.00    +0.153 HD
BRANCH   5  16
ATOM     16  C   UNL     1      -1.450  -0.333   2.461  0.00  0.00    +0.105 C 
ATOM     17  N   UNL     1      -0.937  -0.061   3.438  0.00  0.00    -0.191 NA
ENDBRANCH   5  16
ENDBRANCH   3   5
ENDBRANCH   2   3
BRANCH   2  18
ATOM     18  S   UNL     1       0.851  -0.589  -1.490  0.00  0.00    -0.075 S 
BRANCH  18  19
ATOM     19  C   UNL     1       2.509  -0.029  -1.285  0.00  0.00    +0.193 A 
ATOM     20  N   UNL     1       2.981   0.650  -0.264  0.00  0.00    -0.122 NA
ATOM     21  N   UNL     1       4.230   0.897  -0.435  0.00  0.00    -0.125 NA
ATOM     22  C   UNL     1       4.635   0.390  -1.580  0.00  0.00    +0.200 A 
ATOM     23  N   UNL     1       3.544  -0.224  -2.156  0.00  0.00    -0.299 N 
BRANCH  22  24
ATOM     24  C   UNL     1       5.995   0.459  -2.136  0.00  0.00    +0.172 A 
ATOM     25  C   UNL     1       7.123   0.795  -1.450  0.00  0.00    +0.053 A 
ATOM     26  C   UNL     1       8.190   0.732  -2.368  0.00  0.00    +0.042 A 
ATOM     27  C   UNL     1       7.668   0.365  -3.555  0.00  0.00    +0.196 A 
ATOM     28  O   UNL     1       6.343   0.196  -3.411  0.00  0.00    -0.460 OA
ENDBRANCH  22  24
BRANCH  23  29
ATOM     29  C   UNL     1       3.502  -0.934  -3.437  0.00  0.00    +0.129 C 
BRANCH  29  30
ATOM     30  C   UNL     1       3.155   0.051  -4.555  0.00  0.00    +0.003 C 
ATOM     31  C   UNL     1       4.280   1.077  -4.698  0.00  0.00    +0.009 C 
ATOM     32  C   UNL     1       2.988  -0.711  -5.871  0.00  0.00    +0.009 C 
ENDBRANCH  29  30
ENDBRANCH  23  29
ENDBRANCH  18  19
ENDBRANCH   2  18
TORSDOF 8
