REMARK  Name = ZINC35767369
REMARK  13 active torsions:
REMARK  status: ('A' for Active; 'I' for Inactive)
REMARK    1  A    between atoms: C_1  and  C_2
REMARK    2  A    between atoms: C_2  and  C_3
REMARK    3  A    between atoms: C_2  and  C_4
REMARK    4  A    between atoms: C_2  and  C_5
REMARK    5  A    between atoms: C_8  and  C_11
REMARK    6  A    between atoms: N_13  and  C_14
REMARK    7  A    between atoms: N_13  and  C_21
REMARK    8  A    between atoms: C_14  and  C_15
REMARK    9  A    between atoms: C_21  and  C_22
REMARK   10  A    between atoms: N_24  and  C_25
REMARK   11  A    between atoms: N_24  and  C_35
REMARK   12  A    between atoms: C_25  and  C_26
REMARK   13  A    between atoms: C_35  and  C_36
REMARK                            x       y       z     vdW  Elec       q    Type
REMARK                         _______ _______ _______ _____ _____    ______ ____
ROOT
ATOM      1  C   UNL     1       4.706  -2.083  -6.097  0.00  0.00    +0.204 C 
ENDROOT
BRANCH   1   4
ATOM      2  C   UNL     1       2.725  -1.954  -4.683  0.00  0.00    +0.247 C 
ATOM      3  O   UNL     1       2.123  -1.496  -3.732  0.00  0.00    -0.270 OA
ATOM      4  N   UNL     1       4.008  -1.604  -4.901  0.00  0.00    -0.286 N 
BRANCH   2   8
ATOM      5  C   UNL     1       0.787  -4.662  -7.320  0.00  0.00    -0.042 A 
ATOM      6  C   UNL     1       1.478  -3.578  -7.832  0.00  0.00    +0.005 A 
ATOM      7  C   UNL     1       2.109  -2.695  -6.981  0.00  0.00    +0.013 A 
ATOM      8  C   UNL     1       2.050  -2.897  -5.601  0.00  0.00    +0.037 A 
ATOM      9  C   UNL     1       1.353  -3.993  -5.091  0.00  0.00    +0.013 A 
ATOM     10  C   UNL     1       0.721  -4.866  -5.953  0.00  0.00    +0.005 A 
BRANCH   5  12
ATOM     11  C   UNL     1      -1.400  -5.643  -7.955  0.00  0.00    +0.015 C 
ATOM     12  C   UNL     1       0.100  -5.623  -8.256  0.00  0.00    -0.013 C 
ATOM     13  C   UNL     1       0.677  -7.027  -8.060  0.00  0.00    +0.015 C 
ATOM     14  C   UNL     1       0.325  -5.176  -9.701  0.00  0.00    +0.015 C 
ENDBRANCH   5  12
ENDBRANCH   2   8
BRANCH   4  15
ATOM     15  C   UNL     1       4.705  -0.743  -3.942  0.00  0.00    +0.140 C 
BRANCH  15  16
ATOM     16  C   UNL     1       5.504  -1.609  -2.966  0.00  0.00    +0.136 C 
ATOM     17  C   UNL     1       6.222  -0.719  -1.920  0.00  0.00    +0.035 C 
ATOM     18  C   UNL     1       6.385  -1.720  -0.744  0.00  0.00    +0.031 C 
ATOM     19  C   UNL     1       5.105  -2.576  -0.862  0.00  0.00    +0.160 C 
ATOM     20  O   UNL     1       4.620  -2.447  -2.205  0.00  0.00    -0.375 OA
ENDBRANCH  15  16
ENDBRANCH   4  15
ENDBRANCH   1   4
BRANCH   1  21
ATOM     21  C   UNL     1       4.530  -1.087  -7.214  0.00  0.00    +0.234 C 
ATOM     22  O   UNL     1       3.886  -0.076  -7.029  0.00  0.00    -0.274 OA
ATOM     23  N   UNL     1       5.089  -1.319  -8.418  0.00  0.00    -0.289 N 
BRANCH  23  24
ATOM     24  C   UNL     1       4.918  -0.350  -9.504  0.00  0.00    +0.143 C 
BRANCH  24  25
ATOM     25  C   UNL     1       6.038   0.657  -9.459  0.00  0.00    -0.026 A 
ATOM     26  C   UNL     1       5.899   1.811  -8.711  0.00  0.00    +0.009 A 
ATOM     27  C   UNL     1       6.924   2.738  -8.666  0.00  0.00    +0.050 A 
ATOM     28  C   UNL     1       8.094   2.512  -9.373  0.00  0.00    +0.166 A 
ATOM     29  C   UNL     1       8.234   1.349 -10.127  0.00  0.00    +0.167 A 
ATOM     30  C   UNL     1       7.205   0.422 -10.162  0.00  0.00    +0.054 A 
ATOM     31  O   UNL     1       9.463   1.361 -10.722  0.00  0.00    -0.453 OA
ATOM     32  C   UNL     1       9.909   2.728 -10.655  0.00  0.00    +0.466 C 
ATOM     33  O   UNL     1       9.234   3.252  -9.496  0.00  0.00    -0.453 OA
ENDBRANCH  24  25
ENDBRANCH  23  24
BRANCH  23  34
ATOM     34  C   UNL     1       5.867  -2.540  -8.641  0.00  0.00    +0.182 C 
BRANCH  34  35
ATOM     35  C   UNL     1       4.956  -3.634  -9.134  0.00  0.00    +0.122 A 
ATOM     36  C   UNL     1       4.672  -3.900 -10.422  0.00  0.00    +0.046 A 
ATOM     37  C   UNL     1       3.782  -4.999 -10.426  0.00  0.00    +0.041 A 
ATOM     38  C   UNL     1       3.575  -5.338  -9.141  0.00  0.00    +0.195 A 
ATOM     39  O   UNL     1       4.293  -4.511  -8.363  0.00  0.00    -0.466 OA
ENDBRANCH  34  35
ENDBRANCH  23  34
ENDBRANCH   1  21
TORSDOF 10
