REMARK  Name = ZINC38917999
REMARK  11 active torsions:
REMARK  status: ('A' for Active; 'I' for Inactive)
REMARK    1  A    between atoms: C_1  and  C_2
REMARK    2  A    between atoms: C_19  and  C_21
REMARK    3  A    between atoms: C_21  and  N_22
REMARK    4  A    between atoms: N_22  and  C_23
REMARK    5  A    between atoms: C_23  and  C_24
REMARK    6  A    between atoms: C_24  and  C_25
REMARK    7  A    between atoms: C_25  and  C_33
REMARK    8  A    between atoms: C_29  and  C_31
REMARK    9  A    between atoms: C_29  and  C_32
REMARK   10  A    between atoms: C_36  and  O_39
REMARK   11  A    between atoms: O_39  and  C_40
REMARK                            x       y       z     vdW  Elec       q    Type
REMARK                         _______ _______ _______ _____ _____    ______ ____
ROOT
ATOM      1  N   UNL     1       5.851   0.994   2.220  0.00  0.00    +0.380 N 
ATOM      2  H   UNL     1       6.780   0.788   1.885  0.00  0.00    -0.086 HD
ATOM      3  H   UNL     1       5.295   1.363   1.464  0.00  0.00    -0.086 HD
ENDROOT
BRANCH   1   4
ATOM      4  C   UNL     1       5.230  -0.236   2.730  0.00  0.00    -0.068 C 
BRANCH   4  20
ATOM      5  C   UNL     1       1.166  -2.279   2.318  0.00  0.00    +0.012 C 
ATOM      6  C   UNL     1       1.859  -3.615   2.591  0.00  0.00    -0.022 C 
ATOM      7  C   UNL     1       0.817  -4.666   2.970  0.00  0.00    +0.007 C 
ATOM      8  C   UNL     1       0.005  -4.176   4.171  0.00  0.00    +0.005 C 
ATOM      9  C   UNL     1       0.926  -4.014   5.384  0.00  0.00    +0.030 C 
ATOM     10  C   UNL     1       2.082  -3.116   4.999  0.00  0.00    -0.073 C 
ATOM     11  C   UNL     1       2.401  -2.078   5.731  0.00  0.00    +0.008 C 
ATOM     12  C   UNL     1       2.857  -3.453   3.747  0.00  0.00    +0.021 C 
ATOM     13  C   UNL     1       3.798  -2.302   3.403  0.00  0.00    +0.016 C 
ATOM     14  C   UNL     1       4.609  -2.628   2.147  0.00  0.00    +0.042 C 
ATOM     15  C   UNL     1       3.686  -3.043   0.985  0.00  0.00    +0.181 C 
ATOM     16  C   UNL     1       2.643  -4.050   1.353  0.00  0.00    +0.052 C 
ATOM     17  O   UNL     1       3.108  -1.806   0.550  0.00  0.00    -0.461 OA
ATOM     18  C   UNL     1       4.087  -0.875   0.562  0.00  0.00    +0.309 C 
ATOM     19  O   UNL     1       4.126   0.112  -0.135  0.00  0.00    -0.251 OA
ATOM     20  C   UNL     1       5.149  -1.270   1.605  0.00  0.00    +0.087 C 
ENDBRANCH   4  20
ENDBRANCH   1   4
BRANCH   1  21
ATOM     21  C   UNL     1       5.929   1.987   3.300  0.00  0.00    -0.082 C 
BRANCH  21  22
ATOM     22  C   UNL     1       6.576   3.268   2.770  0.00  0.00    -0.007 C 
BRANCH  22  23
ATOM     23  C   UNL     1       6.792   4.247   3.926  0.00  0.00    -0.001 C 
ATOM     24  C   UNL     1       7.520   5.493   3.413  0.00  0.00    +0.039 C 
ATOM     25  C   UNL     1       8.904   5.090   2.897  0.00  0.00    +0.161 C 
ATOM     26  O   UNL     1       9.633   4.448   3.945  0.00  0.00    -0.374 OA
ATOM     27  C   UNL     1       9.024   3.251   4.432  0.00  0.00    +0.065 C 
ATOM     28  C   UNL     1       7.645   3.580   5.010  0.00  0.00    +0.046 C 
ATOM     29  C   UNL     1       9.902   2.640   5.526  0.00  0.00    +0.041 C 
ATOM     30  C   UNL     1       8.870   2.253   3.283  0.00  0.00    +0.041 C 
BRANCH  23  31
ATOM     31  C   UNL     1       5.458   4.643   4.506  0.00  0.00    -0.041 A 
ATOM     32  C   UNL     1       5.138   4.288   5.803  0.00  0.00    +0.008 A 
ATOM     33  C   UNL     1       3.916   4.650   6.337  0.00  0.00    +0.046 A 
ATOM     34  C   UNL     1       3.011   5.370   5.571  0.00  0.00    +0.120 A 
ATOM     35  C   UNL     1       3.336   5.725   4.269  0.00  0.00    +0.046 A 
ATOM     36  C   UNL     1       4.561   5.365   3.742  0.00  0.00    +0.008 A 
BRANCH  34  37
ATOM     37  O   UNL     1       1.808   5.726   6.093  0.00  0.00    -0.495 OA
ATOM     38  C   UNL     1       0.926   6.466   5.247  0.00  0.00    +0.277 C 
ENDBRANCH  34  37
ENDBRANCH  23  31
ENDBRANCH  22  23
ENDBRANCH  21  22
ENDBRANCH   1  21
TORSDOF 7
