REMARK  Name = ZINC08761965
REMARK  7 active torsions:
REMARK  status: ('A' for Active; 'I' for Inactive)
REMARK    1  A    between atoms: C_1  and  O_2
REMARK    2  A    between atoms: O_2  and  C_3
REMARK    3  A    between atoms: C_6  and  C_9
REMARK    4  A    between atoms: C_23  and  O_35
REMARK    5  A    between atoms: C_25  and  C_27
REMARK    6  A    between atoms: C_30  and  O_33
REMARK    7  A    between atoms: O_33  and  C_34
REMARK                            x       y       z     vdW  Elec       q    Type
REMARK                         _______ _______ _______ _____ _____    ______ ____
ROOT
ATOM      1  C   UNL     1       2.489  -2.487  -4.354  0.00  0.00    +0.015 C 
ATOM      2  C   UNL     1       2.948  -1.741  -5.388  0.00  0.00    -0.004 C 
ATOM      3  C   UNL     1       2.949  -0.230  -5.443  0.00  0.00    +0.040 C 
ATOM      4  C   UNL     1       3.140   0.123  -6.934  0.00  0.00    +0.022 C 
ATOM      5  C   UNL     1       3.885  -1.108  -7.481  0.00  0.00    +0.064 C 
ATOM      6  C   UNL     1       3.504  -2.253  -6.577  0.00  0.00    +0.168 C 
ATOM      7  O   UNL     1       3.650  -3.431  -6.835  0.00  0.00    -0.292 OA
ATOM      8  C   UNL     1       5.393  -0.870  -7.425  0.00  0.00    +0.026 C 
ATOM      9  C   UNL     1       5.751   0.271  -8.383  0.00  0.00    +0.049 C 
ATOM     10  C   UNL     1       7.265   0.476  -8.397  0.00  0.00    +0.009 C 
ATOM     11  C   UNL     1       7.954  -0.802  -8.880  0.00  0.00    +0.001 C 
ATOM     12  C   UNL     1       7.469  -1.137 -10.292  0.00  0.00    +0.005 C 
ATOM     13  C   UNL     1       5.955  -1.355 -10.271  0.00  0.00    +0.065 C 
ATOM     14  C   UNL     1       5.260  -0.080  -9.789  0.00  0.00    +0.171 C 
ATOM     15  O   UNL     1       3.847  -0.299  -9.756  0.00  0.00    -0.340 OA
ATOM     16  C   UNL     1       3.448  -1.386  -8.917  0.00  0.00    +0.165 C 
ENDROOT
BRANCH   1  20
ATOM     17  C   UNL     1       1.246  -0.601  -0.766  0.00  0.00    +0.120 A 
ATOM     18  C   UNL     1       2.229  -0.013  -1.553  0.00  0.00    +0.046 A 
ATOM     19  C   UNL     1       2.640  -0.623  -2.716  0.00  0.00    +0.011 A 
ATOM     20  C   UNL     1       2.058  -1.834  -3.112  0.00  0.00    -0.024 A 
ATOM     21  C   UNL     1       1.064  -2.420  -2.317  0.00  0.00    +0.011 A 
ATOM     22  C   UNL     1       0.665  -1.804  -1.154  0.00  0.00    +0.046 A 
BRANCH  17  24
ATOM     23  C   UNL     1       1.486   1.235   0.722  0.00  0.00    +0.277 C 
ATOM     24  O   UNL     1       0.848   0.002   0.383  0.00  0.00    -0.495 OA
ENDBRANCH  17  24
ENDBRANCH   1  20
BRANCH  16  25
ATOM     25  C   UNL     1       1.949  -1.533  -8.965  0.00  0.00    -0.018 A 
ATOM     26  C   UNL     1       1.148  -0.411  -9.072  0.00  0.00    +0.010 A 
ATOM     27  C   UNL     1      -0.226  -0.543  -9.123  0.00  0.00    +0.046 A 
ATOM     28  C   UNL     1      -0.803  -1.803  -9.054  0.00  0.00    +0.120 A 
ATOM     29  C   UNL     1       0.002  -2.927  -8.941  0.00  0.00    +0.046 A 
ATOM     30  C   UNL     1       1.376  -2.789  -8.897  0.00  0.00    +0.010 A 
BRANCH  28  31
ATOM     31  O   UNL     1      -2.155  -1.936  -9.098  0.00  0.00    -0.495 OA
ATOM     32  C   UNL     1      -2.921  -0.736  -9.215  0.00  0.00    +0.277 C 
ENDBRANCH  28  31
ENDBRANCH  16  25
BRANCH  14  33
ATOM     33  O   UNL     1       5.561   0.994 -10.682  0.00  0.00    -0.364 OA
ATOM     34  H   UNL     1       5.277   0.839 -11.593  0.00  0.00    +0.213 HD
ENDBRANCH  14  33
TORSDOF 5
