REMARK  Name = ZINC20812950
REMARK  8 active torsions:
REMARK  status: ('A' for Active; 'I' for Inactive)
REMARK    1  A    between atoms: C_1  and  C_2
REMARK    2  A    between atoms: C_2  and  C_3
REMARK    3  A    between atoms: C_8  and  N_9
REMARK    4  A    between atoms: C_10  and  C_12
REMARK    5  A    between atoms: C_12  and  N_13
REMARK    6  A    between atoms: N_16  and  C_19
REMARK    7  A    between atoms: C_19  and  C_20
REMARK    8  A    between atoms: C_31  and  C_33
REMARK                            x       y       z     vdW  Elec       q    Type
REMARK                         _______ _______ _______ _____ _____    ______ ____
ROOT
ATOM      1  N   UNL     1      -1.281  -5.001   1.972  0.00  0.00    +0.387 N 
ATOM      2  C   UNL     1      -0.541  -4.757   0.726  0.00  0.00    -0.063 C 
ATOM      3  C   UNL     1      -0.184  -3.272   0.630  0.00  0.00    +0.066 C 
ATOM      4  N   UNL     1      -1.416  -2.471   0.674  0.00  0.00    -0.298 NA
ATOM      5  C   UNL     1      -2.155  -2.715   1.920  0.00  0.00    +0.066 C 
ATOM      6  C   UNL     1      -2.512  -4.201   2.016  0.00  0.00    -0.063 C 
ATOM      7  H   UNL     1      -0.643  -4.690   2.812  0.00  0.00    -0.081 HD
ENDROOT
BRANCH   1   8
ATOM      8  C   UNL     1      -1.576  -6.431   2.137  0.00  0.00    +0.019 C 
BRANCH   8  10
ATOM      9  N   UNL     1      -2.452  -7.923   3.905  0.00  0.00    -0.287 N 
ATOM     10  C   UNL     1      -2.110  -6.676   3.525  0.00  0.00    +0.201 C 
ATOM     11  O   UNL     1      -2.233  -5.751   4.300  0.00  0.00    -0.278 OA
ATOM     12  H   UNL     1      -2.273  -8.773   3.229  0.00  0.00    +0.155 HD
BRANCH   9  18
ATOM     13  C   UNL     1      -3.992  -9.130   5.321  0.00  0.00    -0.026 A 
ATOM     14  C   UNL     1      -4.564  -9.339   6.561  0.00  0.00    +0.005 A 
ATOM     15  C   UNL     1      -4.184  -8.562   7.639  0.00  0.00    +0.000 A 
ATOM     16  C   UNL     1      -3.231  -7.573   7.481  0.00  0.00    +0.002 A 
ATOM     17  C   UNL     1      -2.651  -7.362   6.246  0.00  0.00    +0.023 A 
ATOM     18  C   UNL     1      -3.034  -8.138   5.159  0.00  0.00    +0.036 A 
BRANCH  13  20
ATOM     19  C   UNL     1      -3.431 -11.148   3.994  0.00  0.00    +0.009 C 
ATOM     20  C   UNL     1      -4.405  -9.978   4.146  0.00  0.00    +0.033 C 
ENDBRANCH  13  20
ENDBRANCH   9  18
ENDBRANCH   8  10
ENDBRANCH   1   8
BRANCH   4  21
ATOM     21  C   UNL     1      -1.120  -1.042   0.508  0.00  0.00    +0.181 C 
BRANCH  21  22
ATOM     22  C   UNL     1      -2.407  -0.282   0.312  0.00  0.00    +0.235 C 
ATOM     23  O   UNL     1      -3.470  -0.861   0.387  0.00  0.00    -0.274 OA
ATOM     24  N   UNL     1      -2.376   1.040   0.054  0.00  0.00    -0.256 N 
ATOM     25  C   UNL     1      -3.555   1.759  -0.208  0.00  0.00    +0.079 A 
ATOM     26  C   UNL     1      -4.790   1.189   0.059  0.00  0.00    +0.027 A 
ATOM     27  C   UNL     1      -5.947   1.895  -0.213  0.00  0.00    +0.002 A 
ATOM     28  C   UNL     1      -5.873   3.165  -0.754  0.00  0.00    +0.004 A 
ATOM     29  C   UNL     1      -4.645   3.737  -1.025  0.00  0.00    +0.047 A 
ATOM     30  C   UNL     1      -3.478   3.037  -0.755  0.00  0.00    +0.142 A 
ATOM     31  O   UNL     1      -2.274   3.608  -1.020  0.00  0.00    -0.488 OA
ATOM     32  C   UNL     1      -1.142   2.745  -1.156  0.00  0.00    +0.256 C 
ATOM     33  C   UNL     1      -1.105   1.785   0.042  0.00  0.00    +0.149 C 
BRANCH  33  34
ATOM     34  C   UNL     1      -0.957   2.568   1.321  0.00  0.00    -0.023 A 
ATOM     35  C   UNL     1      -2.060   3.179   1.889  0.00  0.00    +0.005 A 
ATOM     36  C   UNL     1      -1.925   3.893   3.064  0.00  0.00    +0.000 A 
ATOM     37  C   UNL     1      -0.686   4.004   3.667  0.00  0.00    +0.000 A 
ATOM     38  C   UNL     1       0.417   3.398   3.097  0.00  0.00    +0.000 A 
ATOM     39  C   UNL     1       0.282   2.679   1.924  0.00  0.00    +0.005 A 
ENDBRANCH  33  34
ENDBRANCH  21  22
ENDBRANCH   4  21
TORSDOF 7
