REMARK  Name = ZINC23128723
REMARK  10 active torsions:
REMARK  status: ('A' for Active; 'I' for Inactive)
REMARK    1  A    between atoms: C_1  and  C_2
REMARK    2  A    between atoms: C_2  and  O_3
REMARK    3  A    between atoms: O_3  and  C_4
REMARK    4  A    between atoms: C_9  and  C_10
REMARK    5  A    between atoms: C_10  and  N_11
REMARK    6  A    between atoms: C_15  and  C_25
REMARK    7  A    between atoms: C_16  and  O_23
REMARK    8  A    between atoms: O_23  and  C_24
REMARK    9  A    between atoms: N_27  and  C_28
REMARK   10  A    between atoms: C_28  and  C_29
REMARK                            x       y       z     vdW  Elec       q    Type
REMARK                         _______ _______ _______ _____ _____    ______ ____
ROOT
ATOM      1  N   UNL     1      -0.095  -0.465  -1.362  0.00  0.00    -0.296 NA
ATOM      2  C   UNL     1       0.557   0.489  -2.270  0.00  0.00    +0.091 C 
ATOM      3  C   UNL     1       2.032   0.583  -1.885  0.00  0.00    +0.070 C 
ATOM      4  C   UNL     1       2.270   1.684  -0.880  0.00  0.00    +0.039 A 
ATOM      5  C   UNL     1       3.514   2.297  -0.910  0.00  0.00    +0.098 A 
ATOM      6  C   UNL     1       3.822   3.349   0.059  0.00  0.00    +0.139 A 
ATOM      7  C   UNL     1       2.852   3.677   0.985  0.00  0.00    +0.116 A 
ATOM      8  C   UNL     1       1.625   3.014   0.941  0.00  0.00    +0.255 A 
ATOM      9  O   UNL     1       0.773   3.292   1.770  0.00  0.00    -0.268 OA
ATOM     10  N   UNL     1       1.347   2.071   0.011  0.00  0.00    -0.310 N 
ATOM     11  C   UNL     1      -0.010   1.516   0.029  0.00  0.00    +0.140 C 
ATOM     12  C   UNL     1       0.018  -0.014   0.030  0.00  0.00    +0.106 C 
ENDROOT
BRANCH   5  13
ATOM     13  C   UNL     1       4.517   1.892  -1.909  0.00  0.00    +0.250 C 
ATOM     14  O   UNL     1       4.687   2.565  -2.908  0.00  0.00    -0.270 OA
ATOM     15  N   UNL     1       5.247   0.775  -1.717  0.00  0.00    -0.307 N 
ATOM     16  H   UNL     1       5.037   0.122  -0.857  0.00  0.00    +0.149 HD
BRANCH  15  17
ATOM     17  C   UNL     1       6.321   0.432  -2.652  0.00  0.00    +0.140 C 
BRANCH  17  18
ATOM     18  C   UNL     1       6.977  -0.853  -2.215  0.00  0.00    -0.023 A 
ATOM     19  C   UNL     1       8.059  -0.831  -1.355  0.00  0.00    +0.013 A 
ATOM     20  C   UNL     1       8.622  -2.004  -0.977  0.00  0.00    +0.045 A 
ATOM     21  S   UNL     1       7.623  -3.193  -1.857  0.00  0.00    -0.105 S 
ATOM     22  C   UNL     1       6.518  -2.046  -2.664  0.00  0.00    +0.050 A 
ENDBRANCH  17  18
ENDBRANCH  15  17
ENDBRANCH   5  13
BRANCH   6  23
ATOM     23  O   UNL     1       5.020   3.979   0.049  0.00  0.00    -0.494 OA
ATOM     24  C   UNL     1       5.228   4.992   1.035  0.00  0.00    +0.277 C 
ENDBRANCH   6  23
BRANCH   1  25
ATOM     25  C   UNL     1       0.463  -1.814  -1.526  0.00  0.00    +0.123 C 
BRANCH  25  31
ATOM     26  C   UNL     1      -1.572  -3.262  -1.297  0.00  0.00    +0.125 A 
ATOM     27  C   UNL     1      -2.342  -4.175  -0.590  0.00  0.00    +0.046 A 
ATOM     28  C   UNL     1      -1.923  -4.616   0.650  0.00  0.00    +0.004 A 
ATOM     29  C   UNL     1      -0.736  -4.151   1.186  0.00  0.00    +0.001 A 
ATOM     30  C   UNL     1       0.035  -3.245   0.482  0.00  0.00    +0.008 A 
ATOM     31  C   UNL     1      -0.379  -2.802  -0.759  0.00  0.00    +0.008 A 
BRANCH  26  32
ATOM     32  O   UNL     1      -1.983  -2.823  -2.515  0.00  0.00    -0.492 OA
BRANCH  32  34
ATOM     33  C   UNL     1      -3.517  -2.735  -4.380  0.00  0.00    +0.048 C 
ATOM     34  C   UNL     1      -3.222  -3.340  -3.006  0.00  0.00    +0.225 C 
ENDBRANCH  32  34
ENDBRANCH  26  32
ENDBRANCH  25  31
ENDBRANCH   1  25
TORSDOF 8
