REMARK  Name = ZINC35034981
REMARK  10 active torsions:
REMARK  status: ('A' for Active; 'I' for Inactive)
REMARK    1  A    between atoms: C_1  and  C_2
REMARK    2  A    between atoms: C_2  and  C_4
REMARK    3  A    between atoms: C_2  and  N_17
REMARK    4  A    between atoms: N_14  and  C_15
REMARK    5  A    between atoms: N_17  and  C_18
REMARK    6  A    between atoms: C_18  and  C_19
REMARK    7  A    between atoms: C_19  and  N_20
REMARK    8  A    between atoms: N_20  and  C_21
REMARK    9  A    between atoms: N_20  and  C_22
REMARK   10  A    between atoms: N_25  and  C_26
REMARK                            x       y       z     vdW  Elec       q    Type
REMARK                         _______ _______ _______ _____ _____    ______ ____
ROOT
ATOM      1  N   UNL     1      -1.136  -0.058  -0.028  0.00  0.00    -0.278 N 
ATOM      2  C   UNL     1      -1.646  -0.696  -1.101  0.00  0.00    +0.303 C 
ATOM      3  O   UNL     1      -0.933  -0.948  -2.053  0.00  0.00    -0.253 OA
ATOM      4  N   UNL     1      -2.945  -1.053  -1.118  0.00  0.00    -0.294 N 
ATOM      5  H   UNL     1      -3.514  -0.852  -0.359  0.00  0.00    +0.151 HD
ENDROOT
BRANCH   4   6
ATOM      6  C   UNL     1      -3.499  -1.746  -2.284  0.00  0.00    +0.037 C 
ATOM      7  C   UNL     1      -3.342  -0.863  -3.524  0.00  0.00    +0.029 C 
ATOM      8  C   UNL     1      -3.920  -1.586  -4.742  0.00  0.00    -0.008 C 
ATOM      9  C   UNL     1      -5.404  -1.875  -4.506  0.00  0.00    +0.007 C 
ATOM     10  C   UNL     1      -5.561  -2.758  -3.267  0.00  0.00    -0.008 C 
ATOM     11  C   UNL     1      -4.983  -2.035  -2.049  0.00  0.00    +0.029 C 
ATOM     12  C   UNL     1      -4.812  -4.075  -3.481  0.00  0.00    +0.007 C 
ATOM     13  C   UNL     1      -3.329  -3.786  -3.716  0.00  0.00    -0.008 C 
ATOM     14  C   UNL     1      -3.172  -2.903  -4.956  0.00  0.00    +0.007 C 
ATOM     15  C   UNL     1      -2.750  -3.063  -2.498  0.00  0.00    +0.029 C 
ENDBRANCH   4   6
BRANCH   1  17
ATOM     16  C   UNL     1       0.385   1.849   0.142  0.00  0.00    +0.036 C 
ATOM     17  C   UNL     1       0.276   0.330  -0.009  0.00  0.00    +0.141 C 
BRANCH  17  18
ATOM     18  C   UNL     1       0.966  -0.341   1.150  0.00  0.00    +0.133 A 
ATOM     19  N   UNL     1       0.614  -0.007   2.354  0.00  0.00    -0.232 NA
ATOM     20  C   UNL     1       1.190  -0.570   3.445  0.00  0.00    +0.080 A 
ATOM     21  C   UNL     1       0.812  -0.213   4.741  0.00  0.00    +0.048 A 
ATOM     22  C   UNL     1       1.428  -0.813   5.818  0.00  0.00    +0.043 A 
ATOM     23  C   UNL     1       2.421  -1.768   5.629  0.00  0.00    +0.021 A 
ATOM     24  C   UNL     1       2.807  -2.133   4.369  0.00  0.00    +0.017 A 
ATOM     25  C   UNL     1       2.200  -1.542   3.263  0.00  0.00    +0.065 A 
ATOM     26  C   UNL     1       2.575  -1.896   1.887  0.00  0.00    +0.262 A 
ATOM     27  O   UNL     1       3.437  -2.726   1.661  0.00  0.00    -0.267 OA
ATOM     28  N   UNL     1       1.922  -1.268   0.881  0.00  0.00    -0.298 N 
ATOM     29  C   UNL     1       2.253  -1.588  -0.509  0.00  0.00    +0.154 C 
ATOM     30 CL   UNL     1       0.960  -0.371   7.430  0.00  0.00    -0.083 Cl
ENDBRANCH  17  18
ENDBRANCH   1  17
BRANCH   1  31
ATOM     31  C   UNL     1      -1.995   0.246   1.119  0.00  0.00    +0.091 C 
BRANCH  31  32
ATOM     32  C   UNL     1      -2.635   1.622   0.926  0.00  0.00    -0.060 C 
BRANCH  32  33
ATOM     33  N   UNL     1      -3.497   1.927   2.077  0.00  0.00    +0.377 N 
ATOM     34  C   UNL     1      -4.017   3.294   1.950  0.00  0.00    -0.097 C 
ATOM     35  C   UNL     1      -4.617   0.978   2.115  0.00  0.00    -0.097 C 
ATOM     36  H   UNL     1      -2.961   1.848   2.928  0.00  0.00    -0.083 HD
ENDBRANCH  32  33
ENDBRANCH  31  32
ENDBRANCH   1  31
TORSDOF 6
