REMARK  Name = ZINC01224916
REMARK  8 active torsions:
REMARK  status: ('A' for Active; 'I' for Inactive)
REMARK    1  A    between atoms: C_1  and  C_2
REMARK    2  A    between atoms: N_12  and  C_13
REMARK    3  A    between atoms: C_13  and  C_15
REMARK    4  A    between atoms: C_13  and  C_29
REMARK    5  A    between atoms: C_19  and  O_27
REMARK    6  A    between atoms: O_27  and  C_28
REMARK    7  A    between atoms: N_33  and  C_34
REMARK    8  A    between atoms: C_34  and  C_35
REMARK                            x       y       z     vdW  Elec       q    Type
REMARK                         _______ _______ _______ _____ _____    ______ ____
ROOT
ATOM      1  C   UNL     1       1.567   0.505   1.955  0.00  0.00    +0.179 C 
ENDROOT
BRANCH   1  12
ATOM      2  C   UNL     1      -1.065   0.716   2.770  0.00  0.00    +0.028 C 
ATOM      3  C   UNL     1      -0.876   0.011   1.425  0.00  0.00    +0.072 C 
ATOM      4  C   UNL     1      -1.569  -1.358   1.454  0.00  0.00    +0.027 C 
ATOM      5  C   UNL     1      -1.427  -2.012   0.080  0.00  0.00    +0.039 C 
ATOM      6  C   UNL     1       0.013  -2.007  -0.361  0.00  0.00    -0.024 A 
ATOM      7  C   UNL     1       0.419  -2.904  -1.335  0.00  0.00    +0.043 A 
ATOM      8  C   UNL     1       1.734  -2.922  -1.763  0.00  0.00    +0.124 A 
ATOM      9  C   UNL     1       2.653  -2.041  -1.219  0.00  0.00    +0.040 A 
ATOM     10  C   UNL     1       2.256  -1.145  -0.247  0.00  0.00    +0.026 A 
ATOM     11  C   UNL     1       0.934  -1.127   0.185  0.00  0.00    +0.034 A 
ATOM     12  N   UNL     1       0.554  -0.213   1.177  0.00  0.00    -0.313 N 
ATOM     13  F   UNL     1       2.122  -3.801  -2.712  0.00  0.00    -0.205 F 
ENDBRANCH   1  12
BRANCH   1  14
ATOM     14  C   UNL     1       2.877  -0.237   1.882  0.00  0.00    +0.045 A 
ATOM     15  C   UNL     1       4.014   0.431   1.569  0.00  0.00    +0.021 A 
ATOM     16  C   UNL     1       5.271  -0.318   1.506  0.00  0.00    +0.002 A 
ATOM     17  C   UNL     1       6.476   0.318   1.189  0.00  0.00    +0.055 A 
ATOM     18  C   UNL     1       7.642  -0.418   1.138  0.00  0.00    +0.121 A 
ATOM     19  C   UNL     1       7.622  -1.786   1.401  0.00  0.00    +0.047 A 
ATOM     20  C   UNL     1       6.442  -2.424   1.714  0.00  0.00    +0.030 A 
ATOM     21  C   UNL     1       5.255  -1.700   1.771  0.00  0.00    +0.049 A 
ATOM     22  N   UNL     1       4.063  -2.321   2.083  0.00  0.00    -0.322 N 
ATOM     23  H   UNL     1       4.053  -3.273   2.266  0.00  0.00    +0.169 HD
ATOM     24  C   UNL     1       2.915  -1.623   2.145  0.00  0.00    +0.255 A 
ATOM     25  O   UNL     1       1.881  -2.203   2.429  0.00  0.00    -0.268 OA
BRANCH  18  26
ATOM     26  O   UNL     1       8.816   0.194   0.830  0.00  0.00    -0.495 OA
ATOM     27  C   UNL     1       9.986  -0.626   0.794  0.00  0.00    +0.277 C 
ENDBRANCH  18  26
ENDBRANCH   1  14
BRANCH   1  28
ATOM     28  C   UNL     1       1.122   0.599   3.392  0.00  0.00    +0.177 A 
ATOM     29  N   UNL     1       0.796  -0.399   4.177  0.00  0.00    -0.111 NA
ATOM     30  N   UNL     1       0.474   0.087   5.326  0.00  0.00    -0.023 NA
ATOM     31  N   UNL     1       0.587   1.369   5.294  0.00  0.00    -0.044 NA
ATOM     32  N   UNL     1       0.989   1.723   4.120  0.00  0.00    -0.223 N 
BRANCH  32  33
ATOM     33  C   UNL     1       1.248   3.091   3.665  0.00  0.00    +0.182 C 
BRANCH  33  34
ATOM     34  C   UNL     1      -0.045   3.727   3.224  0.00  0.00    -0.026 A 
ATOM     35  C   UNL     1      -0.488   3.562   1.925  0.00  0.00    +0.005 A 
ATOM     36  C   UNL     1      -1.674   4.145   1.520  0.00  0.00    +0.000 A 
ATOM     37  C   UNL     1      -2.417   4.894   2.414  0.00  0.00    +0.000 A 
ATOM     38  C   UNL     1      -1.973   5.058   3.713  0.00  0.00    +0.000 A 
ATOM     39  C   UNL     1      -0.790   4.471   4.119  0.00  0.00    +0.005 A 
ENDBRANCH  33  34
ENDBRANCH  32  33
ENDBRANCH   1  28
TORSDOF 6
