REMARK  Name = ZINC02293665
REMARK  10 active torsions:
REMARK  status: ('A' for Active; 'I' for Inactive)
REMARK    1  A    between atoms: C_1  and  C_2
REMARK    2  A    between atoms: C_2  and  C_3
REMARK    3  A    between atoms: C_2  and  C_4
REMARK    4  A    between atoms: C_2  and  O_5
REMARK    5  A    between atoms: O_5  and  C_6
REMARK    6  A    between atoms: C_6  and  C_8
REMARK    7  A    between atoms: C_12  and  N_13
REMARK    8  A    between atoms: C_14  and  C_15
REMARK    9  A    between atoms: C_20  and  O_21
REMARK   10  A    between atoms: C_26  and  N_50
REMARK                            x       y       z     vdW  Elec       q    Type
REMARK                         _______ _______ _______ _____ _____    ______ ____
ROOT
ATOM      1  C   UNL     1       1.244   1.962   0.001  0.00  0.00    +0.095 A 
ATOM      2  C   UNL     1       1.851   2.336  -1.210  0.00  0.00    -0.025 A 
ATOM      3  C   UNL     1       3.015   3.027  -1.128  0.00  0.00    -0.021 A 
ATOM      4  S   UNL     1       3.317   3.190   0.610  0.00  0.00    -0.075 S 
ATOM      5  C   UNL     1       1.869   2.328   1.201  0.00  0.00    +0.115 A 
ATOM      6  C   UNL     1       3.841   3.528  -2.270  0.00  0.00    -0.036 C 
ATOM      7  C   UNL     1       1.920   2.927  -3.615  0.00  0.00    -0.074 C 
ATOM      8  C   UNL     1       1.265   2.007  -2.582  0.00  0.00    +0.018 C 
ATOM      9  C   UNL     1       4.033   3.429  -4.687  0.00  0.00    -0.096 C 
ATOM     10  N   UNL     1       3.389   2.830  -3.498  0.00  0.00    +0.381 N 
ATOM     11  H   UNL     1       3.656   1.841  -3.437  0.00  0.00    -0.082 HD
ENDROOT
BRANCH   1  12
ATOM     12  C   UNL     1      -0.014   1.212   0.009  0.00  0.00    +0.343 C 
ATOM     13  O   UNL     1       0.002  -0.004   0.002  0.00  0.00    -0.245 OA
BRANCH  12  14
ATOM     14  O   UNL     1      -1.192   1.871   0.018  0.00  0.00    -0.455 OA
BRANCH  14  16
ATOM     15  C   UNL     1      -2.416   0.173   1.264  0.00  0.00    +0.055 C 
ATOM     16  C   UNL     1      -2.398   1.063   0.019  0.00  0.00    +0.106 C 
ATOM     17  C   UNL     1      -3.624   1.979   0.030  0.00  0.00    +0.055 C 
ATOM     18  C   UNL     1      -2.427   0.187  -1.235  0.00  0.00    +0.055 C 
ENDBRANCH  14  16
ENDBRANCH  12  14
ENDBRANCH   1  12
BRANCH   5  19
ATOM     19  N   UNL     1       1.479   2.089   2.471  0.00  0.00    -0.247 NA
ATOM     20  C   UNL     1       2.207   2.517   3.470  0.00  0.00    +0.123 C 
BRANCH  20  21
ATOM     21  C   UNL     1       1.783   2.257   4.851  0.00  0.00    +0.035 A 
ATOM     22  C   UNL     1       2.559   2.713   5.924  0.00  0.00    +0.027 A 
ATOM     23  C   UNL     1       2.154   2.466   7.218  0.00  0.00    +0.014 A 
ATOM     24  C   UNL     1       0.982   1.766   7.462  0.00  0.00    +0.018 A 
ATOM     25  C   UNL     1       0.207   1.310   6.414  0.00  0.00    +0.047 A 
ATOM     26  C   UNL     1       0.594   1.555   5.106  0.00  0.00    +0.125 A 
ATOM     27  I   UNL     1       3.315   3.149   8.822  0.00  0.00    -0.044 I 
BRANCH  26  28
ATOM     28  O   UNL     1      -0.170   1.112   4.075  0.00  0.00    -0.506 OA
ATOM     29  H   UNL     1       0.057   0.223   3.771  0.00  0.00    +0.292 HD
ENDBRANCH  26  28
ENDBRANCH  20  21
ENDBRANCH   5  19
TORSDOF 6
