REMARK  Name = ZINC56620625
REMARK  8 active torsions:
REMARK  status: ('A' for Active; 'I' for Inactive)
REMARK    1  A    between atoms: C_1  and  C_2
REMARK    2  A    between atoms: N_7  and  C_9
REMARK    3  A    between atoms: C_9  and  C_10
REMARK    4  A    between atoms: C_10  and  C_12
REMARK    5  A    between atoms: C_10  and  N_13
REMARK    6  A    between atoms: N_16  and  C_17
REMARK    7  A    between atoms: C_22  and  C_23
REMARK    8  A    between atoms: C_23  and  N_24
REMARK                            x       y       z     vdW  Elec       q    Type
REMARK                         _______ _______ _______ _____ _____    ______ ____
ROOT
ATOM      1  N   UNL     1       0.197  -4.496   2.205  0.00  0.00    -0.298 N 
ATOM      2  C   UNL     1      -0.001  -5.760   1.781  0.00  0.00    +0.304 C 
ATOM      3  O   UNL     1       0.951  -6.470   1.519  0.00  0.00    -0.253 OA
ATOM      4  N   UNL     1      -1.254  -6.237   1.646  0.00  0.00    -0.269 N 
ATOM      5  H   UNL     1      -0.562  -3.930   2.413  0.00  0.00    +0.150 HD
ATOM      6  H   UNL     1      -2.011  -5.699   1.929  0.00  0.00    +0.156 HD
ENDROOT
BRANCH   4   7
ATOM      7  C   UNL     1      -1.465  -7.506   1.097  0.00  0.00    +0.040 A 
ATOM      8  C   UNL     1      -0.517  -8.064   0.248  0.00  0.00    +0.024 A 
ATOM      9  C   UNL     1      -0.728  -9.317  -0.291  0.00  0.00    +0.002 A 
ATOM     10  C   UNL     1      -1.881 -10.018   0.013  0.00  0.00    +0.000 A 
ATOM     11  C   UNL     1      -2.826  -9.466   0.857  0.00  0.00    +0.007 A 
ATOM     12  C   UNL     1      -2.619  -8.215   1.405  0.00  0.00    -0.005 A 
BRANCH  12  13
ATOM     13  C   UNL     1      -3.647  -7.616   2.330  0.00  0.00    +0.180 C 
BRANCH  13  14
ATOM     14  N   UNL     1      -4.550  -6.753   1.564  0.00  0.00    -0.267 N 
ATOM     15  C   UNL     1      -5.896  -6.846   1.527  0.00  0.00    +0.108 A 
ATOM     16  C   UNL     1      -6.354  -5.871   0.708  0.00  0.00    +0.041 A 
ATOM     17  C   UNL     1      -5.250  -5.158   0.228  0.00  0.00    +0.134 A 
ATOM     18  N   UNL     1      -4.168  -5.682   0.745  0.00  0.00    -0.179 NA
ENDBRANCH  13  14
ENDBRANCH  12  13
ENDBRANCH   4   7
BRANCH   1  19
ATOM     19  C   UNL     1       1.560  -3.978   2.351  0.00  0.00    +0.055 C 
ATOM     20  C   UNL     1       2.151  -4.465   3.676  0.00  0.00    +0.026 C 
BRANCH  19  21
ATOM     21  C   UNL     1       1.528  -2.448   2.338  0.00  0.00    -0.057 C 
BRANCH  21  27
ATOM     22  C   UNL     1       1.788  -2.320  -2.549  0.00  0.00    +0.005 C 
ATOM     23  C   UNL     1       0.941  -1.939  -1.333  0.00  0.00    -0.031 C 
ATOM     24  C   UNL     1       0.715  -0.424  -1.322  0.00  0.00    -0.001 C 
ATOM     25  C   UNL     1      -0.067  -0.044  -0.061  0.00  0.00    -0.018 C 
ATOM     26  C   UNL     1       0.700  -0.525   1.172  0.00  0.00    -0.079 C 
ATOM     27  N   UNL     1       0.860  -1.983   1.115  0.00  0.00    +0.381 N 
ATOM     28  C   UNL     1       1.670  -2.350  -0.052  0.00  0.00    -0.076 C 
ATOM     29  H   UNL     1      -0.047  -2.417   1.044  0.00  0.00    -0.082 HD
ENDBRANCH  21  27
ENDBRANCH  19  21
ENDBRANCH   1  19
TORSDOF 6
