REMARK  Name = ZINC24140977
REMARK  7 active torsions:
REMARK  status: ('A' for Active; 'I' for Inactive)
REMARK    1  A    between atoms: C_3  and  O_29
REMARK    2  A    between atoms: C_6  and  C_7
REMARK    3  A    between atoms: C_10  and  S_13
REMARK    4  A    between atoms: N_11  and  N_12
REMARK    5  A    between atoms: S_13  and  C_14
REMARK    6  A    between atoms: C_14  and  C_15
REMARK    7  A    between atoms: O_29  and  C_30
REMARK                            x       y       z     vdW  Elec       q    Type
REMARK                         _______ _______ _______ _____ _____    ______ ____
ROOT
ATOM      1  C   UNL     1      -0.252   2.110  -2.217  0.00  0.00    +0.182 A 
ATOM      2  N   UNL     1      -1.285   2.562  -2.889  0.00  0.00    -0.127 NA
ATOM      3  N   UNL     1      -2.363   2.373  -2.216  0.00  0.00    -0.121 NA
ATOM      4  C   UNL     1      -2.086   1.783  -1.075  0.00  0.00    +0.209 A 
ATOM      5  N   UNL     1      -0.733   1.592  -1.037  0.00  0.00    -0.224 N 
ENDROOT
BRANCH   1  11
ATOM      6  C   UNL     1       2.106   1.331  -2.023  0.00  0.00    +0.015 A 
ATOM      7  C   UNL     1       3.422   1.365  -2.432  0.00  0.00    +0.046 A 
ATOM      8  C   UNL     1       3.812   2.218  -3.455  0.00  0.00    +0.127 A 
ATOM      9  C   UNL     1       2.877   3.037  -4.075  0.00  0.00    +0.046 A 
ATOM     10  C   UNL     1       1.558   3.005  -3.676  0.00  0.00    +0.015 A 
ATOM     11  C   UNL     1       1.162   2.148  -2.647  0.00  0.00    +0.021 A 
BRANCH   8  12
ATOM     12  O   UNL     1       5.111   2.252  -3.852  0.00  0.00    -0.434 OA
BRANCH  12  13
ATOM     13  C   UNL     1       6.019   1.384  -3.172  0.00  0.00    +0.541 C 
ATOM     14  F   UNL     1       6.034   1.699  -1.809  0.00  0.00    -0.166 F 
ATOM     15  F   UNL     1       5.610   0.057  -3.340  0.00  0.00    -0.166 F 
ENDBRANCH  12  13
ENDBRANCH   8  12
ENDBRANCH   1  11
BRANCH   5  16
ATOM     16  N   UNL     1      -0.010   1.013  -0.033  0.00  0.00    -0.295 N 
ATOM     17  H   UNL     1      -0.520   0.636   0.866  0.00  0.00    +0.163 HD
ATOM     18  H   UNL     1       1.083   0.924  -0.124  0.00  0.00    +0.163 HD
ENDBRANCH   5  16
BRANCH   4  19
ATOM     19  S   UNL     1      -3.242   1.325   0.173  0.00  0.00    -0.075 S 
BRANCH  19  20
ATOM     20  C   UNL     1      -4.778   1.894  -0.598  0.00  0.00    +0.173 C 
BRANCH  20  21
ATOM     21  C   UNL     1      -5.938   1.598   0.317  0.00  0.00    +0.226 C 
ATOM     22  O   UNL     1      -5.746   1.056   1.385  0.00  0.00    -0.275 OA
ATOM     23  N   UNL     1      -7.190   1.937  -0.051  0.00  0.00    -0.297 N 
ATOM     24  C   UNL     1      -7.465   2.441  -1.405  0.00  0.00    +0.108 C 
ATOM     25  C   UNL     1      -8.214   3.768  -1.301  0.00  0.00    +0.019 C 
ATOM     26  C   UNL     1      -9.457   3.589  -0.426  0.00  0.00    +0.007 C 
ATOM     27  C   UNL     1      -9.026   3.164   0.983  0.00  0.00    +0.010 C 
ATOM     28  C   UNL     1      -8.308   1.815   0.891  0.00  0.00    +0.079 C 
ATOM     29  C   UNL     1      -7.794   1.394   2.265  0.00  0.00    +0.023 C 
ATOM     30  C   UNL     1      -6.837   2.456   2.810  0.00  0.00    +0.002 C 
ATOM     31  C   UNL     1      -7.579   3.790   2.927  0.00  0.00    +0.000 C 
ATOM     32  C   UNL     1      -8.068   4.219   1.543  0.00  0.00    +0.005 C 
ENDBRANCH  20  21
ENDBRANCH  19  20
ENDBRANCH   4  19
TORSDOF 7
