REMARK  Name = ZINC39840886
REMARK  12 active torsions:
REMARK  status: ('A' for Active; 'I' for Inactive)
REMARK    1  A    between atoms: C_1  and  C_2
REMARK    2  A    between atoms: C_2  and  C_3
REMARK    3  A    between atoms: C_3  and  C_4
REMARK    4  A    between atoms: C_4  and  N_5
REMARK    5  A    between atoms: C_15  and  C_28
REMARK    6  A    between atoms: N_19  and  C_20
REMARK    7  A    between atoms: C_20  and  C_21
REMARK    8  A    between atoms: C_28  and  C_30
REMARK    9  A    between atoms: C_33  and  O_36
REMARK   10  A    between atoms: O_36  and  C_37
REMARK   11  A    between atoms: C_37  and  C_38
REMARK   12  A    between atoms: C_38  and  C_39
REMARK                            x       y       z     vdW  Elec       q    Type
REMARK                         _______ _______ _______ _____ _____    ______ ____
ROOT
ATOM      1  N   UNL     1       1.141  -1.954  -2.420  0.00  0.00    -0.269 N 
ATOM      2  C   UNL     1       0.412  -2.175  -3.590  0.00  0.00    +0.042 A 
ATOM      3  C   UNL     1      -0.902  -1.850  -3.919  0.00  0.00    +0.024 A 
ATOM      4  C   UNL     1      -1.408  -2.179  -5.159  0.00  0.00    +0.002 A 
ATOM      5  C   UNL     1      -0.617  -2.833  -6.086  0.00  0.00    +0.000 A 
ATOM      6  C   UNL     1       0.690  -3.159  -5.767  0.00  0.00    +0.008 A 
ATOM      7  C   UNL     1       1.198  -2.832  -4.530  0.00  0.00    +0.011 A 
ATOM      8  C   UNL     1       2.541  -3.036  -3.879  0.00  0.00    +0.174 C 
ATOM      9  C   UNL     1       2.400  -2.423  -2.509  0.00  0.00    +0.253 C 
ATOM     10  O   UNL     1       3.255  -2.365  -1.651  0.00  0.00    -0.272 OA
ATOM     11  C   UNL     1       3.635  -2.364  -4.662  0.00  0.00    +0.089 C 
ATOM     12  C   UNL     1       4.522  -3.333  -4.992  0.00  0.00    +0.250 C 
ATOM     13  C   UNL     1       4.050  -4.627  -4.453  0.00  0.00    +0.288 C 
ATOM     14  O   UNL     1       4.627  -5.689  -4.581  0.00  0.00    -0.266 OA
ATOM     15  N   UNL     1       2.885  -4.454  -3.798  0.00  0.00    -0.268 N 
ATOM     16  O   UNL     1       5.659  -3.148  -5.703  0.00  0.00    -0.282 OA
ENDROOT
BRANCH  11  17
ATOM     17  C   UNL     1       3.724  -0.940  -5.001  0.00  0.00    +0.196 C 
ATOM     18  O   UNL     1       3.017  -0.477  -5.877  0.00  0.00    -0.287 OA
BRANCH  17  19
ATOM     19  C   UNL     1       4.672  -0.067  -4.280  0.00  0.00    +0.022 A 
ATOM     20  C   UNL     1       5.566  -0.616  -3.356  0.00  0.00    +0.015 A 
ATOM     21  C   UNL     1       6.448   0.201  -2.686  0.00  0.00    +0.046 A 
ATOM     22  C   UNL     1       6.451   1.571  -2.927  0.00  0.00    +0.121 A 
ATOM     23  C   UNL     1       5.563   2.121  -3.845  0.00  0.00    +0.046 A 
ATOM     24  C   UNL     1       4.682   1.310  -4.524  0.00  0.00    +0.015 A 
BRANCH  22  25
ATOM     25  O   UNL     1       7.322   2.373  -2.265  0.00  0.00    -0.492 OA
BRANCH  25  26
ATOM     26  C   UNL     1       7.271   3.770  -2.561  0.00  0.00    +0.229 C 
BRANCH  26  27
ATOM     27  C   UNL     1       8.319   4.507  -1.723  0.00  0.00    +0.038 C 
ATOM     28  C   UNL     1       8.264   6.003  -2.040  0.00  0.00    +0.007 C 
ENDBRANCH  26  27
ENDBRANCH  25  26
ENDBRANCH  22  25
ENDBRANCH  17  19
ENDBRANCH  11  17
BRANCH   1  29
ATOM     29  C   UNL     1       0.602  -1.282  -1.235  0.00  0.00    +0.114 C 
BRANCH  29  30
ATOM     30  C   UNL     1       0.879   0.219  -1.329  0.00  0.00    +0.019 C 
BRANCH  30  32
ATOM     31  C   UNL     1       0.531   2.431  -0.220  0.00  0.00    +0.004 C 
ATOM     32  C   UNL     1       0.253   0.930  -0.127  0.00  0.00    -0.002 C 
ENDBRANCH  30  32
ENDBRANCH  29  30
ENDBRANCH   1  29
BRANCH  15  33
ATOM     33  C   UNL     1       2.106  -5.497  -3.127  0.00  0.00    +0.146 C 
BRANCH  33  34
ATOM     34  C   UNL     1       1.125  -6.097  -4.101  0.00  0.00    -0.012 A 
ATOM     35  C   UNL     1      -0.145  -5.558  -4.239  0.00  0.00    +0.008 A 
ATOM     36  C   UNL     1      -1.014  -6.143  -5.148  0.00  0.00    +0.020 A 
ATOM     37  C   UNL     1      -0.588  -7.236  -5.880  0.00  0.00    +0.111 A 
ATOM     38  N   UNL     1       0.627  -7.721  -5.721  0.00  0.00    -0.263 NA
ATOM     39  C   UNL     1       1.482  -7.187  -4.871  0.00  0.00    +0.115 A 
ENDBRANCH  33  34
ENDBRANCH  15  33
TORSDOF 10
