REMARK  Name = ZINC01813164
REMARK  5 active torsions:
REMARK  status: ('A' for Active; 'I' for Inactive)
REMARK    1  A    between atoms: C_4  and  C_7
REMARK    2  A    between atoms: C_8  and  N_61
REMARK    3  A    between atoms: N_11  and  C_14
REMARK    4  A    between atoms: N_25  and  S_26
REMARK    5  A    between atoms: S_26  and  C_29
REMARK                            x       y       z     vdW  Elec       q    Type
REMARK                         _______ _______ _______ _____ _____    ______ ____
ROOT
ATOM      1  C   UNL     1       8.280   5.853  -1.008  0.00  0.00    +0.183 C 
ATOM      2  C   UNL     1       8.341   7.166  -0.665  0.00  0.00    +0.187 C 
ATOM      3  C   UNL     1       9.620   7.816  -0.349  0.00  0.00    +0.030 A 
ATOM      4  C   UNL     1       9.645   9.077   0.249  0.00  0.00    +0.012 A 
ATOM      5  C   UNL     1      10.855   9.677   0.536  0.00  0.00    +0.001 A 
ATOM      6  C   UNL     1      12.050   9.043   0.238  0.00  0.00    +0.001 A 
ATOM      7  C   UNL     1      12.051   7.794  -0.353  0.00  0.00    +0.012 A 
ATOM      8  C   UNL     1      10.841   7.174  -0.649  0.00  0.00    +0.034 A 
ATOM      9  C   UNL     1      10.797   5.835  -1.276  0.00  0.00    +0.211 C 
ATOM     10  O   UNL     1      11.726   5.391  -1.921  0.00  0.00    -0.285 OA
ATOM     11  C   UNL     1       9.526   5.061  -1.056  0.00  0.00    +0.135 C 
ATOM     12  N   UNL     1       9.522   3.763  -0.920  0.00  0.00    -0.128 NA
ATOM     13  O   UNL     1       7.195   7.893  -0.613  0.00  0.00    -0.290 OA
ENDROOT
BRANCH   1  16
ATOM     14  C   UNL     1       4.739   5.669  -0.629  0.00  0.00    +0.100 C 
ATOM     15  C   UNL     1       6.067   4.995  -0.244  0.00  0.00    +0.103 C 
ATOM     16  N   UNL     1       7.049   5.256  -1.306  0.00  0.00    -0.285 NA
ATOM     17  C   UNL     1       6.716   4.879  -2.687  0.00  0.00    +0.103 C 
ATOM     18  C   UNL     1       5.390   5.547  -3.071  0.00  0.00    +0.100 C 
ATOM     19  N   UNL     1       4.553   4.964  -1.955  0.00  0.00    -0.397 NA
ATOM     20  H   UNL     1       4.948   4.029  -1.803  0.00  0.00    +0.126 HD
BRANCH  19  22
ATOM     21  C   UNL     1       2.941   4.267  -3.545  0.00  0.00    +0.021 C 
ATOM     22  C   UNL     1       3.192   4.698  -2.304  0.00  0.00    +0.053 C 
BRANCH  21  26
ATOM     23  C   UNL     1      -0.648   2.158  -4.374  0.00  0.00    +0.000 A 
ATOM     24  C   UNL     1      -0.392   2.603  -3.089  0.00  0.00    +0.001 A 
ATOM     25  C   UNL     1       0.772   3.289  -2.812  0.00  0.00    +0.008 A 
ATOM     26  C   UNL     1       1.694   3.534  -3.833  0.00  0.00    -0.024 A 
ATOM     27  C   UNL     1       1.429   3.082  -5.128  0.00  0.00    +0.008 A 
ATOM     28  C   UNL     1       0.261   2.397  -5.390  0.00  0.00    +0.001 A 
ENDBRANCH  21  26
ENDBRANCH  19  22
ENDBRANCH   1  16
BRANCH  12  29
ATOM     29  S   UNL     1       8.197   3.002  -0.283  0.00  0.00    +0.099 S 
ATOM     30  O   UNL     1       7.926   3.630   0.963  0.00  0.00    -0.146 OA
ATOM     31  O   UNL     1       7.232   2.927  -1.324  0.00  0.00    -0.146 OA
BRANCH  29  32
ATOM     32  C   UNL     1       8.673   1.345   0.081  0.00  0.00    +0.113 A 
ATOM     33  C   UNL     1       8.521   0.356  -0.873  0.00  0.00    +0.030 A 
ATOM     34  C   UNL     1       8.899  -0.943  -0.589  0.00  0.00    +0.017 A 
ATOM     35  C   UNL     1       9.420  -1.255   0.653  0.00  0.00    +0.018 A 
ATOM     36  C   UNL     1       9.567  -0.267   1.610  0.00  0.00    +0.017 A 
ATOM     37  C   UNL     1       9.194   1.033   1.323  0.00  0.00    +0.030 A 
ATOM     38 BR   UNL     1       9.931  -3.033   1.044  0.00  0.00    -0.050 Br
ENDBRANCH  29  32
ENDBRANCH  12  29
TORSDOF 5
