REMARK  Name = ZINC53619558
REMARK  12 active torsions:
REMARK  status: ('A' for Active; 'I' for Inactive)
REMARK    1  A    between atoms: C_1  and  C_2
REMARK    2  A    between atoms: C_2  and  N_3
REMARK    3  A    between atoms: C_5  and  C_17
REMARK    4  A    between atoms: N_19  and  C_20
REMARK    5  A    between atoms: C_20  and  C_22
REMARK    6  A    between atoms: C_20  and  C_26
REMARK    7  A    between atoms: C_22  and  C_23
REMARK    8  A    between atoms: C_23  and  C_24
REMARK    9  A    between atoms: C_23  and  C_25
REMARK   10  A    between atoms: N_28  and  C_29
REMARK   11  A    between atoms: C_29  and  C_30
REMARK   12  A    between atoms: C_30  and  C_31
REMARK                            x       y       z     vdW  Elec       q    Type
REMARK                         _______ _______ _______ _____ _____    ______ ____
ROOT
ATOM      1  C   UNL     1       3.630  -2.747   1.413  0.00  0.00    +0.246 C 
ATOM      2  O   UNL     1       3.902  -3.807   1.948  0.00  0.00    -0.270 OA
ATOM      3  N   UNL     1       4.417  -2.266   0.430  0.00  0.00    -0.300 N 
ATOM      4  H   UNL     1       4.200  -1.422   0.004  0.00  0.00    +0.150 HD
ENDROOT
BRANCH   1   7
ATOM      5  N   UNL     1       0.711  -0.489   1.189  0.00  0.00    -0.325 N 
ATOM      6  C   UNL     1       2.161  -0.713   1.155  0.00  0.00    +0.149 C 
ATOM      7  C   UNL     1       2.492  -2.023   1.821  0.00  0.00    +0.079 C 
ATOM      8  C   UNL     1       1.698  -2.516   2.817  0.00  0.00    +0.198 C 
ATOM      9  O   UNL     1       2.011  -3.681   3.427  0.00  0.00    -0.287 OA
ATOM     10  C   UNL     1       0.500  -1.764   3.220  0.00  0.00    +0.047 A 
ATOM     11  C   UNL     1       0.022  -0.742   2.374  0.00  0.00    +0.045 A 
ATOM     12  C   UNL     1      -1.103  -0.020   2.723  0.00  0.00    +0.073 A 
ATOM     13  C   UNL     1      -1.759  -0.297   3.914  0.00  0.00    +0.168 A 
ATOM     14  C   UNL     1      -1.287  -1.302   4.762  0.00  0.00    +0.167 A 
ATOM     15  C   UNL     1      -0.164  -2.041   4.416  0.00  0.00    +0.063 A 
ATOM     16  O   UNL     1      -2.103  -1.366   5.856  0.00  0.00    -0.453 OA
ATOM     17  C   UNL     1      -2.833  -0.125   5.864  0.00  0.00    +0.466 C 
ATOM     18  O   UNL     1      -2.869   0.261   4.478  0.00  0.00    -0.453 OA
BRANCH   5  20
ATOM     19  C   UNL     1      -0.019   1.526   0.010  0.00  0.00    +0.024 C 
ATOM     20  C   UNL     1       0.002  -0.004   0.002  0.00  0.00    +0.102 C 
ENDBRANCH   5  20
ENDBRANCH   1   7
BRANCH   3  21
ATOM     21  C   UNL     1       5.600  -3.018   0.006  0.00  0.00    +0.159 C 
BRANCH  21  22
ATOM     22  C   UNL     1       6.605  -2.073  -0.601  0.00  0.00    +0.233 C 
ATOM     23  O   UNL     1       6.357  -0.888  -0.671  0.00  0.00    -0.274 OA
ATOM     24  N   UNL     1       7.779  -2.545  -1.065  0.00  0.00    -0.313 N 
ATOM     25  H   UNL     1       7.977  -3.493  -1.008  0.00  0.00    +0.149 HD
BRANCH  24  26
ATOM     26  C   UNL     1       8.756  -1.627  -1.655  0.00  0.00    +0.110 C 
BRANCH  26  27
ATOM     27  C   UNL     1       9.992  -2.412  -2.098  0.00  0.00    +0.073 C 
BRANCH  27  28
ATOM     28  C   UNL     1      10.997  -1.467  -2.705  0.00  0.00    +0.035 A 
ATOM     29  N   UNL     1      12.052  -0.876  -2.063  0.00  0.00    -0.350 N 
ATOM     30  C   UNL     1      12.693  -0.110  -2.972  0.00  0.00    +0.171 A 
ATOM     31  N   UNL     1      12.077  -0.215  -4.117  0.00  0.00    -0.352 N 
ATOM     32  C   UNL     1      11.033  -1.047  -3.983  0.00  0.00    +0.105 A 
ATOM     33  H   UNL     1      12.293  -0.987  -1.130  0.00  0.00    +0.166 HD
ATOM     34  H   UNL     1      12.335   0.235  -4.937  0.00  0.00    +0.166 HD
ENDBRANCH  27  28
ENDBRANCH  26  27
ENDBRANCH  24  26
ENDBRANCH  21  22
BRANCH  21  35
ATOM     35  C   UNL     1       5.193  -4.066  -1.033  0.00  0.00    +0.034 C 
BRANCH  35  36
ATOM     36  C   UNL     1       4.269  -5.097  -0.382  0.00  0.00    -0.015 C 
ATOM     37  C   UNL     1       3.763  -6.072  -1.447  0.00  0.00    +0.007 C 
ATOM     38  C   UNL     1       5.042  -5.869   0.690  0.00  0.00    +0.007 C 
ENDBRANCH  35  36
ENDBRANCH  21  35
ENDBRANCH   3  21
TORSDOF 9
