REMARK  Name = ZINC50919362
REMARK  7 active torsions:
REMARK  status: ('A' for Active; 'I' for Inactive)
REMARK    1  A    between atoms: CG1_1  and  CB_2
REMARK    2  A    between atoms: CB_2  and  CG2_3
REMARK    3  A    between atoms: CB_2  and  CA_4
REMARK    4  A    between atoms: CA_4  and  C_6
REMARK    5  A    between atoms: CA_4  and  N_9
REMARK    6  A    between atoms: C_10  and  C_12
REMARK    7  A    between atoms: C_12  and  C_13
REMARK                            x       y       z     vdW  Elec       q    Type
REMARK                         _______ _______ _______ _____ _____    ______ ____
ROOT
ATOM      1  N   VAL A   1      -2.142  -0.048  -1.174  0.00  0.00    -0.302 N 
ATOM      2  C   UNK A   0      -3.485   0.062  -1.159  0.00  0.00    +0.225 C 
ATOM      3  O   UNK A   0      -4.107  -0.240  -0.163  0.00  0.00    -0.275 OA
ATOM      4  H   VAL A   1      -1.644   0.194  -1.971  0.00  0.00    +0.150 HD
ENDROOT
BRANCH   1   5
ATOM      5  CA  VAL A   1      -1.433  -0.534   0.013  0.00  0.00    +0.189 C 
BRANCH   5   7
ATOM      6  CG1 VAL A   1      -0.019   1.526   0.010  0.00  0.00    +0.009 C 
ATOM      7  CB  VAL A   1       0.002  -0.004   0.002  0.00  0.00    +0.014 C 
ATOM      8  CG2 VAL A   1       0.742  -0.511   1.242  0.00  0.00    +0.009 C 
ENDBRANCH   5   7
BRANCH   5   9
ATOM      9  C   VAL A   1      -1.413  -2.041   0.005  0.00  0.00    +0.376 C 
ATOM     10  O   VAL A   1      -1.034  -2.650   0.990  0.00  0.00    -0.244 OA
ATOM     11  OXT VAL A   1      -1.775  -2.650  -0.988  0.00  0.00    -0.244 OA
ENDBRANCH   5   9
ENDBRANCH   1   5
BRANCH   2  12
ATOM     12  C   UNK A   0      -4.214   0.561  -2.380  0.00  0.00    +0.220 C 
BRANCH  12  13
ATOM     13  C   UNK A   0      -5.695   0.590  -2.104  0.00  0.00    +0.365 C 
ATOM     14  O   UNK A   0      -6.120   0.238  -1.016  0.00  0.00    -0.246 OA
ATOM     15  O   UNK A   0      -6.469   0.966  -2.968  0.00  0.00    -0.246 OA
ENDBRANCH  12  13
ENDBRANCH   2  12
TORSDOF 5
