REMARK  Name = ZINC08231696
REMARK  7 active torsions:
REMARK  status: ('A' for Active; 'I' for Inactive)
REMARK    1  A    between atoms: C_1  and  C_2
REMARK    2  A    between atoms: C_3  and  C_12
REMARK    3  A    between atoms: C_4  and  C_11
REMARK    4  A    between atoms: C_12  and  C_13
REMARK    5  A    between atoms: C_13  and  C_14
REMARK    6  A    between atoms: N_16  and  C_17
REMARK    7  A    between atoms: C_18  and  C_25
REMARK                            x       y       z     vdW  Elec       q    Type
REMARK                         _______ _______ _______ _____ _____    ______ ____
ROOT
ATOM      1  C   UNL     1      -3.074   3.086   1.476  0.00  0.00    +0.218 C 
ATOM      2  O   UNL     1      -3.606   3.392   0.430  0.00  0.00    -0.275 OA
ATOM      3  N   UNL     1      -3.654   3.413   2.648  0.00  0.00    -0.279 N 
ATOM      4  H   UNL     1      -3.228   3.169   3.484  0.00  0.00    +0.155 HD
ENDROOT
BRANCH   3   5
ATOM      5  C   UNL     1      -4.859   4.098   2.657  0.00  0.00    +0.084 A 
ATOM      6  C   UNL     1      -5.605   4.512   3.747  0.00  0.00    +0.068 A 
ATOM      7  C   UNL     1      -6.853   5.228   3.482  0.00  0.00    -0.023 A 
ATOM      8  C   UNL     1      -7.147   5.399   2.181  0.00  0.00    -0.004 A 
ATOM      9  S   UNL     1      -5.801   4.636   1.309  0.00  0.00    -0.077 S 
ATOM     10  C   UNL     1      -8.443   6.139   1.989  0.00  0.00    +0.043 C 
ATOM     11  C   UNL     1      -8.722   6.798   3.358  0.00  0.00    +0.010 C 
ATOM     12  C   UNL     1      -7.968   5.857   4.319  0.00  0.00    +0.037 C 
BRANCH   6  13
ATOM     13  C   UNL     1      -5.158   4.246   5.119  0.00  0.00    +0.244 C 
ATOM     14  O   UNL     1      -4.453   5.053   5.696  0.00  0.00    -0.270 OA
ATOM     15  N   UNL     1      -5.529   3.109   5.740  0.00  0.00    -0.325 N 
ATOM     16  H   UNL     1      -6.092   2.466   5.280  0.00  0.00    +0.145 HD
ATOM     17  H   UNL     1      -5.234   2.933   6.647  0.00  0.00    +0.145 HD
ENDBRANCH   6  13
ENDBRANCH   3   5
BRANCH   1  18
ATOM     18  C   UNL     1      -1.763   2.342   1.466  0.00  0.00    +0.101 C 
BRANCH  18  19
ATOM     19  C   UNL     1      -1.327   2.098   0.020  0.00  0.00    +0.048 C 
BRANCH  19  22
ATOM     20  C   UNL     1       1.192   3.561   0.010  0.00  0.00    +0.066 C 
ATOM     21  C   UNL     1       1.196   2.054   0.002  0.00  0.00    +0.047 A 
ATOM     22  C   UNL     1      -0.016   1.354   0.009  0.00  0.00    -0.005 A 
ATOM     23  C   UNL     1       0.002  -0.004   0.002  0.00  0.00    +0.048 A 
ATOM     24  N   UNL     1       1.200  -0.647  -0.013  0.00  0.00    -0.201 N 
ATOM     25  C   UNL     1       2.365   0.066  -0.020  0.00  0.00    +0.253 A 
ATOM     26  N   UNL     1       2.337   1.404  -0.013  0.00  0.00    -0.216 NA
ATOM     27  N   UNL     1       3.363  -0.810  -0.034  0.00  0.00    -0.197 NA
ATOM     28  C   UNL     1       2.876  -2.044  -0.036  0.00  0.00    +0.247 A 
ATOM     29  N   UNL     1       1.565  -2.000  -0.024  0.00  0.00    -0.152 NA
ATOM     30  C   UNL     1      -1.286  -0.786   0.010  0.00  0.00    +0.066 C 
ENDBRANCH  19  22
ENDBRANCH  18  19
ENDBRANCH   1  18
TORSDOF 5
