REMARK  Name = ZINC38799072
REMARK  5 active torsions:
REMARK  status: ('A' for Active; 'I' for Inactive)
REMARK    1  A    between atoms: C_1  and  C_2
REMARK    2  A    between atoms: C_5  and  C_8
REMARK    3  A    between atoms: C_11  and  C_18
REMARK    4  A    between atoms: C_14  and  C_16
REMARK    5  A    between atoms: C_20  and  C_31
REMARK                            x       y       z     vdW  Elec       q    Type
REMARK                         _______ _______ _______ _____ _____    ______ ____
ROOT
ATOM      1  C   UNL     1       2.296  -6.214   2.300  0.00  0.00    +0.152 C 
ATOM      2  C   UNL     1       1.781  -7.157   3.371  0.00  0.00    -0.014 C 
ATOM      3  C   UNL     1       2.319  -7.016   4.653  0.00  0.00    +0.002 A 
ATOM      4  C   UNL     1       1.897  -7.852   5.708  0.00  0.00    +0.030 A 
ATOM      5  C   UNL     1       2.437  -7.693   6.947  0.00  0.00    +0.042 A 
ATOM      6  C   UNL     1       3.402  -6.718   7.197  0.00  0.00    +0.022 A 
ATOM      7  C   UNL     1       3.849  -5.882   6.219  0.00  0.00    +0.025 A 
ATOM      8  C   UNL     1       3.335  -5.989   4.915  0.00  0.00    +0.041 A 
ATOM      9  N   UNL     1       3.775  -5.168   3.956  0.00  0.00    -0.284 N 
ATOM     10  C   UNL     1       3.344  -5.205   2.711  0.00  0.00    +0.230 C 
ATOM     11  O   UNL     1       3.790  -4.425   1.891  0.00  0.00    -0.274 OA
ATOM     12 CL   UNL     1       1.914  -8.724   8.242  0.00  0.00    -0.084 Cl
ATOM     13  H   UNL     1       4.448  -4.510   4.189  0.00  0.00    +0.155 HD
ENDROOT
BRANCH   1  16
ATOM     14  C   UNL     1      -0.294  -4.046   0.406  0.00  0.00    +0.137 C 
ATOM     15  C   UNL     1       1.156  -4.556   0.532  0.00  0.00    +0.083 C 
ATOM     16  C   UNL     1       1.117  -5.458   1.745  0.00  0.00    +0.055 C 
ATOM     17  N   UNL     1      -0.058  -5.483   2.224  0.00  0.00    -0.185 NA
ATOM     18  N   UNL     1      -0.984  -4.699   1.531  0.00  0.00    -0.184 N 
ATOM     19  C   UNL     1      -2.289  -4.561   1.839  0.00  0.00    +0.250 C 
ATOM     20  O   UNL     1      -3.000  -3.848   1.161  0.00  0.00    -0.273 OA
BRANCH  14  25
ATOM     21  C   UNL     1      -0.493   1.703   0.953  0.00  0.00    +0.044 C 
ATOM     22  C   UNL     1      -0.441   0.204   0.810  0.00  0.00    -0.050 A 
ATOM     23  C   UNL     1      -0.528  -0.375  -0.442  0.00  0.00    +0.004 A 
ATOM     24  C   UNL     1      -0.481  -1.750  -0.573  0.00  0.00    +0.006 A 
ATOM     25  C   UNL     1      -0.345  -2.547   0.548  0.00  0.00    -0.025 A 
ATOM     26  C   UNL     1      -0.257  -1.968   1.801  0.00  0.00    +0.006 A 
ATOM     27  C   UNL     1      -0.301  -0.593   1.931  0.00  0.00    +0.004 A 
ENDBRANCH  14  25
BRANCH  19  28
ATOM     28  C   UNL     1      -2.865  -5.292   3.024  0.00  0.00    +0.206 C 
ATOM     29 CL   UNL     1      -4.620  -4.906   3.173  0.00  0.00    -0.116 Cl
ENDBRANCH  19  28
ENDBRANCH   1  16
BRANCH   2  30
ATOM     30  C   UNL     1       0.798  -8.138   3.084  0.00  0.00    -0.020 A 
ATOM     31  C   UNL     1      -0.452  -8.093   3.722  0.00  0.00    +0.008 A 
ATOM     32  C   UNL     1      -1.400  -9.050   3.437  0.00  0.00    +0.001 A 
ATOM     33  C   UNL     1      -1.123 -10.055   2.523  0.00  0.00    +0.000 A 
ATOM     34  C   UNL     1       0.107 -10.108   1.889  0.00  0.00    +0.001 A 
ATOM     35  C   UNL     1       1.067  -9.157   2.156  0.00  0.00    +0.008 A 
ENDBRANCH   2  30
TORSDOF 4
