REMARK  Name = ZINC61594076
REMARK  6 active torsions:
REMARK  status: ('A' for Active; 'I' for Inactive)
REMARK    1  A    between atoms: C_1  and  C_2
REMARK    2  A    between atoms: C_2  and  C_3
REMARK    3  A    between atoms: C_2  and  N_4
REMARK    4  A    between atoms: C_10  and  S_11
REMARK    5  A    between atoms: S_11  and  C_12
REMARK    6  A    between atoms: C_15  and  N_22
REMARK                            x       y       z     vdW  Elec       q    Type
REMARK                         _______ _______ _______ _____ _____    ______ ____
ROOT
ATOM      1  C   UNL     1      -2.299  -2.839  -3.347  0.00  0.00    +0.042 A 
ATOM      2  C   UNL     1      -3.607  -2.949  -2.925  0.00  0.00    +0.019 A 
ATOM      3  C   UNL     1      -4.531  -3.693  -3.650  0.00  0.00    +0.024 A 
ATOM      4  C   UNL     1      -4.161  -4.339  -4.810  0.00  0.00    +0.034 A 
ATOM      5  C   UNL     1      -2.831  -4.245  -5.267  0.00  0.00    +0.022 A 
ATOM      6  C   UNL     1      -1.888  -3.484  -4.533  0.00  0.00    +0.086 A 
ATOM      7  N   UNL     1      -0.628  -3.389  -4.966  0.00  0.00    -0.254 NA
ATOM      8  C   UNL     1      -0.238  -3.985  -6.067  0.00  0.00    +0.111 A 
ATOM      9  C   UNL     1      -1.115  -4.744  -6.838  0.00  0.00    +0.020 A 
ATOM     10  C   UNL     1      -2.416  -4.890  -6.445  0.00  0.00    +0.013 A 
ENDROOT
BRANCH   4  11
ATOM     11  N   UNL     1      -5.099  -5.083  -5.529  0.00  0.00    -0.357 N 
ATOM     12  H   UNL     1      -6.014  -5.146  -5.212  0.00  0.00    +0.142 HD
ATOM     13  H   UNL     1      -4.836  -5.537  -6.345  0.00  0.00    +0.142 HD
ENDBRANCH   4  11
BRANCH   1  14
ATOM     14  S   UNL     1      -1.145  -1.891  -2.411  0.00  0.00    -0.048 S 
BRANCH  14  21
ATOM     15  N   UNL     1       0.943  -2.848  -0.812  0.00  0.00    -0.268 N 
ATOM     16  C   UNL     1       1.415  -4.022  -0.349  0.00  0.00    +0.345 A 
ATOM     17  O   UNL     1       2.385  -4.173   0.373  0.00  0.00    -0.245 OA
ATOM     18  N   UNL     1       0.620  -5.000  -0.830  0.00  0.00    -0.226 N 
ATOM     19  H   UNL     1       0.714  -5.951  -0.665  0.00  0.00    +0.194 HD
ATOM     20  N   UNL     1      -0.370  -4.389  -1.613  0.00  0.00    -0.144 NA
ATOM     21  C   UNL     1      -0.167  -3.103  -1.587  0.00  0.00    +0.197 A 
BRANCH  15  23
ATOM     22  C   UNL     1       1.493  -1.272   0.975  0.00  0.00    +0.031 C 
ATOM     23  C   UNL     1       1.509  -1.526  -0.534  0.00  0.00    +0.088 C 
ATOM     24  C   UNL     1       2.950  -1.470  -1.045  0.00  0.00    +0.031 C 
ENDBRANCH  15  23
ENDBRANCH  14  21
ENDBRANCH   1  14
TORSDOF 4
