REMARK  Name = ZINC12950465
REMARK  6 active torsions:
REMARK  status: ('A' for Active; 'I' for Inactive)
REMARK    1  A    between atoms: C_1  and  O_2
REMARK    2  A    between atoms: O_2  and  C_3
REMARK    3  A    between atoms: C_3  and  C_5
REMARK    4  A    between atoms: C_5  and  C_32
REMARK    5  A    between atoms: C_10  and  C_13
REMARK    6  A    between atoms: N_22  and  C_25
REMARK                            x       y       z     vdW  Elec       q    Type
REMARK                         _______ _______ _______ _____ _____    ______ ____
ROOT
ATOM      1  C   UNL     1       0.657  -2.104  -1.120  0.00  0.00    +0.155 C 
ATOM      2  C   UNL     1       1.870  -2.541  -1.924  0.00  0.00    +0.125 C 
ATOM      3  C   UNL     1       2.935  -2.537  -0.761  0.00  0.00    +0.112 C 
ATOM      4  C   UNL     1       2.237  -3.288   0.295  0.00  0.00    +0.099 C 
ATOM      5  N   UNL     1       0.850  -2.683   0.244  0.00  0.00    -0.290 NA
ATOM      6  C   UNL     1       4.174  -2.558  -1.499  0.00  0.00    +0.232 C 
ATOM      7  O   UNL     1       5.211  -3.101  -1.183  0.00  0.00    -0.274 OA
ATOM      8  N   UNL     1       3.924  -1.831  -2.637  0.00  0.00    -0.210 N 
ATOM      9  C   UNL     1       2.582  -1.596  -2.841  0.00  0.00    +0.233 C 
ATOM     10  O   UNL     1       2.079  -0.793  -3.597  0.00  0.00    -0.274 OA
ATOM     11  H   UNL     1       0.729  -1.980   0.957  0.00  0.00    +0.124 HD
ENDROOT
BRANCH   4  12
ATOM     12  C   UNL     1       2.215  -4.761  -0.020  0.00  0.00    -0.011 A 
ATOM     13  C   UNL     1       1.124  -5.315  -0.664  0.00  0.00    +0.006 A 
ATOM     14  C   UNL     1       1.104  -6.666  -0.953  0.00  0.00    +0.000 A 
ATOM     15  C   UNL     1       2.175  -7.466  -0.598  0.00  0.00    +0.001 A 
ATOM     16  C   UNL     1       3.266  -6.914   0.045  0.00  0.00    +0.020 A 
ATOM     17  C   UNL     1       3.289  -5.560   0.330  0.00  0.00    +0.046 A 
ATOM     18 CL   UNL     1       4.663  -4.864   1.132  0.00  0.00    -0.083 Cl
ENDBRANCH   4  12
BRANCH   8  19
ATOM     19  C   UNL     1       4.928  -1.381  -3.507  0.00  0.00    +0.044 A 
ATOM     20  C   UNL     1       4.591  -0.645  -4.635  0.00  0.00    +0.025 A 
ATOM     21  C   UNL     1       5.581  -0.203  -5.490  0.00  0.00    +0.022 A 
ATOM     22  C   UNL     1       6.907  -0.494  -5.224  0.00  0.00    +0.041 A 
ATOM     23  C   UNL     1       7.245  -1.228  -4.101  0.00  0.00    +0.022 A 
ATOM     24  C   UNL     1       6.259  -1.667  -3.239  0.00  0.00    +0.025 A 
ATOM     25 CL   UNL     1       8.150   0.062  -6.302  0.00  0.00    -0.084 Cl
ENDBRANCH   8  19
BRANCH   1  26
ATOM     26  C   UNL     1      -0.605  -2.643  -1.742  0.00  0.00    -0.016 A 
ATOM     27  C   UNL     1      -0.675  -2.834  -3.109  0.00  0.00    +0.006 A 
ATOM     28  C   UNL     1      -1.833  -3.329  -3.679  0.00  0.00    +0.000 A 
ATOM     29  C   UNL     1      -2.920  -3.633  -2.883  0.00  0.00    +0.000 A 
ATOM     30  C   UNL     1      -2.850  -3.442  -1.515  0.00  0.00    +0.000 A 
ATOM     31  C   UNL     1      -1.691  -2.952  -0.944  0.00  0.00    +0.006 A 
ENDBRANCH   1  26
BRANCH   1  32
ATOM     32  C   UNL     1       0.598  -0.600  -1.043  0.00  0.00    +0.333 C 
ATOM     33  O   UNL     1       1.088   0.070  -1.921  0.00  0.00    -0.248 OA
BRANCH  32  35
ATOM     34  C   UNL     1      -0.017   1.425   0.010  0.00  0.00    +0.280 C 
ATOM     35  O   UNL     1       0.002  -0.004   0.002  0.00  0.00    -0.466 OA
ENDBRANCH  32  35
ENDBRANCH   1  32
TORSDOF 5
