REMARK  Name = ZINC33503090
REMARK  11 active torsions:
REMARK  status: ('A' for Active; 'I' for Inactive)
REMARK    1  A    between atoms: C_1  and  C_2
REMARK    2  A    between atoms: C_2  and  C_3
REMARK    3  A    between atoms: C_2  and  C_4
REMARK    4  A    between atoms: N_8  and  C_22
REMARK    5  A    between atoms: C_11  and  C_16
REMARK    6  A    between atoms: C_16  and  C_18
REMARK    7  A    between atoms: C_16  and  N_21
REMARK    8  A    between atoms: C_18  and  C_19
REMARK    9  A    between atoms: C_18  and  C_20
REMARK   10  A    between atoms: C_22  and  C_23
REMARK   11  A    between atoms: C_23  and  O_24
REMARK                            x       y       z     vdW  Elec       q    Type
REMARK                         _______ _______ _______ _____ _____    ______ ____
ROOT
ATOM      1  C   UNL     1       6.305   2.082   0.237  0.00  0.00    +0.262 C 
ATOM      2  C   UNL     1       6.059   0.833  -0.572  0.00  0.00    +0.261 C 
ATOM      3  O   UNL     1       6.995   0.164  -0.958  0.00  0.00    -0.271 OA
ATOM      4  N   UNL     1       4.794   0.463  -0.864  0.00  0.00    -0.263 N 
ATOM      5  C   UNL     1       3.732   1.273  -0.436  0.00  0.00    +0.079 A 
ATOM      6  C   UNL     1       2.434   0.791  -0.427  0.00  0.00    +0.029 A 
ATOM      7  C   UNL     1       1.401   1.607  -0.003  0.00  0.00    -0.060 A 
ATOM      8  C   UNL     1       1.661   2.902   0.406  0.00  0.00    +0.005 A 
ATOM      9  C   UNL     1       2.957   3.387   0.404  0.00  0.00    +0.048 A 
ATOM     10  C   UNL     1       3.995   2.576  -0.018  0.00  0.00    +0.143 A 
ATOM     11  O   UNL     1       5.275   3.037  -0.030  0.00  0.00    -0.477 OA
ENDROOT
BRANCH   1  13
ATOM     12  C   UNL     1       6.556   2.999   2.547  0.00  0.00    +0.011 C 
ATOM     13  C   UNL     1       6.302   1.733   1.726  0.00  0.00    +0.033 C 
ATOM     14  C   UNL     1       4.945   1.140   2.109  0.00  0.00    +0.011 C 
ENDBRANCH   1  13
BRANCH   7  15
ATOM     15  C   UNL     1      -0.013   1.086   0.008  0.00  0.00    -0.042 C 
BRANCH  15  16
ATOM     16  N   UNL     1      -0.700   1.560   1.217  0.00  0.00    +0.383 N 
ATOM     17  H   UNL     1      -1.732   1.179   1.224  0.00  0.00    -0.089 HD
ATOM     18  H   UNL     1      -0.715   2.659   1.223  0.00  0.00    -0.089 HD
ATOM     19  H   UNL     1      -0.168   1.195   2.108  0.00  0.00    -0.089 HD
ENDBRANCH  15  16
BRANCH  15  20
ATOM     20  C   UNL     1      -0.753   1.593  -1.232  0.00  0.00    -0.028 C 
ATOM     21  C   UNL     1      -0.037   1.099  -2.490  0.00  0.00    +0.006 C 
ATOM     22  C   UNL     1      -2.188   1.063  -1.221  0.00  0.00    +0.006 C 
ENDBRANCH  15  20
ENDBRANCH   7  15
BRANCH   4  23
ATOM     23  C   UNL     1       4.534  -0.767  -1.617  0.00  0.00    +0.141 C 
BRANCH  23  24
ATOM     24  C   UNL     1       4.512  -0.454  -3.114  0.00  0.00    +0.175 C 
BRANCH  24  25
ATOM     25  O   UNL     1       5.809  -0.023  -3.530  0.00  0.00    -0.393 OA
ATOM     26  H   UNL     1       5.988   0.248  -4.581  0.00  0.00    +0.209 HD
ENDBRANCH  24  25
ENDBRANCH  23  24
ENDBRANCH   4  23
TORSDOF 7
