REMARK  Name = ZINC12159458
REMARK  7 active torsions:
REMARK  status: ('A' for Active; 'I' for Inactive)
REMARK    1  A    between atoms: C_1  and  C_2
REMARK    2  A    between atoms: C_3  and  C_8
REMARK    3  A    between atoms: N_5  and  C_7
REMARK    4  A    between atoms: C_8  and  N_68
REMARK    5  A    between atoms: C_11  and  C_14
REMARK    6  A    between atoms: C_11  and  O_35
REMARK    7  A    between atoms: C_21  and  C_23
REMARK                            x       y       z     vdW  Elec       q    Type
REMARK                         _______ _______ _______ _____ _____    ______ ____
ROOT
ATOM      1  C   UNL     1       0.657  -2.973   0.991  0.00  0.00    -0.015 A 
ATOM      2  C   UNL     1      -0.648  -2.530   1.155  0.00  0.00    +0.010 A 
ATOM      3  C   UNL     1      -0.915  -1.202   1.410  0.00  0.00    +0.047 A 
ATOM      4  C   UNL     1       0.132  -0.292   1.504  0.00  0.00    +0.136 A 
ATOM      5  C   UNL     1       1.453  -0.747   1.337  0.00  0.00    +0.021 A 
ATOM      6  C   UNL     1       1.702  -2.097   1.079  0.00  0.00    +0.018 A 
ATOM      7  C   UNL     1       2.301   0.435   1.493  0.00  0.00    +0.063 A 
ATOM      8  C   UNL     1       1.460   1.473   1.734  0.00  0.00    +0.191 A 
ATOM      9  O   UNL     1       0.184   1.034   1.738  0.00  0.00    -0.450 OA
ENDROOT
BRANCH   8  10
ATOM     10  C   UNL     1       1.876   2.865   1.955  0.00  0.00    +0.282 C 
ATOM     11  O   UNL     1       3.057   3.137   2.064  0.00  0.00    -0.267 OA
ATOM     12  N   UNL     1       0.949   3.840   2.038  0.00  0.00    -0.290 N 
ATOM     13  C   UNL     1       1.336   5.252   2.200  0.00  0.00    +0.113 C 
ATOM     14  C   UNL     1       0.878   6.005   0.946  0.00  0.00    +0.054 C 
ATOM     15  C   UNL     1      -0.548   5.661   0.606  0.00  0.00    -0.041 A 
ATOM     16  C   UNL     1      -1.244   6.539  -0.218  0.00  0.00    +0.004 A 
ATOM     17  C   UNL     1      -2.549   6.277  -0.579  0.00  0.00    +0.000 A 
ATOM     18  C   UNL     1      -3.173   5.133  -0.118  0.00  0.00    +0.000 A 
ATOM     19  C   UNL     1      -2.487   4.262   0.702  0.00  0.00    +0.005 A 
ATOM     20  C   UNL     1      -1.174   4.526   1.069  0.00  0.00    -0.027 A 
ATOM     21  C   UNL     1      -0.484   3.538   1.976  0.00  0.00    +0.143 C 
ENDBRANCH   8  10
BRANCH   1  24
ATOM     22  C   UNL     1       0.073  -6.756   1.028  0.00  0.00    -0.075 C 
ATOM     23  C   UNL     1      -0.168  -5.283   1.364  0.00  0.00    +0.021 C 
ATOM     24  C   UNL     1       0.924  -4.430   0.713  0.00  0.00    +0.088 C 
ATOM     25  C   UNL     1       0.919  -4.672  -0.799  0.00  0.00    +0.021 C 
ATOM     26  C   UNL     1       1.127  -6.163  -1.072  0.00  0.00    -0.075 C 
ATOM     27  N   UNL     1       0.030  -6.927  -0.440  0.00  0.00    +0.383 N 
ATOM     28  H   UNL     1      -0.867  -6.572  -0.790  0.00  0.00    -0.081 HD
BRANCH  24  29
ATOM     29  O   UNL     1       2.197  -4.793   1.251  0.00  0.00    -0.384 OA
ATOM     30  H   UNL     1       2.938  -4.293   0.881  0.00  0.00    +0.211 HD
ENDBRANCH  24  29
BRANCH  27  31
ATOM     31  C   UNL     1       0.148  -8.358  -0.786  0.00  0.00    -0.040 C 
BRANCH  31  34
ATOM     32  C   UNL     1      -2.249  -7.935  -2.815  0.00  0.00    +0.068 C 
ATOM     33  C   UNL     1      -0.836  -8.311  -3.181  0.00  0.00    +0.061 A 
ATOM     34  C   UNL     1       0.221  -8.497  -2.285  0.00  0.00    -0.024 A 
ATOM     35  C   UNL     1       1.323  -8.819  -3.001  0.00  0.00    +0.110 A 
ATOM     36  N   UNL     1       0.973  -8.844  -4.304  0.00  0.00    -0.274 N 
ATOM     37  N   UNL     1      -0.386  -8.518  -4.392  0.00  0.00    -0.177 NA
ATOM     38  C   UNL     1       1.860  -9.151  -5.429  0.00  0.00    +0.172 C 
ENDBRANCH  31  34
ENDBRANCH  27  31
ENDBRANCH   1  24
TORSDOF 5
