REMARK  Name = ZINC36308113
REMARK  15 active torsions:
REMARK  status: ('A' for Active; 'I' for Inactive)
REMARK    1  A    between atoms: C_1  and  N_2
REMARK    2  A    between atoms: C_3  and  O_34
REMARK    3  A    between atoms: C_4  and  C_13
REMARK    4  A    between atoms: C_5  and  C_7
REMARK    5  A    between atoms: C_13  and  N_14
REMARK    6  A    between atoms: N_14  and  C_15
REMARK    7  A    between atoms: N_14  and  C_21
REMARK    8  A    between atoms: C_15  and  C_16
REMARK    9  A    between atoms: C_21  and  C_22
REMARK   10  A    between atoms: C_22  and  C_24
REMARK   11  A    between atoms: C_22  and  O_33
REMARK   12  A    between atoms: C_24  and  O_25
REMARK   13  A    between atoms: O_25  and  C_26
REMARK   14  A    between atoms: C_26  and  C_27
REMARK   15  A    between atoms: O_34  and  C_35
REMARK                            x       y       z     vdW  Elec       q    Type
REMARK                         _______ _______ _______ _____ _____    ______ ____
ROOT
ATOM      1  N   UNL     1       1.407  -2.715  -3.037  0.00  0.00    +0.389 N 
ATOM      2  H   UNL     1       2.103  -2.823  -2.315  0.00  0.00    -0.081 HD
ENDROOT
BRANCH   1   3
ATOM      3  C   UNL     1       0.075  -2.619  -2.424  0.00  0.00    -0.035 C 
BRANCH   3   7
ATOM      4  C   UNL     1       0.101  -5.709   1.536  0.00  0.00    +0.176 C 
ATOM      5  N   UNL     1      -0.140  -5.159   0.200  0.00  0.00    -0.235 N 
ATOM      6  C   UNL     1       0.267  -3.943  -0.247  0.00  0.00    +0.221 A 
ATOM      7  C   UNL     1      -0.153  -3.812  -1.532  0.00  0.00    +0.025 A 
ATOM      8  C   UNL     1      -0.842  -4.989  -1.881  0.00  0.00    +0.098 A 
ATOM      9  N   UNL     1      -0.827  -5.796  -0.842  0.00  0.00    -0.168 NA
BRANCH   8  10
ATOM     10  C   UNL     1      -1.471  -5.273  -3.195  0.00  0.00    +0.002 A 
ATOM     11  C   UNL     1      -2.212  -4.287  -3.843  0.00  0.00    +0.010 A 
ATOM     12  C   UNL     1      -2.795  -4.556  -5.065  0.00  0.00    +0.001 A 
ATOM     13  C   UNL     1      -2.645  -5.802  -5.646  0.00  0.00    +0.000 A 
ATOM     14  C   UNL     1      -1.911  -6.785  -5.007  0.00  0.00    +0.001 A 
ATOM     15  C   UNL     1      -1.319  -6.525  -3.787  0.00  0.00    +0.010 A 
ENDBRANCH   8  10
BRANCH   6  16
ATOM     16  O   UNL     1       0.969  -3.023   0.462  0.00  0.00    -0.438 OA
BRANCH  16  17
ATOM     17  C   UNL     1       0.272  -2.118   1.199  0.00  0.00    +0.130 A 
ATOM     18  C   UNL     1      -1.107  -2.224   1.306  0.00  0.00    +0.046 A 
ATOM     19  C   UNL     1      -1.813  -1.303   2.056  0.00  0.00    +0.004 A 
ATOM     20  C   UNL     1      -1.146  -0.277   2.699  0.00  0.00    +0.000 A 
ATOM     21  C   UNL     1       0.229  -0.169   2.593  0.00  0.00    +0.004 A 
ATOM     22  C   UNL     1       0.940  -1.090   1.849  0.00  0.00    +0.046 A 
ENDBRANCH  16  17
ENDBRANCH   6  16
ENDBRANCH   3   7
ENDBRANCH   1   3
BRANCH   1  23
ATOM     23  C   UNL     1       1.682  -1.493  -3.804  0.00  0.00    -0.003 C 
BRANCH  23  24
ATOM     24  C   UNL     1       1.751  -0.316  -2.865  0.00  0.00    +0.089 A 
ATOM     25  C   UNL     1       2.867   0.164  -2.286  0.00  0.00    +0.042 A 
ATOM     26  C   UNL     1       2.474   1.264  -1.490  0.00  0.00    +0.041 A 
ATOM     27  C   UNL     1       1.142   1.391  -1.630  0.00  0.00    +0.195 A 
ATOM     28  O   UNL     1       0.711   0.435  -2.469  0.00  0.00    -0.470 OA
ENDBRANCH  23  24
ENDBRANCH   1  23
BRANCH   1  29
ATOM     29  C   UNL     1       1.449  -3.877  -3.936  0.00  0.00    -0.044 C 
BRANCH  29  30
ATOM     30  C   UNL     1       2.869  -4.050  -4.479  0.00  0.00    +0.124 C 
BRANCH  30  31
ATOM     31  O   UNL     1       3.754  -4.371  -3.404  0.00  0.00    -0.391 OA
ATOM     32  H   UNL     1       3.526  -5.187  -2.937  0.00  0.00    +0.210 HD
ENDBRANCH  30  31
BRANCH  30  33
ATOM     33  C   UNL     1       2.887  -5.181  -5.509  0.00  0.00    +0.189 C 
BRANCH  33  34
ATOM     34  O   UNL     1       4.185  -5.266  -6.101  0.00  0.00    -0.373 OA
BRANCH  34  35
ATOM     35  C   UNL     1       4.310  -6.296  -7.083  0.00  0.00    +0.195 C 
BRANCH  35  36
ATOM     36  C   UNL     1       5.711  -6.295  -7.637  0.00  0.00    -0.022 A 
ATOM     37  C   UNL     1       6.018  -5.519  -8.739  0.00  0.00    +0.006 A 
ATOM     38  C   UNL     1       7.304  -5.518  -9.247  0.00  0.00    +0.000 A 
ATOM     39  C   UNL     1       8.283  -6.293  -8.653  0.00  0.00    +0.000 A 
ATOM     40  C   UNL     1       7.976  -7.068  -7.550  0.00  0.00    +0.000 A 
ATOM     41  C   UNL     1       6.691  -7.066  -7.039  0.00  0.00    +0.006 A 
ENDBRANCH  35  36
ENDBRANCH  34  35
ENDBRANCH  33  34
ENDBRANCH  30  33
ENDBRANCH  29  30
ENDBRANCH   1  29
TORSDOF 14
