REMARK  Name = ZINC35707896
REMARK  11 active torsions:
REMARK  status: ('A' for Active; 'I' for Inactive)
REMARK    1  A    between atoms: C_1  and  C_2
REMARK    2  A    between atoms: C_5  and  N_8
REMARK    3  A    between atoms: C_9  and  C_22
REMARK    4  A    between atoms: C_12  and  S_13
REMARK    5  A    between atoms: S_13  and  C_14
REMARK    6  A    between atoms: C_14  and  C_15
REMARK    7  A    between atoms: C_20  and  C_21
REMARK    8  A    between atoms: C_22  and  C_24
REMARK    9  A    between atoms: C_22  and  N_25
REMARK   10  A    between atoms: N_28  and  C_29
REMARK   11  A    between atoms: C_34  and  C_35
REMARK                            x       y       z     vdW  Elec       q    Type
REMARK                         _______ _______ _______ _____ _____    ______ ____
ROOT
ATOM      1  N   UNL     1       0.064  -4.198   0.012  0.00  0.00    -0.273 N 
ATOM      2  C   UNL     1      -0.921  -5.034   0.465  0.00  0.00    +0.159 A 
ATOM      3  N   UNL     1      -0.507  -6.256   0.280  0.00  0.00    -0.131 NA
ATOM      4  N   UNL     1       0.662  -6.251  -0.255  0.00  0.00    -0.122 NA
ATOM      5  C   UNL     1       1.060  -5.015  -0.448  0.00  0.00    +0.196 A 
ENDROOT
BRANCH   1  10
ATOM      6  C   UNL     1       0.013   1.478   0.015  0.00  0.00    +0.044 C 
ATOM      7  C   UNL     1       0.027  -0.029   0.014  0.00  0.00    -0.050 A 
ATOM      8  C   UNL     1       0.036  -0.718  -1.184  0.00  0.00    +0.005 A 
ATOM      9  C   UNL     1       0.049  -2.099  -1.188  0.00  0.00    +0.026 A 
ATOM     10  C   UNL     1       0.052  -2.795   0.013  0.00  0.00    +0.050 A 
ATOM     11  C   UNL     1       0.043  -2.101   1.214  0.00  0.00    +0.026 A 
ATOM     12  C   UNL     1       0.036  -0.719   1.212  0.00  0.00    +0.005 A 
ENDBRANCH   1  10
BRANCH   2  13
ATOM     13  C   UNL     1      -2.238  -4.619   1.068  0.00  0.00    +0.140 C 
ATOM     14  C   UNL     1      -2.197  -4.834   2.582  0.00  0.00    +0.036 C 
BRANCH  13  15
ATOM     15  N   UNL     1      -3.316  -5.426   0.489  0.00  0.00    -0.290 N 
ATOM     16  C   UNL     1      -4.575  -4.947   0.461  0.00  0.00    +0.304 C 
ATOM     17  O   UNL     1      -4.817  -3.846   0.916  0.00  0.00    -0.252 OA
ATOM     18  N   UNL     1      -5.566  -5.690  -0.071  0.00  0.00    -0.269 N 
ATOM     19  H   UNL     1      -3.122  -6.304   0.126  0.00  0.00    +0.151 HD
ATOM     20  H   UNL     1      -5.361  -6.532  -0.507  0.00  0.00    +0.156 HD
BRANCH  18  21
ATOM     21  C   UNL     1      -6.891  -5.246   0.005  0.00  0.00    +0.046 A 
ATOM     22  C   UNL     1      -7.276  -4.372   1.014  0.00  0.00    +0.024 A 
ATOM     23  C   UNL     1      -8.584  -3.936   1.086  0.00  0.00    +0.002 A 
ATOM     24  C   UNL     1      -9.511  -4.368   0.155  0.00  0.00    +0.001 A 
ATOM     25  C   UNL     1      -9.131  -5.237  -0.850  0.00  0.00    +0.014 A 
ATOM     26  C   UNL     1      -7.823  -5.673  -0.931  0.00  0.00    +0.076 A 
BRANCH  26  27
ATOM     27  C   UNL     1      -7.409  -6.616  -2.031  0.00  0.00    +0.419 C 
ATOM     28  F   UNL     1      -8.513  -6.900  -2.843  0.00  0.00    -0.166 F 
ATOM     29  F   UNL     1      -6.404  -6.021  -2.802  0.00  0.00    -0.166 F 
ATOM     30  F   UNL     1      -6.926  -7.803  -1.470  0.00  0.00    -0.166 F 
ENDBRANCH  26  27
ENDBRANCH  18  21
ENDBRANCH  13  15
ENDBRANCH   2  13
BRANCH   5  31
ATOM     31  S   UNL     1       2.589  -4.506  -1.160  0.00  0.00    -0.081 S 
BRANCH  31  32
ATOM     32  C   UNL     1       3.434  -6.065  -1.546  0.00  0.00    +0.112 C 
BRANCH  32  33
ATOM     33  C   UNL     1       4.774  -5.769  -2.170  0.00  0.00    -0.034 A 
ATOM     34  C   UNL     1       4.883  -5.632  -3.541  0.00  0.00    +0.005 A 
ATOM     35  C   UNL     1       6.112  -5.361  -4.113  0.00  0.00    +0.000 A 
ATOM     36  C   UNL     1       7.231  -5.226  -3.313  0.00  0.00    +0.000 A 
ATOM     37  C   UNL     1       7.122  -5.362  -1.942  0.00  0.00    +0.003 A 
ATOM     38  C   UNL     1       5.892  -5.629  -1.370  0.00  0.00    -0.046 A 
ATOM     39  C   UNL     1       5.772  -5.773   0.126  0.00  0.00    +0.044 C 
ENDBRANCH  32  33
ENDBRANCH  31  32
ENDBRANCH   5  31
TORSDOF 8
