REMARK  Name = ZINC22999896
REMARK  9 active torsions:
REMARK  status: ('A' for Active; 'I' for Inactive)
REMARK    1  A    between atoms: C_1  and  C_2
REMARK    2  A    between atoms: C_4  and  C_26
REMARK    3  A    between atoms: C_5  and  C_25
REMARK    4  A    between atoms: C_6  and  S_9
REMARK    5  A    between atoms: C_7  and  C_8
REMARK    6  A    between atoms: S_9  and  N_12
REMARK    7  A    between atoms: N_12  and  C_13
REMARK    8  A    between atoms: C_13  and  C_14
REMARK    9  A    between atoms: N_17  and  C_20
REMARK                            x       y       z     vdW  Elec       q    Type
REMARK                         _______ _______ _______ _____ _____    ______ ____
ROOT
ATOM      1  N   UNL     1       4.003   1.115   6.308  0.00  0.00    -0.190 NA
ATOM      2  H   UNL     1       3.856   0.025   6.288  0.00  0.00    +0.148 HD
ENDROOT
BRANCH   1   3
ATOM      3  S   UNL     1       5.286   1.744   7.145  0.00  0.00    +0.059 S 
ATOM      4  O   UNL     1       6.096   0.643   7.533  0.00  0.00    -0.153 OA
ATOM      5  O   UNL     1       5.787   2.823   6.370  0.00  0.00    -0.153 OA
BRANCH   3  11
ATOM      6  C   UNL     1       3.741   5.850   9.986  0.00  0.00    +0.044 C 
ATOM      7  C   UNL     1       3.951   4.361   9.886  0.00  0.00    -0.045 A 
ATOM      8  C   UNL     1       3.642   3.546  10.959  0.00  0.00    +0.007 A 
ATOM      9  C   UNL     1       3.834   2.180  10.866  0.00  0.00    -0.045 A 
ATOM     10  C   UNL     1       4.336   1.629   9.702  0.00  0.00    -0.021 A 
ATOM     11  C   UNL     1       4.646   2.445   8.630  0.00  0.00    +0.112 A 
ATOM     12  C   UNL     1       4.458   3.811   8.724  0.00  0.00    -0.021 A 
ATOM     13  C   UNL     1       4.802   4.701   7.557  0.00  0.00    +0.046 C 
ATOM     14  C   UNL     1       4.545   0.141   9.602  0.00  0.00    +0.046 C 
ATOM     15  C   UNL     1       3.497   1.291  12.036  0.00  0.00    +0.044 C 
ENDBRANCH   3  11
ENDBRANCH   1   3
BRANCH   1  16
ATOM     16  C   UNL     1       2.960   2.004   5.789  0.00  0.00    +0.109 C 
BRANCH  16  17
ATOM     17  C   UNL     1       2.114   1.251   4.761  0.00  0.00    +0.001 C 
ATOM     18  C   UNL     1       0.949   2.137   4.310  0.00  0.00    -0.014 C 
ATOM     19  C   UNL     1       0.142   1.403   3.237  0.00  0.00    -0.078 C 
ATOM     20  N   UNL     1       1.012   1.090   2.096  0.00  0.00    +0.382 N 
ATOM     21  C   UNL     1       2.111   0.202   2.495  0.00  0.00    -0.078 C 
ATOM     22  C   UNL     1       2.977   0.900   3.546  0.00  0.00    -0.014 C 
ATOM     23  H   UNL     1       1.454   2.033   1.743  0.00  0.00    -0.081 HD
BRANCH  20  24
ATOM     24  C   UNL     1       0.240   0.508   0.990  0.00  0.00    -0.069 C 
ATOM     25  C   UNL     1       1.165   0.184  -0.202  0.00  0.00    -0.015 C 
ATOM     26  C   UNL     1       0.373   0.516  -1.478  0.00  0.00    -0.002 C 
ATOM     27  C   UNL     1      -1.007   1.031  -1.019  0.00  0.00    -0.002 C 
ATOM     28  C   UNL     1      -0.760   1.546   0.421  0.00  0.00    -0.015 C 
ENDBRANCH  20  24
ENDBRANCH  16  17
ENDBRANCH   1  16
TORSDOF 5
