REMARK  Name = ZINC12558452
REMARK  4 active torsions:
REMARK  status: ('A' for Active; 'I' for Inactive)
REMARK    1  A    between atoms: C_4  and  C_7
REMARK    2  A    between atoms: N_10  and  N_11
REMARK    3  A    between atoms: C_26  and  C_27
REMARK    4  A    between atoms: C_26  and  O_33
REMARK                            x       y       z     vdW  Elec       q    Type
REMARK                         _______ _______ _______ _____ _____    ______ ____
ROOT
ATOM      1  C   UNL     1      -0.701   2.190   1.133  0.00  0.00    -0.002 C 
ATOM      2  C   UNL     1       0.207   2.906   1.810  0.00  0.00    +0.032 C 
ATOM      3  C   UNL     1       1.500   2.824   1.251  0.00  0.00    +0.066 C 
ATOM      4  N   UNL     1       2.567   3.418   1.705  0.00  0.00    -0.167 NA
ATOM      5  C   UNL     1       1.435   1.927   0.034  0.00  0.00    +0.101 C 
ATOM      6  C   UNL     1      -0.043   1.505  -0.041  0.00  0.00    +0.122 C 
ENDROOT
BRANCH   4   7
ATOM      7  N   UNL     1       3.769   3.344   0.989  0.00  0.00    -0.185 N 
ATOM      8  C   UNL     1       3.858   3.945  -0.228  0.00  0.00    +0.227 A 
ATOM      9  N   UNL     1       4.962   3.898  -0.926  0.00  0.00    -0.228 NA
ATOM     10  C   UNL     1       6.034   3.260  -0.467  0.00  0.00    +0.116 A 
ATOM     11  C   UNL     1       6.038   2.611   0.778  0.00  0.00    +0.077 A 
ATOM     12  C   UNL     1       4.815   2.685   1.521  0.00  0.00    +0.283 A 
ATOM     13  O   UNL     1       4.722   2.156   2.616  0.00  0.00    -0.265 OA
ATOM     14  C   UNL     1       7.288   1.950   1.152  0.00  0.00    -0.023 A 
ATOM     15  C   UNL     1       8.309   2.029   0.272  0.00  0.00    -0.004 A 
ATOM     16  S   UNL     1       7.672   2.974  -1.086  0.00  0.00    -0.073 S 
ATOM     17  C   UNL     1       9.680   1.443   0.417  0.00  0.00    +0.043 C 
ATOM     18  C   UNL     1       9.883   1.046   1.887  0.00  0.00    +0.005 C 
ATOM     19  C   UNL     1       8.655   0.263   2.359  0.00  0.00    +0.005 C 
ATOM     20  C   UNL     1       7.452   1.201   2.471  0.00  0.00    +0.037 C 
ENDBRANCH   4   7
BRANCH   1  24
ATOM     21  C   UNL     1      -4.812   1.894   2.135  0.00  0.00    +0.000 A 
ATOM     22  C   UNL     1      -4.285   3.113   1.745  0.00  0.00    +0.001 A 
ATOM     23  C   UNL     1      -2.949   3.217   1.418  0.00  0.00    +0.008 A 
ATOM     24  C   UNL     1      -2.128   2.087   1.481  0.00  0.00    -0.019 A 
ATOM     25  C   UNL     1      -2.670   0.859   1.870  0.00  0.00    +0.008 A 
ATOM     26  C   UNL     1      -4.006   0.772   2.200  0.00  0.00    +0.001 A 
ENDBRANCH   1  24
BRANCH   6  27
ATOM     27  C   UNL     1      -0.657   1.972  -1.336  0.00  0.00    -0.011 A 
ATOM     28  C   UNL     1      -1.210   3.236  -1.422  0.00  0.00    +0.007 A 
ATOM     29  C   UNL     1      -1.770   3.666  -2.611  0.00  0.00    +0.000 A 
ATOM     30  C   UNL     1      -1.784   2.829  -3.711  0.00  0.00    +0.000 A 
ATOM     31  C   UNL     1      -1.235   1.563  -3.623  0.00  0.00    +0.000 A 
ATOM     32  C   UNL     1      -0.672   1.135  -2.436  0.00  0.00    +0.007 A 
ENDBRANCH   6  27
BRANCH   6  33
ATOM     33  O   UNL     1      -0.162   0.086   0.081  0.00  0.00    -0.379 OA
ATOM     34  H   UNL     1       0.284  -0.408  -0.621  0.00  0.00    +0.211 HD
ENDBRANCH   6  33
TORSDOF 4
