REMARK  Name = ZINC21937170
REMARK  8 active torsions:
REMARK  status: ('A' for Active; 'I' for Inactive)
REMARK    1  A    between atoms: C_1  and  C_2
REMARK    2  A    between atoms: C_7  and  N_8
REMARK    3  A    between atoms: C_9  and  C_11
REMARK    4  A    between atoms: C_11  and  C_13
REMARK    5  A    between atoms: C_11  and  S_14
REMARK    6  A    between atoms: S_14  and  C_15
REMARK    7  A    between atoms: C_25  and  C_30
REMARK    8  A    between atoms: C_30  and  C_31
REMARK                            x       y       z     vdW  Elec       q    Type
REMARK                         _______ _______ _______ _____ _____    ______ ____
ROOT
ATOM      1  C   UNL     1      -1.282   8.019   0.344  0.00  0.00    +0.170 C 
ATOM      2  N   UNL     1      -0.122   8.418  -0.102  0.00  0.00    -0.225 NA
ATOM      3  C   UNL     1       0.199   9.732  -0.207  0.00  0.00    +0.077 A 
ATOM      4  C   UNL     1       1.446  10.139  -0.686  0.00  0.00    +0.028 A 
ATOM      5  C   UNL     1       1.738  11.482  -0.778  0.00  0.00    +0.002 A 
ATOM      6  C   UNL     1       0.806  12.439  -0.401  0.00  0.00    +0.001 A 
ATOM      7  C   UNL     1      -0.432  12.060   0.075  0.00  0.00    +0.013 A 
ATOM      8  C   UNL     1      -0.744  10.708   0.176  0.00  0.00    +0.041 A 
ATOM      9  C   UNL     1      -2.058  10.255   0.680  0.00  0.00    +0.139 C 
ATOM     10  N   UNL     1      -3.087  10.941   1.092  0.00  0.00    -0.255 NA
ATOM     11  C   UNL     1      -4.141   9.989   1.471  0.00  0.00    +0.198 C 
ATOM     12  C   UNL     1      -3.519   8.633   1.212  0.00  0.00    +0.252 C 
ATOM     13  O   UNL     1      -4.026   7.547   1.392  0.00  0.00    -0.272 OA
ATOM     14  N   UNL     1      -2.277   8.889   0.739  0.00  0.00    -0.200 N 
ENDROOT
BRANCH   1  15
ATOM     15  S   UNL     1      -1.594   6.288   0.439  0.00  0.00    -0.077 S 
BRANCH  15  16
ATOM     16  C   UNL     1      -0.019   5.650  -0.184  0.00  0.00    +0.137 C 
ATOM     17  C   UNL     1       0.153   6.059  -1.648  0.00  0.00    +0.029 C 
BRANCH  16  19
ATOM     18  N   UNL     1       1.162   3.485   0.009  0.00  0.00    -0.284 N 
ATOM     19  C   UNL     1      -0.009   4.146  -0.078  0.00  0.00    +0.230 C 
ATOM     20  O   UNL     1      -1.055   3.532  -0.072  0.00  0.00    -0.274 OA
ATOM     21  H   UNL     1       2.105   4.045   0.095  0.00  0.00    +0.155 HD
BRANCH  18  28
ATOM     22  C   UNL     1       3.359   2.151   1.229  0.00  0.00    +0.045 C 
ATOM     23  C   UNL     1       2.232   1.395   0.574  0.00  0.00    -0.029 A 
ATOM     24  C   UNL     1       2.245   0.014   0.554  0.00  0.00    +0.005 A 
ATOM     25  C   UNL     1       1.212  -0.680  -0.046  0.00  0.00    +0.000 A 
ATOM     26  C   UNL     1       0.160   0.005  -0.628  0.00  0.00    +0.002 A 
ATOM     27  C   UNL     1       0.141   1.386  -0.611  0.00  0.00    +0.023 A 
ATOM     28  C   UNL     1       1.178   2.086  -0.009  0.00  0.00    +0.036 A 
ENDBRANCH  18  28
ENDBRANCH  16  19
ENDBRANCH  15  16
ENDBRANCH   1  15
BRANCH  11  29
ATOM     29  C   UNL     1      -5.389  10.179   0.607  0.00  0.00    +0.071 C 
BRANCH  29  30
ATOM     30  C   UNL     1      -6.057  11.480   0.971  0.00  0.00    -0.045 A 
ATOM     31  C   UNL     1      -7.024  11.508   1.958  0.00  0.00    +0.004 A 
ATOM     32  C   UNL     1      -7.634  12.703   2.295  0.00  0.00    +0.000 A 
ATOM     33  C   UNL     1      -7.284  13.867   1.637  0.00  0.00    +0.000 A 
ATOM     34  C   UNL     1      -6.320  13.838   0.645  0.00  0.00    +0.000 A 
ATOM     35  C   UNL     1      -5.707  12.644   0.313  0.00  0.00    +0.004 A 
ENDBRANCH  29  30
ENDBRANCH  11  29
TORSDOF 6
