REMARK  Name = ZINC39439843
REMARK  12 active torsions:
REMARK  status: ('A' for Active; 'I' for Inactive)
REMARK    1  A    between atoms: C_1  and  C_2
REMARK    2  A    between atoms: C_5  and  C_7
REMARK    3  A    between atoms: C_7  and  N_8
REMARK    4  A    between atoms: N_8  and  C_9
REMARK    5  A    between atoms: N_8  and  C_19
REMARK    6  A    between atoms: C_11  and  C_17
REMARK    7  A    between atoms: C_11  and  C_18
REMARK    8  A    between atoms: C_13  and  C_15
REMARK    9  A    between atoms: C_13  and  C_16
REMARK   10  A    between atoms: C_19  and  N_21
REMARK   11  A    between atoms: N_21  and  C_22
REMARK   12  A    between atoms: C_27  and  C_28
REMARK                            x       y       z     vdW  Elec       q    Type
REMARK                         _______ _______ _______ _____ _____    ______ ____
ROOT
ATOM      1  N   UNL     1       1.798  -3.668  -1.414  0.00  0.00    -0.302 N 
ENDROOT
BRANCH   1   2
ATOM      2  C   UNL     1       2.951  -3.058  -2.087  0.00  0.00    +0.073 C 
ATOM      3  C   UNL     1       4.206  -3.291  -1.244  0.00  0.00    +0.009 C 
ATOM      4  C   UNL     1       5.415  -2.649  -1.926  0.00  0.00    -0.072 C 
ATOM      5  N   UNL     1       5.194  -1.241  -2.221  0.00  0.00    +0.386 N 
ATOM      6  C   UNL     1       3.933  -0.871  -2.843  0.00  0.00    -0.072 C 
ATOM      7  C   UNL     1       2.726  -1.551  -2.205  0.00  0.00    +0.009 C 
ATOM      8  C   UNL     1       3.752   0.654  -2.654  0.00  0.00    -0.010 C 
ATOM      9  C   UNL     1       3.945  -1.136  -4.350  0.00  0.00    -0.010 C 
ATOM     10  C   UNL     1       5.802  -3.445  -3.172  0.00  0.00    -0.010 C 
ATOM     11  C   UNL     1       6.600  -2.739  -0.937  0.00  0.00    -0.010 C 
ATOM     12  H   UNL     1       5.292  -0.712  -1.351  0.00  0.00    -0.084 HD
ATOM     13  H   UNL     1       5.957  -0.915  -2.820  0.00  0.00    -0.084 HD
ENDBRANCH   1   2
BRANCH   1  14
ATOM     14  C   UNL     1       1.012  -4.537  -2.080  0.00  0.00    +0.138 C 
ATOM     15  S   UNL     1      -0.405  -5.150  -1.339  0.00  0.00    -0.018 S 
BRANCH  14  16
ATOM     16  N   UNL     1       1.340  -4.923  -3.328  0.00  0.00    -0.296 N 
ATOM     17  H   UNL     1       0.893  -4.526  -4.092  0.00  0.00    +0.154 HD
BRANCH  16  18
ATOM     18  C   UNL     1       2.326  -5.897  -3.523  0.00  0.00    +0.044 A 
ATOM     19  C   UNL     1       2.888  -6.546  -2.431  0.00  0.00    +0.025 A 
ATOM     20  C   UNL     1       3.861  -7.507  -2.625  0.00  0.00    +0.022 A 
ATOM     21  C   UNL     1       4.276  -7.824  -3.907  0.00  0.00    +0.042 A 
ATOM     22  C   UNL     1       3.718  -7.179  -4.997  0.00  0.00    +0.034 A 
ATOM     23  C   UNL     1       2.740  -6.221  -4.808  0.00  0.00    +0.077 A 
ATOM     24 CL   UNL     1       5.499  -9.031  -4.148  0.00  0.00    -0.084 Cl
BRANCH  23  25
ATOM     25  C   UNL     1       2.129  -5.523  -5.995  0.00  0.00    +0.419 C 
ATOM     26  F   UNL     1       2.704  -6.015  -7.172  0.00  0.00    -0.166 F 
ATOM     27  F   UNL     1       0.750  -5.759  -6.016  0.00  0.00    -0.166 F 
ATOM     28  F   UNL     1       2.365  -4.147  -5.901  0.00  0.00    -0.166 F 
ENDBRANCH  23  25
ENDBRANCH  16  18
ENDBRANCH  14  16
ENDBRANCH   1  14
BRANCH   1  29
ATOM     29  C   UNL     1       1.502  -3.334  -0.018  0.00  0.00    +0.181 C 
BRANCH  29  34
ATOM     30  C   UNL     1      -0.126   1.436   0.165  0.00  0.00    +0.086 C 
ATOM     31  C   UNL     1      -0.129  -0.070   0.108  0.00  0.00    +0.102 A 
ATOM     32  C   UNL     1      -1.222  -0.854   0.082  0.00  0.00    +0.045 A 
ATOM     33  C   UNL     1      -0.765  -2.191   0.030  0.00  0.00    +0.046 A 
ATOM     34  C   UNL     1       0.579  -2.144   0.028  0.00  0.00    +0.122 A 
ATOM     35  O   UNL     1       0.959  -0.856   0.070  0.00  0.00    -0.463 OA
ENDBRANCH  29  34
ENDBRANCH   1  29
TORSDOF 7
