REMARK  Name = ZINC06178035
REMARK  7 active torsions:
REMARK  status: ('A' for Active; 'I' for Inactive)
REMARK    1  A    between atoms: C_1  and  C_2
REMARK    2  A    between atoms: C_4  and  C_38
REMARK    3  A    between atoms: C_9  and  C_14
REMARK    4  A    between atoms: C_14  and  C_16
REMARK    5  A    between atoms: C_14  and  N_69
REMARK    6  A    between atoms: N_20  and  C_21
REMARK    7  A    between atoms: N_28  and  C_31
REMARK                            x       y       z     vdW  Elec       q    Type
REMARK                         _______ _______ _______ _____ _____    ______ ____
ROOT
ATOM      1  C   UNL     1       2.591  -0.626  -0.056  0.00  0.00    +0.039 C 
ENDROOT
BRANCH   1  10
ATOM      2  C   UNL     1       1.136  -4.218  -6.428  0.00  0.00    +0.044 C 
ATOM      3  C   UNL     1       2.055  -3.392  -5.565  0.00  0.00    -0.050 A 
ATOM      4  C   UNL     1       3.304  -3.025  -6.046  0.00  0.00    +0.008 A 
ATOM      5  C   UNL     1       4.161  -2.270  -5.274  0.00  0.00    -0.026 A 
ATOM      6  C   UNL     1       3.772  -1.872  -3.999  0.00  0.00    +0.052 A 
ATOM      7  C   UNL     1       2.504  -2.246  -3.515  0.00  0.00    -0.001 A 
ATOM      8  C   UNL     1       1.651  -3.012  -4.316  0.00  0.00    +0.013 A 
ATOM      9  C   UNL     1       2.103  -1.821  -2.173  0.00  0.00    +0.017 A 
ATOM     10  C   UNL     1       2.972  -1.079  -1.442  0.00  0.00    +0.011 A 
ATOM     11  C   UNL     1       4.229  -0.726  -1.976  0.00  0.00    +0.251 A 
ATOM     12  O   UNL     1       4.993  -0.054  -1.304  0.00  0.00    -0.268 OA
ATOM     13  N   UNL     1       4.608  -1.116  -3.206  0.00  0.00    -0.322 N 
ATOM     14  H   UNL     1       5.482  -0.859  -3.541  0.00  0.00    +0.169 HD
ATOM     15  C   UNL     1       5.514  -1.879  -5.809  0.00  0.00    +0.046 C 
ENDBRANCH   1  10
BRANCH   1  21
ATOM     16  C   UNL     1       3.806  -2.519   0.839  0.00  0.00    -0.058 C 
ATOM     17  C   UNL     1       4.933  -2.924   1.792  0.00  0.00    +0.086 C 
ATOM     18  N   UNL     1       4.594  -2.498   3.157  0.00  0.00    -0.331 N 
ATOM     19  C   UNL     1       4.402  -1.043   3.220  0.00  0.00    +0.086 C 
ATOM     20  C   UNL     1       3.275  -0.638   2.267  0.00  0.00    -0.058 C 
ATOM     21  N   UNL     1       3.639  -1.052   0.895  0.00  0.00    +0.391 N 
ATOM     22  H   UNL     1       4.526  -0.605   0.636  0.00  0.00    -0.080 HD
BRANCH  18  23
ATOM     23  C   UNL     1       5.569  -2.915   4.069  0.00  0.00    +0.065 A 
ATOM     24  C   UNL     1       5.400  -2.676   5.426  0.00  0.00    +0.026 A 
ATOM     25  C   UNL     1       6.363  -3.093   6.325  0.00  0.00    +0.002 A 
ATOM     26  C   UNL     1       7.499  -3.739   5.874  0.00  0.00    +0.003 A 
ATOM     27  C   UNL     1       7.675  -3.975   4.523  0.00  0.00    +0.040 A 
ATOM     28  C   UNL     1       6.713  -3.565   3.618  0.00  0.00    +0.144 A 
ATOM     29  F   UNL     1       6.885  -3.795   2.298  0.00  0.00    -0.204 F 
ENDBRANCH  18  23
ENDBRANCH   1  21
BRANCH   1  30
ATOM     30  C   UNL     1       2.488   0.878  -0.030  0.00  0.00    +0.143 A 
ATOM     31  N   UNL     1       3.484   1.730  -0.030  0.00  0.00    -0.115 NA
ATOM     32  N   UNL     1       2.990   2.919  -0.003  0.00  0.00    -0.023 NA
ATOM     33  N   UNL     1       1.705   2.848   0.008  0.00  0.00    -0.044 NA
ATOM     34  N   UNL     1       1.357   1.606  -0.002  0.00  0.00    -0.227 N 
BRANCH  34  35
ATOM     35  C   UNL     1      -0.013   1.086   0.008  0.00  0.00    +0.111 C 
ATOM     36  C   UNL     1      -0.763   1.597   1.255  0.00  0.00    +0.027 C 
ATOM     37  C   UNL     1      -1.531   2.845   0.750  0.00  0.00    +0.002 C 
ATOM     38  C   UNL     1      -1.978   2.421  -0.670  0.00  0.00    +0.002 C 
ATOM     39  C   UNL     1      -0.784   1.609  -1.216  0.00  0.00    +0.027 C 
ENDBRANCH  34  35
ENDBRANCH   1  30
TORSDOF 5
