REMARK  Name = ZINC45778793
REMARK  7 active torsions:
REMARK  status: ('A' for Active; 'I' for Inactive)
REMARK    1  A    between atoms: C_1  and  C_2
REMARK    2  A    between atoms: C_2  and  C_3
REMARK    3  A    between atoms: C_8  and  N_9
REMARK    4  A    between atoms: C_12  and  C_17
REMARK    5  A    between atoms: C_17  and  S_18
REMARK    6  A    between atoms: S_18  and  C_19
REMARK    7  A    between atoms: C_25  and  C_28
REMARK                            x       y       z     vdW  Elec       q    Type
REMARK                         _______ _______ _______ _____ _____    ______ ____
ROOT
ATOM      1  N   UNL     1      -1.308  -0.339   2.505  0.00  0.00    -0.283 N 
ATOM      2  C   UNL     1      -2.006  -0.585   3.672  0.00  0.00    +0.224 A 
ATOM      3  N   UNL     1      -3.322  -0.386   3.716  0.00  0.00    -0.198 NA
ATOM      4  C   UNL     1      -3.990  -0.620   4.832  0.00  0.00    +0.146 A 
ATOM      5  N   UNL     1      -3.356  -1.052   5.908  0.00  0.00    -0.199 NA
ATOM      6  C   UNL     1      -2.041  -1.254   5.871  0.00  0.00    +0.217 A 
ATOM      7  N   UNL     1      -1.366  -1.025   4.750  0.00  0.00    -0.181 NA
ATOM      8  N   UNL     1      -1.379  -1.705   6.995  0.00  0.00    -0.327 N 
ATOM      9  H   UNL     1      -1.786  -0.104   1.695  0.00  0.00    +0.155 HD
ATOM     10  H   UNL     1      -1.873  -1.876   7.812  0.00  0.00    +0.145 HD
ATOM     11  H   UNL     1      -0.421  -1.852   6.968  0.00  0.00    +0.145 HD
ENDROOT
BRANCH   1  17
ATOM     12  C   UNL     1       0.751  -0.793   1.329  0.00  0.00    -0.026 A 
ATOM     13  C   UNL     1       2.130  -0.875   1.318  0.00  0.00    +0.005 A 
ATOM     14  C   UNL     1       2.849  -0.601   2.467  0.00  0.00    +0.000 A 
ATOM     15  C   UNL     1       2.190  -0.244   3.630  0.00  0.00    +0.002 A 
ATOM     16  C   UNL     1       0.812  -0.160   3.647  0.00  0.00    +0.023 A 
ATOM     17  C   UNL     1       0.087  -0.429   2.493  0.00  0.00    +0.037 A 
BRANCH  12  19
ATOM     18  C   UNL     1      -0.318   0.214  -0.669  0.00  0.00    +0.009 C 
ATOM     19  C   UNL     1      -0.032  -1.091   0.076  0.00  0.00    +0.033 C 
ENDBRANCH  12  19
ENDBRANCH   1  17
BRANCH   4  20
ATOM     20  C   UNL     1      -5.479  -0.394   4.877  0.00  0.00    +0.153 C 
BRANCH  20  21
ATOM     21  S   UNL     1      -6.338  -1.918   4.400  0.00  0.00    -0.078 S 
BRANCH  21  22
ATOM     22  C   UNL     1      -8.045  -1.496   4.502  0.00  0.00    +0.196 A 
ATOM     23  N   UNL     1      -8.539  -0.327   4.844  0.00  0.00    -0.122 NA
ATOM     24  N   UNL     1      -9.825  -0.360   4.814  0.00  0.00    -0.129 NA
ATOM     25  C   UNL     1     -10.231  -1.562   4.449  0.00  0.00    +0.162 A 
ATOM     26  N   UNL     1      -9.099  -2.319   4.234  0.00  0.00    -0.277 N 
ATOM     27  C   UNL     1      -9.203  -3.623   3.836  0.00  0.00    +0.107 A 
ATOM     28  C   UNL     1     -10.414  -4.184   3.646  0.00  0.00    +0.071 A 
ATOM     29  C   UNL     1     -11.588  -3.436   3.854  0.00  0.00    +0.017 A 
ATOM     30  C   UNL     1     -11.502  -2.141   4.258  0.00  0.00    +0.049 A 
BRANCH  28  31
ATOM     31  C   UNL     1     -10.512  -5.622   3.206  0.00  0.00    +0.419 C 
ATOM     32  F   UNL     1     -10.677  -6.443   4.327  0.00  0.00    -0.166 F 
ATOM     33  F   UNL     1     -11.608  -5.775   2.351  0.00  0.00    -0.166 F 
ATOM     34  F   UNL     1      -9.341  -5.984   2.532  0.00  0.00    -0.166 F 
ENDBRANCH  28  31
ENDBRANCH  21  22
ENDBRANCH  20  21
ENDBRANCH   4  20
TORSDOF 6
