REMARK  Name = ZINC21031818
REMARK  7 active torsions:
REMARK  status: ('A' for Active; 'I' for Inactive)
REMARK    1  A    between atoms: C_1  and  C_2
REMARK    2  A    between atoms: C_2  and  C_4
REMARK    3  A    between atoms: C_2  and  N_10
REMARK    4  A    between atoms: C_11  and  C_30
REMARK    5  A    between atoms: C_13  and  C_22
REMARK    6  A    between atoms: C_13  and  C_26
REMARK    7  A    between atoms: C_15  and  C_16
REMARK                            x       y       z     vdW  Elec       q    Type
REMARK                         _______ _______ _______ _____ _____    ______ ____
ROOT
ATOM      1  N   UNL     1       1.507   1.918  -3.171  0.00  0.00    -0.267 N 
ATOM      2  C   UNL     1       1.560   3.089  -3.905  0.00  0.00    +0.132 C 
ATOM      3  N   UNL     1       2.665   3.441  -4.486  0.00  0.00    -0.224 NA
ATOM      4  C   UNL     1       3.879   2.640  -4.387  0.00  0.00    +0.325 C 
ATOM      5  N   UNL     1       3.599   1.288  -3.921  0.00  0.00    -0.338 N 
ATOM      6  C   UNL     1       2.491   0.975  -3.349  0.00  0.00    +0.082 C 
ATOM      7  H   UNL     1       4.272   0.602  -4.045  0.00  0.00    +0.163 HD
ENDROOT
BRANCH   6   8
ATOM      8  C   UNL     1       2.268  -0.439  -2.875  0.00  0.00    +0.051 C 
ATOM      9  C   UNL     1       3.509  -0.927  -2.126  0.00  0.00    +0.011 C 
ATOM     10  C   UNL     1       3.284  -2.362  -1.645  0.00  0.00    +0.001 C 
ATOM     11  C   UNL     1       3.026  -3.269  -2.850  0.00  0.00    +0.000 C 
ATOM     12  C   UNL     1       1.785  -2.781  -3.600  0.00  0.00    +0.001 C 
ATOM     13  C   UNL     1       2.011  -1.346  -4.081  0.00  0.00    +0.011 C 
ENDBRANCH   6   8
BRANCH   2  14
ATOM     14  C   UNL     1       0.355   3.941  -4.027  0.00  0.00    +0.015 A 
ATOM     15  C   UNL     1       0.316   5.191  -3.410  0.00  0.00    +0.011 A 
ATOM     16  C   UNL     1      -0.809   5.981  -3.528  0.00  0.00    +0.001 A 
ATOM     17  C   UNL     1      -1.897   5.535  -4.256  0.00  0.00    +0.000 A 
ATOM     18  C   UNL     1      -1.865   4.295  -4.870  0.00  0.00    +0.001 A 
ATOM     19  C   UNL     1      -0.743   3.499  -4.764  0.00  0.00    +0.011 A 
ENDBRANCH   2  14
BRANCH   4  20
ATOM     20  C   UNL     1       4.541   2.566  -5.765  0.00  0.00    +0.442 C 
ATOM     21  F   UNL     1       4.862   3.856  -6.199  0.00  0.00    -0.166 F 
ATOM     22  F   UNL     1       5.708   1.799  -5.680  0.00  0.00    -0.166 F 
ATOM     23  F   UNL     1       3.659   1.973  -6.675  0.00  0.00    -0.166 F 
ENDBRANCH   4  20
BRANCH   4  24
ATOM     24  C   UNL     1       4.843   3.315  -3.409  0.00  0.00    +0.442 C 
ATOM     25  F   UNL     1       4.239   3.412  -2.151  0.00  0.00    -0.166 F 
ATOM     26  F   UNL     1       6.012   2.554  -3.307  0.00  0.00    -0.166 F 
ATOM     27  F   UNL     1       5.160   4.596  -3.874  0.00  0.00    -0.166 F 
ENDBRANCH   4  24
BRANCH   1  29
ATOM     28  C   UNL     1      -0.907   1.587  -2.963  0.00  0.00    +0.033 C 
ATOM     29  C   UNL     1       0.422   1.689  -2.213  0.00  0.00    +0.108 C 
BRANCH  29  30
ATOM     30  C   UNL     1       0.362   2.837  -1.238  0.00  0.00    -0.027 A 
ATOM     31  C   UNL     1       1.528   3.345  -0.695  0.00  0.00    +0.005 A 
ATOM     32  C   UNL     1       1.472   4.398   0.199  0.00  0.00    +0.000 A 
ATOM     33  C   UNL     1       0.251   4.944   0.549  0.00  0.00    +0.000 A 
ATOM     34  C   UNL     1      -0.914   4.437   0.005  0.00  0.00    +0.000 A 
ATOM     35  C   UNL     1      -0.858   3.386  -0.892  0.00  0.00    +0.005 A 
ENDBRANCH  29  30
ENDBRANCH   1  29
TORSDOF 6
