REMARK  Name = ZINC20906713
REMARK  5 active torsions:
REMARK  status: ('A' for Active; 'I' for Inactive)
REMARK    1  A    between atoms: C_8  and  C_10
REMARK    2  A    between atoms: C_10  and  N_11
REMARK    3  A    between atoms: N_11  and  C_12
REMARK    4  A    between atoms: C_12  and  C_13
REMARK    5  A    between atoms: C_18  and  C_19
REMARK                            x       y       z     vdW  Elec       q    Type
REMARK                         _______ _______ _______ _____ _____    ______ ____
ROOT
ATOM      1  C   UNL     1       4.013   7.667  -1.670  0.00  0.00    -0.043 C 
ENDROOT
BRANCH   1   2
ATOM      2  C   UNL     1       4.665   8.076  -2.966  0.00  0.00    -0.019 A 
ATOM      3  C   UNL     1       4.434   9.221  -3.646  0.00  0.00    +0.107 A 
ATOM      4  N   UNL     1       5.210   9.213  -4.750  0.00  0.00    -0.284 N 
ATOM      5  H   UNL     1       5.178  10.060  -5.452  0.00  0.00    +0.188 HD
ATOM      6  N   UNL     1       5.949   8.023  -4.756  0.00  0.00    -0.174 NA
ATOM      7  C   UNL     1       5.628   7.337  -3.680  0.00  0.00    +0.094 A 
BRANCH   7   8
ATOM      8  C   UNL     1       6.180   6.016  -3.289  0.00  0.00    +0.006 A 
ATOM      9  C   UNL     1       6.535   5.772  -1.963  0.00  0.00    +0.014 A 
ATOM     10  C   UNL     1       7.049   4.544  -1.601  0.00  0.00    +0.050 A 
ATOM     11  C   UNL     1       7.215   3.549  -2.552  0.00  0.00    +0.166 A 
ATOM     12  C   UNL     1       6.861   3.788  -3.879  0.00  0.00    +0.167 A 
ATOM     13  C   UNL     1       6.340   5.016  -4.245  0.00  0.00    +0.059 A 
ATOM     14  O   UNL     1       7.119   2.662  -4.608  0.00  0.00    -0.453 OA
ATOM     15  C   UNL     1       7.248   1.601  -3.644  0.00  0.00    +0.466 C 
ATOM     16  O   UNL     1       7.693   2.275  -2.451  0.00  0.00    -0.453 OA
ENDBRANCH   7   8
ENDBRANCH   1   2
BRANCH   1  17
ATOM     17  N   UNL     1       3.024   6.612  -1.931  0.00  0.00    +0.385 N 
ATOM     18  H   UNL     1       3.518   5.793  -2.473  0.00  0.00    -0.085 HD
ATOM     19  H   UNL     1       2.219   7.030  -2.553  0.00  0.00    -0.085 HD
BRANCH  17  20
ATOM     20  C   UNL     1       2.458   6.099  -0.677  0.00  0.00    -0.037 C 
BRANCH  20  28
ATOM     21  C   UNL     1      -0.635   0.769  -1.866  0.00  0.00    +0.001 A 
ATOM     22  C   UNL     1      -1.840   1.446  -2.002  0.00  0.00    +0.001 A 
ATOM     23  C   UNL     1      -1.873   2.816  -1.835  0.00  0.00    +0.016 A 
ATOM     24  C   UNL     1      -0.707   3.493  -1.548  0.00  0.00    +0.021 A 
ATOM     25  C   UNL     1       0.532   2.830  -1.410  0.00  0.00    +0.008 A 
ATOM     26  C   UNL     1       0.521   1.425  -1.582  0.00  0.00    +0.010 A 
ATOM     27  C   UNL     1       1.657   3.702  -1.107  0.00  0.00    +0.057 A 
ATOM     28  C   UNL     1       1.450   5.022  -0.984  0.00  0.00    -0.008 A 
ATOM     29  S   UNL     1      -0.300   5.198  -1.271  0.00  0.00    -0.094 S 
ATOM     30 CL   UNL     1       3.250   3.042  -0.906  0.00  0.00    -0.082 Cl
ENDBRANCH  20  28
ENDBRANCH  17  20
ENDBRANCH   1  17
TORSDOF 5
