REMARK  Name = ZINC22611645
REMARK  10 active torsions:
REMARK  status: ('A' for Active; 'I' for Inactive)
REMARK    1  A    between atoms: C_1  and  C_2
REMARK    2  A    between atoms: C_2  and  C_4
REMARK    3  A    between atoms: C_2  and  S_15
REMARK    4  A    between atoms: C_7  and  C_9
REMARK    5  A    between atoms: S_15  and  C_16
REMARK    6  A    between atoms: C_19  and  C_25
REMARK    7  A    between atoms: N_20  and  C_21
REMARK    8  A    between atoms: C_21  and  C_22
REMARK    9  A    between atoms: C_22  and  O_23
REMARK   10  A    between atoms: O_23  and  C_24
REMARK                            x       y       z     vdW  Elec       q    Type
REMARK                         _______ _______ _______ _____ _____    ______ ____
ROOT
ATOM      1  C   UNL     1       1.712   1.777   2.555  0.00  0.00    +0.193 A 
ATOM      2  N   UNL     1       2.049   2.490   1.501  0.00  0.00    -0.122 NA
ATOM      3  N   UNL     1       3.184   3.059   1.698  0.00  0.00    -0.128 NA
ATOM      4  C   UNL     1       3.641   2.745   2.888  0.00  0.00    +0.165 A 
ATOM      5  N   UNL     1       2.710   1.919   3.475  0.00  0.00    -0.300 N 
ENDROOT
BRANCH   4   6
ATOM      6  C   UNL     1       4.914   3.199   3.487  0.00  0.00    +0.022 A 
ATOM      7  C   UNL     1       5.590   4.316   2.981  0.00  0.00    +0.031 A 
ATOM      8  C   UNL     1       6.772   4.707   3.574  0.00  0.00    +0.111 A 
ATOM      9  N   UNL     1       7.271   4.039   4.597  0.00  0.00    -0.263 NA
ATOM     10  C   UNL     1       6.668   2.978   5.102  0.00  0.00    +0.111 A 
ATOM     11  C   UNL     1       5.480   2.521   4.574  0.00  0.00    +0.031 A 
ENDBRANCH   4   6
BRANCH   1  12
ATOM     12  S   UNL     1       0.243   0.823   2.745  0.00  0.00    -0.073 S 
BRANCH  12  14
ATOM     13  C   UNL     1       0.309   0.545   0.028  0.00  0.00    +0.029 C 
ATOM     14  C   UNL     1      -0.547   1.140   1.148  0.00  0.00    +0.139 C 
BRANCH  14  15
ATOM     15  C   UNL     1      -1.913   0.504   1.128  0.00  0.00    +0.231 A 
ATOM     16  N   UNL     1      -2.210  -0.696   1.541  0.00  0.00    -0.111 NA
ATOM     17  N   UNL     1      -3.468  -0.909   1.376  0.00  0.00    -0.107 NA
ATOM     18  C   UNL     1      -4.022   0.158   0.849  0.00  0.00    +0.248 A 
ATOM     19  O   UNL     1      -3.048   1.075   0.688  0.00  0.00    -0.419 OA
BRANCH  18  20
ATOM     20  C   UNL     1      -5.450   0.324   0.503  0.00  0.00    +0.038 A 
ATOM     21  C   UNL     1      -5.902   1.523  -0.049  0.00  0.00    +0.013 A 
ATOM     22  C   UNL     1      -7.234   1.670  -0.376  0.00  0.00    +0.001 A 
ATOM     23  C   UNL     1      -8.124   0.635  -0.145  0.00  0.00    +0.000 A 
ATOM     24  C   UNL     1      -7.683  -0.554   0.407  0.00  0.00    +0.001 A 
ATOM     25  C   UNL     1      -6.352  -0.716   0.732  0.00  0.00    +0.013 A 
ENDBRANCH  18  20
ENDBRANCH  14  15
ENDBRANCH  12  14
ENDBRANCH   1  12
BRANCH   5  26
ATOM     26  C   UNL     1       2.777   1.316   4.808  0.00  0.00    +0.154 C 
BRANCH  26  27
ATOM     27  C   UNL     1       3.401  -0.077   4.707  0.00  0.00    +0.181 C 
BRANCH  27  28
ATOM     28  O   UNL     1       3.466  -0.666   6.007  0.00  0.00    -0.381 OA
ATOM     29  C   UNL     1       4.037  -1.976   6.025  0.00  0.00    +0.194 C 
ENDBRANCH  27  28
ENDBRANCH  26  27
ENDBRANCH   5  26
TORSDOF 8
