REMARK  Name = ZINC00635934
REMARK  4 active torsions:
REMARK  status: ('A' for Active; 'I' for Inactive)
REMARK    1  A    between atoms: C_1  and  O_2
REMARK    2  A    between atoms: O_2  and  C_3
REMARK    3  A    between atoms: C_6  and  C_10
REMARK    4  A    between atoms: C_21  and  C_23
REMARK                            x       y       z     vdW  Elec       q    Type
REMARK                         _______ _______ _______ _____ _____    ______ ____
ROOT
ATOM      1  C   UNL     1      -4.982  -2.629   0.036  0.00  0.00    +0.159 C 
ATOM      2  C   UNL     1      -5.330  -3.000  -1.389  0.00  0.00    +0.027 C 
ATOM      3  C   UNL     1      -5.539  -4.302  -1.672  0.00  0.00    +0.083 C 
ATOM      4  C   UNL     1      -5.871  -4.653  -3.076  0.00  0.00    +0.042 A 
ATOM      5  C   UNL     1      -6.409  -5.888  -3.407  0.00  0.00    +0.013 A 
ATOM      6  C   UNL     1      -6.705  -6.173  -4.727  0.00  0.00    +0.001 A 
ATOM      7  C   UNL     1      -6.466  -5.231  -5.712  0.00  0.00    +0.004 A 
ATOM      8  C   UNL     1      -5.930  -3.998  -5.391  0.00  0.00    +0.046 A 
ATOM      9  C   UNL     1      -5.627  -3.700  -4.074  0.00  0.00    +0.131 A 
ATOM     10  O   UNL     1      -5.093  -2.500  -3.731  0.00  0.00    -0.479 OA
ATOM     11  C   UNL     1      -5.452  -1.956  -2.459  0.00  0.00    +0.234 C 
ATOM     12  N   UNL     1      -5.450  -5.259  -0.715  0.00  0.00    -0.213 NA
ATOM     13  C   UNL     1      -5.154  -5.024   0.542  0.00  0.00    +0.237 C 
ATOM     14  N   UNL     1      -4.906  -3.744   0.987  0.00  0.00    -0.208 N 
ATOM     15  N   UNL     1      -4.622  -3.846   2.350  0.00  0.00    -0.251 N 
ATOM     16  C   UNL     1      -4.710  -5.168   2.665  0.00  0.00    +0.203 C 
ATOM     17  N   UNL     1      -5.025  -5.846   1.607  0.00  0.00    -0.205 NA
ATOM     18  H   UNL     1      -4.404  -3.119   2.954  0.00  0.00    +0.171 HD
ENDROOT
BRANCH   1  22
ATOM     19  C   UNL     1      -1.200  -0.637   0.010  0.00  0.00    +0.134 A 
ATOM     20  C   UNL     1      -2.375   0.101   0.019  0.00  0.00    +0.047 A 
ATOM     21  C   UNL     1      -3.596  -0.545   0.028  0.00  0.00    +0.009 A 
ATOM     22  C   UNL     1      -3.648  -1.927   0.027  0.00  0.00    -0.020 A 
ATOM     23  C   UNL     1      -2.480  -2.666   0.017  0.00  0.00    +0.024 A 
ATOM     24  C   UNL     1      -1.256  -2.024   0.003  0.00  0.00    +0.060 A 
ATOM     25 BR   UNL     1       0.342  -3.035  -0.018  0.00  0.00    -0.047 Br
BRANCH  19  27
ATOM     26  C   UNL     1      -0.017   1.425   0.010  0.00  0.00    +0.277 C 
ATOM     27  O   UNL     1       0.002  -0.004   0.002  0.00  0.00    -0.494 OA
ENDBRANCH  19  27
ENDBRANCH   1  22
BRANCH  11  28
ATOM     28  C   UNL     1      -6.873  -1.459  -2.513  0.00  0.00    -0.003 A 
ATOM     29  C   UNL     1      -7.840  -2.202  -3.165  0.00  0.00    +0.010 A 
ATOM     30  C   UNL     1      -9.144  -1.748  -3.215  0.00  0.00    +0.039 A 
ATOM     31  C   UNL     1      -9.483  -0.549  -2.610  0.00  0.00    +0.123 A 
ATOM     32  C   UNL     1      -8.514   0.193  -1.957  0.00  0.00    +0.039 A 
ATOM     33  C   UNL     1      -7.212  -0.265  -1.904  0.00  0.00    +0.010 A 
ATOM     34  F   UNL     1     -10.758  -0.104  -2.658  0.00  0.00    -0.205 F 
ENDBRANCH  11  28
TORSDOF 3
