REMARK  Name = ZINC38596136
REMARK  11 active torsions:
REMARK  status: ('A' for Active; 'I' for Inactive)
REMARK    1  A    between atoms: C_1  and  C_2
REMARK    2  A    between atoms: C_2  and  C_4
REMARK    3  A    between atoms: C_2  and  N_24
REMARK    4  A    between atoms: C_4  and  C_6
REMARK    5  A    between atoms: C_4  and  N_11
REMARK    6  A    between atoms: N_14  and  C_17
REMARK    7  A    between atoms: C_17  and  C_18
REMARK    8  A    between atoms: N_24  and  S_25
REMARK    9  A    between atoms: S_25  and  C_28
REMARK   10  A    between atoms: C_32  and  C_34
REMARK   11  A    between atoms: C_34  and  C_36
REMARK                            x       y       z     vdW  Elec       q    Type
REMARK                         _______ _______ _______ _____ _____    ______ ____
ROOT
ATOM      1  C   UNL     1       0.756  -0.597  -1.190  0.00  0.00    +0.112 C 
ENDROOT
BRANCH   1   2
ATOM      2  N   UNL     1       2.164  -0.185  -1.133  0.00  0.00    -0.297 NA
ATOM      3  C   UNL     1       2.280   1.272  -0.972  0.00  0.00    +0.066 C 
ATOM      4  C   UNL     1       3.758   1.653  -0.858  0.00  0.00    -0.063 C 
ATOM      5  N   UNL     1       4.471   1.218  -2.067  0.00  0.00    +0.384 N 
ATOM      6  C   UNL     1       4.367  -0.241  -2.201  0.00  0.00    -0.063 C 
ATOM      7  C   UNL     1       2.894  -0.638  -2.326  0.00  0.00    +0.066 C 
ATOM      8  H   UNL     1       4.061   1.661  -2.876  0.00  0.00    -0.081 HD
BRANCH   5   9
ATOM      9  C   UNL     1       5.886   1.601  -1.964  0.00  0.00    -0.043 C 
BRANCH   9  10
ATOM     10  C   UNL     1       6.591   1.266  -3.253  0.00  0.00    -0.064 A 
ATOM     11  C   UNL     1       7.172   0.023  -3.420  0.00  0.00    +0.002 A 
ATOM     12  C   UNL     1       7.819  -0.284  -4.603  0.00  0.00    +0.000 A 
ATOM     13  C   UNL     1       7.884   0.651  -5.618  0.00  0.00    +0.000 A 
ATOM     14  C   UNL     1       7.302   1.894  -5.452  0.00  0.00    +0.000 A 
ATOM     15  C   UNL     1       6.651   2.200  -4.271  0.00  0.00    +0.002 A 
ENDBRANCH   9  10
ENDBRANCH   5   9
ENDBRANCH   1   2
BRANCH   1  16
ATOM     16  C   UNL     1       0.677  -2.091  -1.378  0.00  0.00    +0.008 A 
ATOM     17  C   UNL     1      -0.168  -2.809  -2.157  0.00  0.00    +0.013 A 
ATOM     18  C   UNL     1      -0.056  -4.187  -2.174  0.00  0.00    +0.008 A 
ATOM     19  C   UNL     1       0.895  -4.779  -1.410  0.00  0.00    +0.045 A 
ATOM     20  S   UNL     1       1.676  -3.371  -0.637  0.00  0.00    -0.100 S 
ENDBRANCH   1  16
BRANCH   1  22
ATOM     21  C   UNL     1      -1.406  -0.651   0.061  0.00  0.00    +0.027 C 
ATOM     22  C   UNL     1       0.058  -0.210   0.115  0.00  0.00    +0.095 C 
BRANCH  22  23
ATOM     23  N   UNL     1       0.725  -0.870   1.240  0.00  0.00    -0.185 NA
ATOM     24  H   UNL     1       1.094  -1.760   1.131  0.00  0.00    +0.148 HD
BRANCH  23  25
ATOM     25  S   UNL     1       0.850  -0.095   2.699  0.00  0.00    +0.059 S 
ATOM     26  O   UNL     1       1.514  -0.991   3.579  0.00  0.00    -0.153 OA
ATOM     27  O   UNL     1       1.343   1.209   2.425  0.00  0.00    -0.153 OA
BRANCH  25  28
ATOM     28  C   UNL     1      -0.785   0.105   3.324  0.00  0.00    +0.106 A 
ATOM     29  C   UNL     1      -1.510   1.242   3.008  0.00  0.00    +0.028 A 
ATOM     30  C   UNL     1      -2.796   1.408   3.493  0.00  0.00    +0.003 A 
ATOM     31  C   UNL     1      -3.363   0.442   4.297  0.00  0.00    +0.011 A 
ATOM     32  C   UNL     1      -2.637  -0.708   4.621  0.00  0.00    +0.019 A 
ATOM     33  C   UNL     1      -1.341  -0.872   4.121  0.00  0.00    +0.040 A 
BRANCH  32  34
ATOM     34  C   UNL     1      -3.236  -1.744   5.479  0.00  0.00    +0.160 C 
ATOM     35  O   UNL     1      -2.603  -2.740   5.757  0.00  0.00    -0.292 OA
ATOM     36  C   UNL     1      -4.634  -1.566   6.010  0.00  0.00    +0.091 C 
ENDBRANCH  32  34
ENDBRANCH  25  28
ENDBRANCH  23  25
ENDBRANCH  22  23
ENDBRANCH   1  22
TORSDOF 9
