REMARK  Name = ZINC14719006
REMARK  7 active torsions:
REMARK  status: ('A' for Active; 'I' for Inactive)
REMARK    1  A    between atoms: C_6  and  C_7
REMARK    2  A    between atoms: N_11  and  C_15
REMARK    3  A    between atoms: C_15  and  C_16
REMARK    4  A    between atoms: C_16  and  N_17
REMARK    5  A    between atoms: C_18  and  C_20
REMARK    6  A    between atoms: C_20  and  O_21
REMARK    7  A    between atoms: O_21  and  C_22
REMARK                            x       y       z     vdW  Elec       q    Type
REMARK                         _______ _______ _______ _____ _____    ______ ____
ROOT
ATOM      1  C   UNL     1      -9.236  -6.163  -2.075  0.00  0.00    +0.028 C 
ATOM      2  C   UNL     1      -8.253  -6.108  -1.141  0.00  0.00    +0.080 C 
ATOM      3  C   UNL     1      -6.860  -5.635  -1.268  0.00  0.00    +0.260 C 
ATOM      4  O   UNL     1      -6.423  -5.210  -2.322  0.00  0.00    -0.269 OA
ATOM      5  N   UNL     1      -6.112  -5.696  -0.180  0.00  0.00    -0.227 N 
ATOM      6  C   UNL     1      -6.599  -6.172   0.984  0.00  0.00    +0.286 C 
ATOM      7  O   UNL     1      -6.027  -6.288   2.051  0.00  0.00    -0.262 OA
ATOM      8  S   UNL     1      -8.288  -6.588   0.581  0.00  0.00    -0.026 S 
ENDROOT
BRANCH   1  14
ATOM      9  C   UNL     1     -10.642  -7.568  -0.582  0.00  0.00    +0.012 A 
ATOM     10  C   UNL     1     -11.838  -8.188  -0.291  0.00  0.00    +0.050 A 
ATOM     11  C   UNL     1     -12.907  -8.095  -1.171  0.00  0.00    +0.166 A 
ATOM     12  C   UNL     1     -12.778  -7.367  -2.356  0.00  0.00    +0.167 A 
ATOM     13  C   UNL     1     -11.586  -6.737  -2.652  0.00  0.00    +0.057 A 
ATOM     14  C   UNL     1     -10.507  -6.831  -1.764  0.00  0.00    -0.020 A 
ATOM     15  O   UNL     1     -13.959  -7.431  -3.037  0.00  0.00    -0.453 OA
ATOM     16  C   UNL     1     -14.675  -8.540  -2.461  0.00  0.00    +0.466 C 
ATOM     17  O   UNL     1     -14.168  -8.613  -1.115  0.00  0.00    -0.453 OA
ENDBRANCH   1  14
BRANCH   5  18
ATOM     18  C   UNL     1      -4.720  -5.242  -0.241  0.00  0.00    +0.136 C 
BRANCH  18  19
ATOM     19  C   UNL     1      -4.654  -3.752   0.100  0.00  0.00    +0.123 C 
BRANCH  19  20
ATOM     20  N   UNL     1      -3.263  -3.298   0.038  0.00  0.00    -0.311 N 
ATOM     21  C   UNL     1      -2.962  -2.011   0.303  0.00  0.00    +0.251 C 
ATOM     22  O   UNL     1      -3.842  -1.229   0.592  0.00  0.00    -0.272 OA
ATOM     23  H   UNL     1      -2.558  -3.923  -0.193  0.00  0.00    +0.149 HD
BRANCH  21  24
ATOM     24  C   UNL     1      -1.530  -1.544   0.240  0.00  0.00    +0.324 C 
BRANCH  24  25
ATOM     25  O   UNL     1      -1.469  -0.152   0.558  0.00  0.00    -0.481 OA
BRANCH  25  26
ATOM     26  C   UNL     1      -0.240   0.430   0.546  0.00  0.00    +0.140 A 
ATOM     27  C   UNL     1       0.882  -0.323   0.235  0.00  0.00    +0.048 A 
ATOM     28  C   UNL     1       2.129   0.271   0.218  0.00  0.00    +0.023 A 
ATOM     29  C   UNL     1       2.260   1.616   0.517  0.00  0.00    +0.043 A 
ATOM     30  C   UNL     1       1.143   2.368   0.833  0.00  0.00    +0.043 A 
ATOM     31  C   UNL     1      -0.107   1.777   0.851  0.00  0.00    +0.084 A 
ATOM     32 CL   UNL     1      -1.509   2.721   1.247  0.00  0.00    -0.080 Cl
ATOM     33 CL   UNL     1       3.828   2.360   0.496  0.00  0.00    -0.083 Cl
ENDBRANCH  25  26
ENDBRANCH  24  25
ENDBRANCH  21  24
ENDBRANCH  19  20
ENDBRANCH  18  19
ENDBRANCH   5  18
TORSDOF 7
