REMARK  Name = ZINC35093574
REMARK  13 active torsions:
REMARK  status: ('A' for Active; 'I' for Inactive)
REMARK    1  A    between atoms: C_1  and  C_2
REMARK    2  A    between atoms: C_2  and  C_3
REMARK    3  A    between atoms: C_6  and  N_9
REMARK    4  A    between atoms: C_19  and  C_20
REMARK    5  A    between atoms: C_20  and  C_22
REMARK    6  A    between atoms: C_20  and  N_24
REMARK    7  A    between atoms: C_22  and  C_23
REMARK    8  A    between atoms: N_24  and  C_25
REMARK    9  A    between atoms: C_25  and  C_26
REMARK   10  A    between atoms: C_26  and  N_27
REMARK   11  A    between atoms: N_27  and  C_28
REMARK   12  A    between atoms: N_27  and  C_29
REMARK   13  A    between atoms: N_32  and  C_33
REMARK                            x       y       z     vdW  Elec       q    Type
REMARK                         _______ _______ _______ _____ _____    ______ ____
ROOT
ATOM      1  C   UNL     1       4.609  -1.632  -3.316  0.00  0.00    +0.144 C 
ENDROOT
BRANCH   1  12
ATOM      2  N   UNL     1       3.050  -3.139  -4.484  0.00  0.00    -0.263 N 
ATOM      3  C   UNL     1       2.293  -3.509  -5.544  0.00  0.00    +0.266 A 
ATOM      4  O   UNL     1       1.621  -4.523  -5.517  0.00  0.00    -0.267 OA
ATOM      5  C   UNL     1       2.315  -2.638  -6.728  0.00  0.00    +0.065 A 
ATOM      6  C   UNL     1       1.572  -2.929  -7.870  0.00  0.00    +0.015 A 
ATOM      7  C   UNL     1       1.629  -2.078  -8.952  0.00  0.00    +0.001 A 
ATOM      8  C   UNL     1       2.419  -0.936  -8.912  0.00  0.00    +0.002 A 
ATOM      9  C   UNL     1       3.161  -0.631  -7.793  0.00  0.00    +0.028 A 
ATOM     10  C   UNL     1       3.120  -1.478  -6.683  0.00  0.00    +0.078 A 
ATOM     11  N   UNL     1       3.834  -1.214  -5.561  0.00  0.00    -0.231 NA
ATOM     12  C   UNL     1       3.791  -1.999  -4.527  0.00  0.00    +0.138 A 
BRANCH   2  16
ATOM     13  C   UNL     1       3.095  -5.503  -1.052  0.00  0.00    -0.047 A 
ATOM     14  C   UNL     1       3.707  -5.952  -2.208  0.00  0.00    +0.005 A 
ATOM     15  C   UNL     1       3.694  -5.171  -3.347  0.00  0.00    +0.026 A 
ATOM     16  C   UNL     1       3.064  -3.933  -3.331  0.00  0.00    +0.051 A 
ATOM     17  C   UNL     1       2.450  -3.485  -2.169  0.00  0.00    +0.026 A 
ATOM     18  C   UNL     1       2.462  -4.273  -1.035  0.00  0.00    +0.005 A 
BRANCH  13  20
ATOM     19  C   UNL     1       1.886  -7.274   0.193  0.00  0.00    +0.009 C 
ATOM     20  C   UNL     1       3.111  -6.358   0.189  0.00  0.00    +0.032 C 
ENDBRANCH  13  20
ENDBRANCH   2  16
ENDBRANCH   1  12
BRANCH   1  21
ATOM     21  N   UNL     1       6.034  -1.681  -3.656  0.00  0.00    -0.277 N 
ATOM     22  C   UNL     1       6.856  -2.519  -2.993  0.00  0.00    +0.307 C 
ATOM     23  O   UNL     1       6.416  -3.233  -2.114  0.00  0.00    -0.252 OA
ATOM     24  N   UNL     1       8.166  -2.564  -3.306  0.00  0.00    -0.269 N 
ATOM     25  H   UNL     1       8.506  -2.041  -4.049  0.00  0.00    +0.156 HD
BRANCH  24  26
ATOM     26  C   UNL     1       9.037  -3.365  -2.558  0.00  0.00    +0.037 A 
ATOM     27  C   UNL     1      10.336  -2.940  -2.313  0.00  0.00    +0.023 A 
ATOM     28  C   UNL     1      11.194  -3.732  -1.575  0.00  0.00    +0.005 A 
ATOM     29  C   UNL     1      10.761  -4.949  -1.080  0.00  0.00    +0.038 A 
ATOM     30  C   UNL     1       9.466  -5.376  -1.322  0.00  0.00    +0.125 A 
ATOM     31  C   UNL     1       8.601  -4.584  -2.055  0.00  0.00    +0.061 A 
ATOM     32  F   UNL     1       9.046  -6.565  -0.837  0.00  0.00    -0.205 F 
ENDBRANCH  24  26
BRANCH  21  33
ATOM     33  C   UNL     1       6.564  -0.820  -4.715  0.00  0.00    +0.091 C 
BRANCH  33  34
ATOM     34  C   UNL     1       7.016   0.511  -4.112  0.00  0.00    -0.060 C 
BRANCH  34  35
ATOM     35  N   UNL     1       7.548   1.375  -5.175  0.00  0.00    +0.377 N 
ATOM     36  C   UNL     1       6.471   1.719  -6.112  0.00  0.00    -0.097 C 
ATOM     37  C   UNL     1       8.092   2.604  -4.581  0.00  0.00    -0.097 C 
ATOM     38  H   UNL     1       8.281   0.887  -5.669  0.00  0.00    -0.083 HD
ENDBRANCH  34  35
ENDBRANCH  33  34
ENDBRANCH  21  33
ENDBRANCH   1  21
BRANCH   1  39
ATOM     39  C   UNL     1       4.242  -0.218  -2.862  0.00  0.00    +0.027 C 
ATOM     40  C   UNL     1       4.970   0.103  -1.555  0.00  0.00    +0.006 C 
ENDBRANCH   1  39
TORSDOF 9
