REMARK  Name = ZINC01206571
REMARK  5 active torsions:
REMARK  status: ('A' for Active; 'I' for Inactive)
REMARK    1  A    between atoms: C_9  and  O_12
REMARK    2  A    between atoms: O_12  and  C_13
REMARK    3  A    between atoms: C_13  and  C_14
REMARK    4  A    between atoms: C_16  and  N_53
REMARK    5  A    between atoms: C_20  and  N_25
REMARK                            x       y       z     vdW  Elec       q    Type
REMARK                         _______ _______ _______ _____ _____    ______ ____
ROOT
ATOM      1  C   UNL     1      -1.030  -6.583  -0.120  0.00  0.00    +0.054 C 
ATOM      2  C   UNL     1      -1.649  -7.218   0.854  0.00  0.00    +0.096 C 
ATOM      3  C   UNL     1      -2.607  -6.616   1.862  0.00  0.00    +0.034 C 
ATOM      4  C   UNL     1      -2.999  -7.798   2.721  0.00  0.00    -0.009 A 
ATOM      5  C   UNL     1      -3.837  -7.929   3.805  0.00  0.00    +0.038 A 
ATOM      6  C   UNL     1      -4.000  -9.165   4.406  0.00  0.00    +0.127 A 
ATOM      7  C   UNL     1      -3.319 -10.263   3.913  0.00  0.00    +0.036 A 
ATOM      8  C   UNL     1      -2.479 -10.133   2.827  0.00  0.00    +0.049 A 
ATOM      9  C   UNL     1      -2.309  -8.891   2.216  0.00  0.00    +0.130 A 
ATOM     10  O   UNL     1      -1.548  -8.533   1.154  0.00  0.00    -0.462 OA
ENDROOT
BRANCH   3  16
ATOM     11  C   UNL     1      -4.582  -5.237   2.111  0.00  0.00    -0.049 C 
ATOM     12  C   UNL     1      -5.764  -4.626   1.353  0.00  0.00    +0.141 C 
ATOM     13  O   UNL     1      -6.534  -5.674   0.757  0.00  0.00    -0.383 OA
ATOM     14  C   UNL     1      -5.789  -6.492  -0.149  0.00  0.00    +0.141 C 
ATOM     15  C   UNL     1      -4.607  -7.121   0.593  0.00  0.00    -0.049 C 
ATOM     16  N   UNL     1      -3.778  -6.040   1.167  0.00  0.00    +0.392 N 
ATOM     17  H   UNL     1      -3.449  -5.433   0.407  0.00  0.00    -0.080 HD
ENDBRANCH   3  16
BRANCH   6  18
ATOM     18  N   UNL     1      -4.901  -9.311   5.572  0.00  0.00    +0.056 N 
ATOM     19  O   UNL     1      -5.500  -8.343   6.004  0.00  0.00    -0.126 OA
ATOM     20  O   UNL     1      -5.043 -10.400   6.099  0.00  0.00    -0.126 OA
ENDBRANCH   6  18
BRANCH   1  21
ATOM     21  C   UNL     1      -1.153  -5.087  -0.242  0.00  0.00    +0.260 C 
BRANCH  21  22
ATOM     22  O   UNL     1       0.135  -4.522  -0.498  0.00  0.00    -0.487 OA
BRANCH  22  31
ATOM     23  C   UNL     1       1.556   1.585  -1.299  0.00  0.00    +0.001 A 
ATOM     24  C   UNL     1       2.723   0.831  -1.412  0.00  0.00    +0.001 A 
ATOM     25  C   UNL     1       2.697  -0.523  -1.280  0.00  0.00    +0.010 A 
ATOM     26  C   UNL     1       1.478  -1.174  -1.025  0.00  0.00    -0.000 A 
ATOM     27  C   UNL     1       0.291  -0.407  -0.910  0.00  0.00    -0.017 A 
ATOM     28  C   UNL     1       0.358   0.989  -1.053  0.00  0.00    +0.008 A 
ATOM     29  C   UNL     1      -0.930  -1.055  -0.657  0.00  0.00    +0.012 A 
ATOM     30  C   UNL     1      -0.965  -2.408  -0.523  0.00  0.00    +0.047 A 
ATOM     31  C   UNL     1       0.200  -3.172  -0.636  0.00  0.00    +0.135 A 
ATOM     32  C   UNL     1       1.414  -2.570  -0.883  0.00  0.00    +0.067 A 
ATOM     33 BR   UNL     1       2.982  -3.616  -1.032  0.00  0.00    -0.046 Br
ENDBRANCH  22  31
ENDBRANCH  21  22
ENDBRANCH   1  21
TORSDOF 5
