REMARK  Name = ZINC05419628
REMARK  6 active torsions:
REMARK  status: ('A' for Active; 'I' for Inactive)
REMARK    1  A    between atoms: C_1  and  C_2
REMARK    2  A    between atoms: C_4  and  C_9
REMARK    3  A    between atoms: C_7  and  N_8
REMARK    4  A    between atoms: C_9  and  C_17
REMARK    5  A    between atoms: C_20  and  N_24
REMARK    6  A    between atoms: C_21  and  C_23
REMARK                            x       y       z     vdW  Elec       q    Type
REMARK                         _______ _______ _______ _____ _____    ______ ____
ROOT
ATOM      1  C   UNL     1       0.028  -2.812  -2.466  0.00  0.00    -0.004 C 
ATOM      2  C   UNL     1       1.127  -2.700  -3.339  0.00  0.00    -0.017 C 
ATOM      3  C   UNL     1       2.229  -1.889  -2.985  0.00  0.00    +0.010 C 
ATOM      4  C   UNL     1       3.287  -1.780  -3.822  0.00  0.00    +0.027 C 
ATOM      5  C   UNL     1       3.289  -2.481  -5.054  0.00  0.00    +0.055 C 
ATOM      6  N   UNL     1       4.324  -2.376  -5.876  0.00  0.00    -0.300 NA
ATOM      7  C   UNL     1       2.183  -3.293  -5.407  0.00  0.00    +0.027 C 
ATOM      8  C   UNL     1       1.129  -3.403  -4.564  0.00  0.00    +0.010 C 
ATOM      9  H   UNL     1       4.325  -2.855  -6.719  0.00  0.00    +0.187 HD
ENDROOT
BRANCH   1  13
ATOM     10  C   UNL     1      -0.018   1.503   0.010  0.00  0.00    +0.045 C 
ATOM     11  C   UNL     1       0.002  -0.004   0.002  0.00  0.00    -0.029 A 
ATOM     12  C   UNL     1       0.006  -0.679  -1.185  0.00  0.00    +0.013 A 
ATOM     13  C   UNL     1       0.025  -2.081  -1.191  0.00  0.00    -0.016 A 
ATOM     14  C   UNL     1       0.040  -2.783   0.022  0.00  0.00    +0.010 A 
ATOM     15  C   UNL     1       0.036  -2.100   1.204  0.00  0.00    +0.023 A 
ATOM     16  C   UNL     1       0.023  -0.706   1.205  0.00  0.00    +0.028 A 
BRANCH  16  17
ATOM     17  N   UNL     1       0.025  -0.015   2.411  0.00  0.00    -0.358 N 
ATOM     18  H   UNL     1       0.012   0.955   2.413  0.00  0.00    +0.142 HD
ATOM     19  H   UNL     1       0.040  -0.502   3.249  0.00  0.00    +0.142 HD
ENDBRANCH  16  17
ENDBRANCH   1  13
BRANCH   1  20
ATOM     20  C   UNL     1      -1.116  -3.659  -2.830  0.00  0.00    -0.016 A 
ATOM     21  C   UNL     1      -2.372  -3.083  -3.063  0.00  0.00    +0.010 A 
ATOM     22  C   UNL     1      -3.432  -3.874  -3.401  0.00  0.00    +0.023 A 
ATOM     23  C   UNL     1      -3.266  -5.253  -3.514  0.00  0.00    +0.028 A 
ATOM     24  C   UNL     1      -2.019  -5.830  -3.284  0.00  0.00    -0.029 A 
ATOM     25  C   UNL     1      -0.952  -5.046  -2.951  0.00  0.00    +0.013 A 
ATOM     26  C   UNL     1      -1.847  -7.322  -3.408  0.00  0.00    +0.045 C 
BRANCH  23  27
ATOM     27  N   UNL     1      -4.348  -6.055  -3.858  0.00  0.00    -0.358 N 
ATOM     28  H   UNL     1      -5.217  -5.654  -4.018  0.00  0.00    +0.142 HD
ATOM     29  H   UNL     1      -4.234  -7.015  -3.937  0.00  0.00    +0.142 HD
ENDBRANCH  23  27
ENDBRANCH   1  20
TORSDOF 4
