REMARK  Name = ZINC06077576
REMARK  12 active torsions:
REMARK  status: ('A' for Active; 'I' for Inactive)
REMARK    1  A    between atoms: C_1  and  C_2
REMARK    2  A    between atoms: C_2  and  C_3
REMARK    3  A    between atoms: C_3  and  C_4
REMARK    4  A    between atoms: C_3  and  C_5
REMARK    5  A    between atoms: C_3  and  N_6
REMARK    6  A    between atoms: C_7  and  C_11
REMARK    7  A    between atoms: C_11  and  C_13
REMARK    8  A    between atoms: C_11  and  N_72
REMARK    9  A    between atoms: C_17  and  O_25
REMARK   10  A    between atoms: O_25  and  C_26
REMARK   11  A    between atoms: C_26  and  C_27
REMARK   12  A    between atoms: N_30  and  C_33
REMARK                            x       y       z     vdW  Elec       q    Type
REMARK                         _______ _______ _______ _____ _____    ______ ____
ROOT
ATOM      1  C   UNL     1       1.511   7.824  -0.911  0.00  0.00    +0.039 C 
ENDROOT
BRANCH   1   2
ATOM      2  C   UNL     1       0.601   8.370   0.159  0.00  0.00    +0.011 A 
ATOM      3  C   UNL     1       1.020   9.390   0.948  0.00  0.00    +0.017 A 
ATOM      4  C   UNL     1       0.113   9.898   1.978  0.00  0.00    +0.002 A 
ATOM      5  C   UNL     1       0.491  10.949   2.820  0.00  0.00    +0.055 A 
ATOM      6  C   UNL     1      -0.389  11.403   3.780  0.00  0.00    +0.121 A 
ATOM      7  C   UNL     1      -1.648  10.821   3.913  0.00  0.00    +0.047 A 
ATOM      8  C   UNL     1      -2.032   9.785   3.091  0.00  0.00    +0.030 A 
ATOM      9  C   UNL     1      -1.160   9.312   2.115  0.00  0.00    +0.049 A 
ATOM     10  N   UNL     1      -1.526   8.276   1.281  0.00  0.00    -0.322 N 
ATOM     11  H   UNL     1      -2.429   7.857   1.382  0.00  0.00    +0.169 HD
ATOM     12  C   UNL     1      -0.688   7.821   0.334  0.00  0.00    +0.251 A 
ATOM     13  O   UNL     1      -1.047   6.907  -0.389  0.00  0.00    -0.268 OA
BRANCH   6  14
ATOM     14  O   UNL     1      -0.026  12.424   4.602  0.00  0.00    -0.492 OA
BRANCH  14  15
ATOM     15  C   UNL     1      -0.985  12.847   5.574  0.00  0.00    +0.225 C 
ATOM     16  C   UNL     1      -0.402  13.996   6.399  0.00  0.00    +0.048 C 
ENDBRANCH  14  15
ENDBRANCH   6  14
ENDBRANCH   1   2
BRANCH   1  22
ATOM     17  C   UNL     1       2.452   5.788  -1.824  0.00  0.00    -0.058 C 
ATOM     18  C   UNL     1       2.522   4.270  -1.642  0.00  0.00    +0.086 C 
ATOM     19  N   UNL     1       3.127   3.963  -0.338  0.00  0.00    -0.333 N 
ATOM     20  C   UNL     1       2.340   4.550   0.756  0.00  0.00    +0.086 C 
ATOM     21  C   UNL     1       2.270   6.068   0.574  0.00  0.00    -0.058 C 
ATOM     22  N   UNL     1       1.640   6.362  -0.730  0.00  0.00    +0.391 N 
ATOM     23  H   UNL     1       0.704   5.940  -0.752  0.00  0.00    -0.080 HD
BRANCH  19  24
ATOM     24  C   UNL     1       3.274   2.584  -0.166  0.00  0.00    +0.030 A 
ATOM     25  C   UNL     1       3.829   2.084   1.005  0.00  0.00    +0.026 A 
ATOM     26  C   UNL     1       3.972   0.720   1.173  0.00  0.00    +0.040 A 
ATOM     27  C   UNL     1       3.564  -0.148   0.174  0.00  0.00    +0.124 A 
ATOM     28  C   UNL     1       3.010   0.348  -0.994  0.00  0.00    +0.040 A 
ATOM     29  C   UNL     1       2.865   1.711  -1.166  0.00  0.00    +0.026 A 
ATOM     30  F   UNL     1       3.705  -1.481   0.341  0.00  0.00    -0.205 F 
ENDBRANCH  19  24
ENDBRANCH   1  22
BRANCH   1  32
ATOM     31  N   UNL     1       1.398   8.940  -3.201  0.00  0.00    -0.225 N 
ATOM     32  C   UNL     1       0.914   8.101  -2.267  0.00  0.00    +0.143 A 
ATOM     33  N   UNL     1      -0.173   7.567  -2.767  0.00  0.00    -0.115 NA
ATOM     34  N   UNL     1      -0.353   8.059  -3.944  0.00  0.00    -0.023 NA
ATOM     35  N   UNL     1       0.596   8.886  -4.211  0.00  0.00    -0.043 NA
BRANCH  31  36
ATOM     36  C   UNL     1       2.607   9.759  -3.093  0.00  0.00    +0.061 C 
ATOM     37  C   UNL     1       2.493  10.678  -1.875  0.00  0.00    +0.036 C 
ATOM     38  C   UNL     1       3.827   8.850  -2.933  0.00  0.00    +0.036 C 
BRANCH  36  40
ATOM     39  C   UNL     1       4.028  11.462  -4.245  0.00  0.00    +0.006 C 
ATOM     40  C   UNL     1       2.765  10.606  -4.358  0.00  0.00    +0.026 C 
ENDBRANCH  36  40
ENDBRANCH  31  36
ENDBRANCH   1  32
TORSDOF 8
