REMARK  Name = ZINC25229307
REMARK  8 active torsions:
REMARK  status: ('A' for Active; 'I' for Inactive)
REMARK    1  A    between atoms: C_4  and  N_7
REMARK    2  A    between atoms: C_8  and  C_10
REMARK    3  A    between atoms: C_10  and  C_11
REMARK    4  A    between atoms: N_15  and  C_28
REMARK    5  A    between atoms: N_17  and  C_18
REMARK    6  A    between atoms: C_23  and  N_24
REMARK    7  A    between atoms: C_28  and  C_29
REMARK    8  A    between atoms: C_29  and  N_30
REMARK                            x       y       z     vdW  Elec       q    Type
REMARK                         _______ _______ _______ _____ _____    ______ ____
ROOT
ATOM      1  C   UNL     1       0.951   2.159  -1.121  0.00  0.00    +0.149 C 
ATOM      2  C   UNL     1      -0.066   1.080  -0.787  0.00  0.00    +0.235 C 
ATOM      3  O   UNL     1       0.256  -0.075  -0.610  0.00  0.00    -0.274 OA
ATOM      4  N   UNL     1      -1.324   1.479  -0.707  0.00  0.00    -0.249 N 
ATOM      5  C   UNL     1      -1.695   2.793  -0.903  0.00  0.00    +0.164 C 
ATOM      6  N   UNL     1      -2.899   3.312  -0.848  0.00  0.00    -0.224 NA
ATOM      7  S   UNL     1      -0.152   3.621  -1.257  0.00  0.00    -0.077 S 
ENDROOT
BRANCH   6   8
ATOM      8  C   UNL     1      -3.068   4.665  -0.969  0.00  0.00    +0.097 A 
ATOM      9  C   UNL     1      -2.299   5.540  -0.199  0.00  0.00    +0.030 A 
ATOM     10  C   UNL     1      -2.474   6.902  -0.327  0.00  0.00    +0.002 A 
ATOM     11  C   UNL     1      -3.409   7.402  -1.216  0.00  0.00    +0.002 A 
ATOM     12  C   UNL     1      -4.174   6.542  -1.982  0.00  0.00    +0.035 A 
ATOM     13  C   UNL     1      -4.005   5.177  -1.868  0.00  0.00    +0.151 A 
BRANCH  13  14
ATOM     14  N   UNL     1      -4.821   4.257  -2.693  0.00  0.00    +0.059 N 
ATOM     15  O   UNL     1      -5.639   4.705  -3.477  0.00  0.00    -0.126 OA
ATOM     16  O   UNL     1      -4.674   3.053  -2.588  0.00  0.00    -0.126 OA
ENDBRANCH  13  14
ENDBRANCH   6   8
BRANCH   1  17
ATOM     17  C   UNL     1       1.967   2.333   0.009  0.00  0.00    +0.120 C 
BRANCH  17  19
ATOM     18  N   UNL     1       4.029   3.633   0.430  0.00  0.00    -0.285 N 
ATOM     19  C   UNL     1       3.024   3.321  -0.412  0.00  0.00    +0.219 C 
ATOM     20  O   UNL     1       2.970   3.835  -1.510  0.00  0.00    -0.275 OA
ATOM     21  H   UNL     1       4.120   3.113   1.395  0.00  0.00    +0.155 HD
BRANCH  18  25
ATOM     22  C   UNL     1       6.793   6.567  -0.622  0.00  0.00    +0.000 A 
ATOM     23  C   UNL     1       5.478   6.680  -1.033  0.00  0.00    +0.002 A 
ATOM     24  C   UNL     1       4.559   5.708  -0.687  0.00  0.00    +0.023 A 
ATOM     25  C   UNL     1       4.958   4.619   0.076  0.00  0.00    +0.033 A 
ATOM     26  C   UNL     1       6.278   4.512   0.492  0.00  0.00    +0.023 A 
ATOM     27  C   UNL     1       7.193   5.483   0.137  0.00  0.00    +0.002 A 
ENDBRANCH  18  25
ENDBRANCH  17  19
ENDBRANCH   1  17
BRANCH   4  28
ATOM     28  C   UNL     1      -2.359   0.492  -0.394  0.00  0.00    +0.131 C 
BRANCH  28  29
ATOM     29  C   UNL     1      -2.546   0.413   1.123  0.00  0.00    +0.104 C 
BRANCH  29  30
ATOM     30  N   UNL     1      -3.585  -0.577   1.437  0.00  0.00    -0.296 NA
ATOM     31  C   UNL     1      -4.900  -0.134   0.952  0.00  0.00    +0.112 C 
ATOM     32  C   UNL     1      -5.939  -1.218   1.246  0.00  0.00    +0.175 C 
ATOM     33  O   UNL     1      -5.946  -1.497   2.649  0.00  0.00    -0.377 OA
ATOM     34  C   UNL     1      -4.681  -1.933   3.155  0.00  0.00    +0.175 C 
ATOM     35  C   UNL     1      -3.629  -0.855   2.880  0.00  0.00    +0.112 C 
ENDBRANCH  29  30
ENDBRANCH  28  29
ENDBRANCH   4  28
TORSDOF 8
