REMARK  Name = ZINC40777977
REMARK  6 active torsions:
REMARK  status: ('A' for Active; 'I' for Inactive)
REMARK    1  A    between atoms: C_4  and  N_7
REMARK    2  A    between atoms: N_7  and  C_8
REMARK    3  A    between atoms: N_7  and  N_14
REMARK    4  A    between atoms: C_16  and  N_34
REMARK    5  A    between atoms: C_17  and  N_21
REMARK    6  A    between atoms: N_24  and  C_27
REMARK                            x       y       z     vdW  Elec       q    Type
REMARK                         _______ _______ _______ _____ _____    ______ ____
ROOT
ATOM      1  N   UNL     1       4.893  -0.026  -0.109  0.00  0.00    -0.243 N 
ATOM      2  C   UNL     1       5.599   0.197   1.067  0.00  0.00    +0.139 A 
ATOM      3  C   UNL     1       6.780   0.942   1.055  0.00  0.00    +0.105 A 
ATOM      4  C   UNL     1       7.449   1.135   2.264  0.00  0.00    +0.147 A 
ATOM      5  N   UNL     1       6.941   0.606   3.375  0.00  0.00    -0.221 NA
ATOM      6  C   UNL     1       5.823  -0.091   3.343  0.00  0.00    +0.200 A 
ATOM      7  N   UNL     1       5.157  -0.292   2.224  0.00  0.00    -0.332 N 
ATOM      8  H   UNL     1       5.221   0.334  -0.947  0.00  0.00    +0.172 HD
ATOM      9  H   UNL     1       4.335  -0.807   2.242  0.00  0.00    +0.168 HD
ENDROOT
BRANCH   4  10
ATOM     10  N   UNL     1       8.629   1.868   2.308  0.00  0.00    -0.311 N 
ATOM     11  C   UNL     1       8.597   3.329   2.464  0.00  0.00    +0.125 C 
ATOM     12  C   UNL     1       9.448   3.711   3.682  0.00  0.00    +0.124 C 
ATOM     13  N   UNL     1      10.751   3.039   3.572  0.00  0.00    -0.325 N 
ATOM     14  C   UNL     1      10.784   1.578   3.416  0.00  0.00    +0.124 C 
ATOM     15  C   UNL     1       9.932   1.196   2.204  0.00  0.00    +0.125 C 
BRANCH  13  16
ATOM     16  C   UNL     1      11.938   3.776   3.616  0.00  0.00    +0.065 A 
ATOM     17  C   UNL     1      12.567   4.012   4.832  0.00  0.00    +0.026 A 
ATOM     18  C   UNL     1      13.740   4.740   4.872  0.00  0.00    +0.002 A 
ATOM     19  C   UNL     1      14.289   5.236   3.704  0.00  0.00    +0.003 A 
ATOM     20  C   UNL     1      13.666   5.005   2.491  0.00  0.00    +0.040 A 
ATOM     21  C   UNL     1      12.495   4.271   2.442  0.00  0.00    +0.144 A 
ATOM     22  F   UNL     1      11.890   4.040   1.256  0.00  0.00    -0.204 F 
ENDBRANCH  13  16
ENDBRANCH   4  10
BRANCH   3  23
ATOM     23  N   UNL     1       7.280   1.481  -0.141  0.00  0.00    -0.353 N 
ATOM     24  H   UNL     1       6.759   1.418  -0.957  0.00  0.00    +0.143 HD
ATOM     25  H   UNL     1       8.147   1.917  -0.152  0.00  0.00    +0.143 HD
ENDBRANCH   3  23
BRANCH   1  26
ATOM     26  N   UNL     1       3.706  -0.770  -0.083  0.00  0.00    -0.221 N 
BRANCH  26  30
ATOM     27  C   UNL     1       0.032   1.160  -0.428  0.00  0.00    +0.000 A 
ATOM     28  C   UNL     1       0.981   1.637   0.458  0.00  0.00    +0.002 A 
ATOM     29  C   UNL     1       2.200   0.999   0.574  0.00  0.00    +0.025 A 
ATOM     30  C   UNL     1       2.473  -0.122  -0.199  0.00  0.00    +0.053 A 
ATOM     31  C   UNL     1       1.517  -0.599  -1.087  0.00  0.00    +0.025 A 
ATOM     32  C   UNL     1       0.300   0.043  -1.199  0.00  0.00    +0.002 A 
ENDBRANCH  26  30
BRANCH  26  33
ATOM     33  C   UNL     1       3.755  -2.159   0.058  0.00  0.00    +0.053 A 
ATOM     34  C   UNL     1       4.860  -2.866  -0.400  0.00  0.00    +0.025 A 
ATOM     35  C   UNL     1       4.905  -4.239  -0.259  0.00  0.00    +0.002 A 
ATOM     36  C   UNL     1       3.853  -4.910   0.337  0.00  0.00    +0.000 A 
ATOM     37  C   UNL     1       2.752  -4.209   0.793  0.00  0.00    +0.002 A 
ATOM     38  C   UNL     1       2.702  -2.835   0.661  0.00  0.00    +0.025 A 
ENDBRANCH  26  33
ENDBRANCH   1  26
TORSDOF 6
