REMARK  Name = ZINC12900907
REMARK  11 active torsions:
REMARK  status: ('A' for Active; 'I' for Inactive)
REMARK    1  A    between atoms: C_1  and  C_2
REMARK    2  A    between atoms: C_3  and  C_21
REMARK    3  A    between atoms: C_9  and  O_19
REMARK    4  A    between atoms: C_15  and  C_17
REMARK    5  A    between atoms: C_15  and  C_18
REMARK    6  A    between atoms: O_19  and  C_20
REMARK    7  A    between atoms: C_21  and  C_22
REMARK    8  A    between atoms: N_24  and  C_25
REMARK    9  A    between atoms: C_29  and  C_31
REMARK   10  A    between atoms: C_31  and  C_33
REMARK   11  A    between atoms: C_31  and  O_34
REMARK                            x       y       z     vdW  Elec       q    Type
REMARK                         _______ _______ _______ _____ _____    ______ ____
ROOT
ATOM      1  C   UNL     1       3.566   5.983   2.792  0.00  0.00    +0.045 C 
ATOM      2  C   UNL     1       4.304   6.336   1.526  0.00  0.00    -0.026 A 
ATOM      3  C   UNL     1       3.693   6.231   0.317  0.00  0.00    +0.049 A 
ATOM      4  C   UNL     1       4.396   6.572  -0.856  0.00  0.00    +0.341 A 
ATOM      5  O   UNL     1       3.839   6.480  -1.936  0.00  0.00    -0.245 OA
ATOM      6  O   UNL     1       5.670   6.997  -0.802  0.00  0.00    -0.421 OA
ATOM      7  C   UNL     1       6.314   7.109   0.381  0.00  0.00    +0.149 A 
ATOM      8  C   UNL     1       5.650   6.780   1.575  0.00  0.00    +0.063 A 
ATOM      9  C   UNL     1       6.324   6.900   2.803  0.00  0.00    +0.134 A 
ATOM     10  C   UNL     1       7.631   7.339   2.820  0.00  0.00    +0.092 A 
ATOM     11  C   UNL     1       8.288   7.663   1.632  0.00  0.00    +0.131 A 
ATOM     12  C   UNL     1       7.632   7.546   0.419  0.00  0.00    +0.038 A 
ATOM     13  C   UNL     1       8.320   7.878  -0.882  0.00  0.00    +0.046 C 
ATOM     14  C   UNL     1       9.560   8.731  -0.607  0.00  0.00    +0.052 C 
ATOM     15  C   UNL     1      10.361   8.066   0.520  0.00  0.00    +0.105 C 
ATOM     16  O   UNL     1       9.573   8.095   1.710  0.00  0.00    -0.486 OA
ATOM     17  C   UNL     1      11.666   8.833   0.747  0.00  0.00    +0.055 C 
ATOM     18  C   UNL     1      10.674   6.616   0.144  0.00  0.00    +0.055 C 
ENDROOT
BRANCH   9  19
ATOM     19  O   UNL     1       5.693   6.585   3.963  0.00  0.00    -0.494 OA
ATOM     20  C   UNL     1       6.443   6.732   5.170  0.00  0.00    +0.277 C 
ENDBRANCH   9  19
BRANCH   3  21
ATOM     21  C   UNL     1       2.265   5.756   0.231  0.00  0.00    +0.138 C 
BRANCH  21  22
ATOM     22  C   UNL     1       2.243   4.256   0.084  0.00  0.00    +0.222 C 
ATOM     23  O   UNL     1       3.284   3.634   0.052  0.00  0.00    -0.275 OA
ATOM     24  N   UNL     1       1.067   3.606  -0.013  0.00  0.00    -0.285 N 
ATOM     25  H   UNL     1       0.237   4.108  -0.055  0.00  0.00    +0.155 HD
BRANCH  24  26
ATOM     26  C   UNL     1       1.041   2.208  -0.051  0.00  0.00    +0.034 A 
ATOM     27  C   UNL     1       2.054   1.511  -0.697  0.00  0.00    +0.023 A 
ATOM     28  C   UNL     1       2.026   0.131  -0.734  0.00  0.00    +0.002 A 
ATOM     29  C   UNL     1       0.990  -0.558  -0.130  0.00  0.00    +0.006 A 
ATOM     30  C   UNL     1      -0.020   0.133   0.514  0.00  0.00    -0.018 A 
ATOM     31  C   UNL     1       0.002   1.514   0.554  0.00  0.00    +0.029 A 
BRANCH  30  32
ATOM     32  C   UNL     1      -1.148  -0.621   1.171  0.00  0.00    +0.141 C 
ATOM     33  C   UNL     1      -2.164  -1.045   0.109  0.00  0.00    +0.043 C 
BRANCH  32  34
ATOM     34  O   UNL     1      -0.628  -1.782   1.823  0.00  0.00    -0.387 OA
ATOM     35  H   UNL     1      -1.299  -2.316   2.269  0.00  0.00    +0.210 HD
ENDBRANCH  32  34
ENDBRANCH  30  32
ENDBRANCH  24  26
ENDBRANCH  21  22
ENDBRANCH   3  21
TORSDOF 6
