REMARK  Name = ZINC35658849
REMARK  8 active torsions:
REMARK  status: ('A' for Active; 'I' for Inactive)
REMARK    1  A    between atoms: C_1  and  C_2
REMARK    2  A    between atoms: C_4  and  N_7
REMARK    3  A    between atoms: N_7  and  S_8
REMARK    4  A    between atoms: S_8  and  C_11
REMARK    5  A    between atoms: C_12  and  C_21
REMARK    6  A    between atoms: N_14  and  C_17
REMARK    7  A    between atoms: C_15  and  C_16
REMARK    8  A    between atoms: C_17  and  C_18
REMARK                            x       y       z     vdW  Elec       q    Type
REMARK                         _______ _______ _______ _____ _____    ______ ____
ROOT
ATOM      1  C   UNL     1      -2.050  -5.963  -0.022  0.00  0.00    +0.153 A 
ATOM      2  C   UNL     1      -2.661  -6.514   1.109  0.00  0.00    +0.087 A 
ATOM      3  N   UNL     1      -3.590  -7.344   0.708  0.00  0.00    -0.174 NA
ATOM      4  N   UNL     1      -3.599  -7.347  -0.693  0.00  0.00    -0.255 N 
ATOM      5  C   UNL     1      -2.649  -6.487  -1.116  0.00  0.00    +0.064 A 
ATOM      6  C   UNL     1      -2.313  -6.171  -2.551  0.00  0.00    +0.067 C 
ATOM      7  C   UNL     1      -2.311  -6.205   2.541  0.00  0.00    +0.069 C 
ENDROOT
BRANCH   1   8
ATOM      8  S   UNL     1      -0.738  -4.787  -0.022  0.00  0.00    +0.097 S 
ATOM      9  O   UNL     1      -0.075  -4.918  -1.272  0.00  0.00    -0.148 OA
ATOM     10  O   UNL     1      -0.062  -4.933   1.218  0.00  0.00    -0.148 OA
BRANCH   8  11
ATOM     11  N   UNL     1      -1.430  -3.282  -0.010  0.00  0.00    -0.074 NA
BRANCH  11  15
ATOM     12  C   UNL     1      -0.018   1.503   0.010  0.00  0.00    +0.089 C 
ATOM     13  C   UNL     1       0.002  -0.004   0.002  0.00  0.00    +0.136 A 
ATOM     14  C   UNL     1      -1.076  -0.807   0.003  0.00  0.00    +0.094 A 
ATOM     15  C   UNL     1      -0.625  -2.147  -0.008  0.00  0.00    +0.205 A 
ATOM     16  N   UNL     1       0.684  -2.130  -0.014  0.00  0.00    -0.060 NA
ATOM     17  O   UNL     1       1.100  -0.776  -0.013  0.00  0.00    -0.358 OA
ENDBRANCH  11  15
ENDBRANCH   8  11
ENDBRANCH   1   8
BRANCH   4  18
ATOM     18  C   UNL     1      -4.487  -8.140  -1.547  0.00  0.00    +0.268 C 
BRANCH  18  19
ATOM     19  C   UNL     1      -5.739  -7.353  -1.837  0.00  0.00    +0.377 C 
ATOM     20  O   UNL     1      -5.877  -6.234  -1.372  0.00  0.00    -0.244 OA
ATOM     21  O   UNL     1      -6.615  -7.835  -2.535  0.00  0.00    -0.244 OA
ENDBRANCH  18  19
ENDBRANCH   4  18
TORSDOF 5
