REMARK  Name = ZINC04673636
REMARK  3 active torsions:
REMARK  status: ('A' for Active; 'I' for Inactive)
REMARK    1  A    between atoms: C_14  and  N_15
REMARK    2  A    between atoms: N_15  and  C_16
REMARK    3  A    between atoms: C_21  and  C_23
REMARK                            x       y       z     vdW  Elec       q    Type
REMARK                         _______ _______ _______ _____ _____    ______ ____
ROOT
ATOM      1  C   UNL     1      -0.017   1.366   0.010  0.00  0.00    +0.002 A 
ATOM      2  C   UNL     1       1.157   2.107   0.002  0.00  0.00    +0.001 A 
ATOM      3  C   UNL     1       2.373   1.450  -0.013  0.00  0.00    +0.017 A 
ATOM      4  C   UNL     1       2.401   0.078  -0.020  0.00  0.00    +0.041 A 
ATOM      5  C   UNL     1       1.228  -0.710  -0.013  0.00  0.00    +0.080 A 
ATOM      6  C   UNL     1       0.002  -0.004   0.002  0.00  0.00    +0.029 A 
ATOM      7  N   UNL     1       1.420  -2.046  -0.023  0.00  0.00    -0.223 NA
ATOM      8  C   UNL     1       2.616  -2.587  -0.037  0.00  0.00    +0.189 A 
ATOM      9  S   UNL     1       3.683  -1.153  -0.040  0.00  0.00    -0.050 S 
ATOM     10  N   UNL     1       2.963  -3.931  -0.048  0.00  0.00    -0.131 N 
ATOM     11  C   UNL     1       4.227  -4.402  -0.057  0.00  0.00    +0.275 C 
ATOM     12  O   UNL     1       5.254  -3.745  -0.059  0.00  0.00    -0.268 OA
ATOM     13  C   UNL     1       4.114  -5.865  -0.065  0.00  0.00    +0.084 C 
ATOM     14  C   UNL     1       5.145  -6.790  -0.076  0.00  0.00    +0.083 C 
ATOM     15  C   UNL     1       2.669  -6.135  -0.059  0.00  0.00    +0.175 C 
ATOM     16  N   UNL     1       2.057  -4.990  -0.043  0.00  0.00    -0.165 NA
ENDROOT
BRANCH  15  17
ATOM     17  C   UNL     1       2.016  -7.493  -0.064  0.00  0.00    +0.436 C 
ATOM     18  F   UNL     1       0.625  -7.343  -0.056  0.00  0.00    -0.164 F 
ATOM     19  F   UNL     1       2.402  -8.192  -1.213  0.00  0.00    -0.164 F 
ATOM     20  F   UNL     1       2.415  -8.207   1.071  0.00  0.00    -0.164 F 
ENDBRANCH  15  17
BRANCH  14  21
ATOM     21  N   UNL     1       6.427  -6.371  -0.080  0.00  0.00    -0.346 N 
ATOM     22  H   UNL     1       6.627  -5.422  -0.076  0.00  0.00    +0.146 HD
BRANCH  21  23
ATOM     23  C   UNL     1       7.517  -7.350  -0.092  0.00  0.00    +0.070 C 
ATOM     24  C   UNL     1       7.881  -7.752   1.353  0.00  0.00    +0.022 C 
ATOM     25  C   UNL     1       9.421  -7.915   1.324  0.00  0.00    +0.002 C 
ATOM     26  C   UNL     1       9.869  -6.767   0.387  0.00  0.00    +0.002 C 
ATOM     27  C   UNL     1       8.781  -6.724  -0.706  0.00  0.00    +0.022 C 
ENDBRANCH  21  23
ENDBRANCH  14  21
TORSDOF 3
