REMARK  Name = ZINC01102436
REMARK  12 active torsions:
REMARK  status: ('A' for Active; 'I' for Inactive)
REMARK    1  A    between atoms: C_1  and  C_2
REMARK    2  A    between atoms: C_7  and  N_8
REMARK    3  A    between atoms: C_9  and  C_11
REMARK    4  A    between atoms: C_11  and  C_12
REMARK    5  A    between atoms: C_11  and  C_13
REMARK    6  A    between atoms: C_11  and  N_14
REMARK    7  A    between atoms: N_14  and  C_15
REMARK    8  A    between atoms: C_15  and  C_16
REMARK    9  A    between atoms: C_21  and  C_23
REMARK   10  A    between atoms: C_23  and  C_25
REMARK   11  A    between atoms: C_23  and  O_26
REMARK   12  A    between atoms: O_26  and  C_27
REMARK                            x       y       z     vdW  Elec       q    Type
REMARK                         _______ _______ _______ _____ _____    ______ ____
ROOT
ATOM      1  N   UNL     1      -5.862   2.017   1.032  0.00  0.00    -0.277 N 
ATOM      2  C   UNL     1      -4.531   1.853   1.167  0.00  0.00    +0.257 C 
ATOM      3  O   UNL     1      -4.085   0.781   1.517  0.00  0.00    -0.272 OA
ENDROOT
BRANCH   1   4
ATOM      4  C   UNL     1      -6.774   0.930   1.395  0.00  0.00    +0.109 C 
ATOM      5  C   UNL     1      -6.331  -0.361   0.703  0.00  0.00    +0.041 C 
ATOM      6  C   UNL     1      -6.751   0.729   2.912  0.00  0.00    +0.041 C 
BRANCH   4   8
ATOM      7  N   UNL     1      -8.405   1.659  -0.316  0.00  0.00    -0.284 N 
ATOM      8  C   UNL     1      -8.173   1.280   0.957  0.00  0.00    +0.240 C 
ATOM      9  O   UNL     1      -9.090   1.222   1.749  0.00  0.00    -0.273 OA
ATOM     10  H   UNL     1      -7.692   1.616  -0.972  0.00  0.00    +0.155 HD
BRANCH   7  17
ATOM     11  C   UNL     1      -9.106   1.567  -3.072  0.00  0.00    +0.045 C 
ATOM     12  C   UNL     1     -10.057   2.087  -2.025  0.00  0.00    -0.029 A 
ATOM     13  C   UNL     1     -11.311   2.536  -2.391  0.00  0.00    +0.005 A 
ATOM     14  C   UNL     1     -12.184   3.012  -1.430  0.00  0.00    +0.000 A 
ATOM     15  C   UNL     1     -11.806   3.039  -0.100  0.00  0.00    +0.002 A 
ATOM     16  C   UNL     1     -10.556   2.587   0.273  0.00  0.00    +0.023 A 
ATOM     17  C   UNL     1      -9.674   2.113  -0.690  0.00  0.00    +0.036 A 
ENDBRANCH   7  17
ENDBRANCH   4   8
ENDBRANCH   1   4
BRANCH   2  18
ATOM     18  C   UNL     1      -3.598   3.001   0.882  0.00  0.00    +0.256 C 
ATOM     19  C   UNL     1      -3.461   3.184  -0.630  0.00  0.00    +0.062 C 
BRANCH  18  20
ATOM     20  O   UNL     1      -2.314   2.723   1.447  0.00  0.00    -0.478 OA
BRANCH  20  21
ATOM     21  C   UNL     1      -1.570   3.789   1.842  0.00  0.00    +0.141 A 
ATOM     22  C   UNL     1      -2.002   5.078   1.568  0.00  0.00    +0.068 A 
ATOM     23  C   UNL     1      -1.241   6.161   1.965  0.00  0.00    +0.063 A 
ATOM     24  C   UNL     1      -0.050   5.960   2.643  0.00  0.00    +0.061 A 
ATOM     25  C   UNL     1       0.380   4.675   2.923  0.00  0.00    +0.045 A 
ATOM     26  C   UNL     1      -0.378   3.590   2.526  0.00  0.00    +0.084 A 
ATOM     27 CL   UNL     1       0.163   1.978   2.876  0.00  0.00    -0.080 Cl
ATOM     28 CL   UNL     1       0.905   7.322   3.142  0.00  0.00    -0.082 Cl
ATOM     29 CL   UNL     1      -1.778   7.775   1.615  0.00  0.00    -0.082 Cl
ENDBRANCH  20  21
ENDBRANCH  18  20
ENDBRANCH   2  18
BRANCH   1  30
ATOM     30  C   UNL     1      -6.396   3.282   0.523  0.00  0.00    +0.183 C 
BRANCH  30  31
ATOM     31  C   UNL     1      -6.715   4.195   1.679  0.00  0.00    +0.122 A 
ATOM     32  C   UNL     1      -5.865   5.068   2.250  0.00  0.00    +0.046 A 
ATOM     33  C   UNL     1      -6.575   5.710   3.290  0.00  0.00    +0.041 A 
ATOM     34  C   UNL     1      -7.816   5.191   3.293  0.00  0.00    +0.195 A 
ATOM     35  O   UNL     1      -7.897   4.278   2.311  0.00  0.00    -0.466 OA
ENDBRANCH  30  31
ENDBRANCH   1  30
TORSDOF 8
