REMARK  Name = ZINC57589843
REMARK  10 active torsions:
REMARK  status: ('A' for Active; 'I' for Inactive)
REMARK    1  A    between atoms: C_1  and  C_2
REMARK    2  A    between atoms: C_2  and  O_3
REMARK    3  A    between atoms: O_3  and  C_4
REMARK    4  A    between atoms: C_4  and  C_6
REMARK    5  A    between atoms: N_9  and  C_12
REMARK    6  A    between atoms: C_12  and  C_14
REMARK    7  A    between atoms: C_12  and  C_28
REMARK    8  A    between atoms: C_18  and  C_27
REMARK    9  A    between atoms: C_20  and  C_26
REMARK   10  A    between atoms: N_32  and  C_33
REMARK                            x       y       z     vdW  Elec       q    Type
REMARK                         _______ _______ _______ _____ _____    ______ ____
ROOT
ATOM      1  C   UNL     1       4.386  -4.581  -4.742  0.00  0.00    +0.162 C 
ENDROOT
BRANCH   1   2
ATOM      2  C   UNL     1       4.317  -6.080  -4.603  0.00  0.00    +0.042 A 
ATOM      3  C   UNL     1       3.913  -6.838  -5.652  0.00  0.00    +0.021 A 
ATOM      4  C   UNL     1       3.857  -8.292  -5.484  0.00  0.00    -0.001 A 
ATOM      5  C   UNL     1       3.449  -9.126  -6.530  0.00  0.00    +0.013 A 
ATOM      6  C   UNL     1       3.409 -10.478  -6.341  0.00  0.00    -0.050 A 
ATOM      7  C   UNL     1       3.768 -11.032  -5.120  0.00  0.00    +0.008 A 
ATOM      8  C   UNL     1       4.173 -10.230  -4.075  0.00  0.00    -0.026 A 
ATOM      9  C   UNL     1       4.223  -8.850  -4.244  0.00  0.00    +0.052 A 
ATOM     10  N   UNL     1       4.625  -8.023  -3.217  0.00  0.00    -0.322 N 
ATOM     11  H   UNL     1       4.877  -8.409  -2.363  0.00  0.00    +0.169 HD
ATOM     12  C   UNL     1       4.678  -6.690  -3.382  0.00  0.00    +0.254 A 
ATOM     13  O   UNL     1       5.043  -5.990  -2.453  0.00  0.00    -0.268 OA
ATOM     14  C   UNL     1       4.560 -10.845  -2.755  0.00  0.00    +0.046 C 
ATOM     15  C   UNL     1       2.969 -11.377  -7.468  0.00  0.00    +0.044 C 
ENDBRANCH   1   2
BRANCH   1  19
ATOM     16  C   UNL     1       1.468  -2.353  -2.550  0.00  0.00    +0.100 C 
ATOM     17  C   UNL     1       2.920  -1.869  -2.580  0.00  0.00    +0.030 C 
ATOM     18  C   UNL     1       3.635  -2.489  -3.783  0.00  0.00    +0.086 C 
ATOM     19  N   UNL     1       3.591  -3.953  -3.678  0.00  0.00    -0.289 NA
ATOM     20  C   UNL     1       2.207  -4.445  -3.695  0.00  0.00    +0.086 C 
ATOM     21  C   UNL     1       1.450  -3.883  -2.490  0.00  0.00    +0.030 C 
BRANCH  16  22
ATOM     22  C   UNL     1       0.775  -1.794  -1.334  0.00  0.00    +0.310 C 
ATOM     23  O   UNL     1       0.314  -2.540  -0.504  0.00  0.00    -0.251 OA
BRANCH  22  24
ATOM     24  O   UNL     1       0.671  -0.465  -1.174  0.00  0.00    -0.465 OA
BRANCH  24  26
ATOM     25  C   UNL     1      -0.019   1.526   0.010  0.00  0.00    +0.048 C 
ATOM     26  C   UNL     1       0.002  -0.004   0.002  0.00  0.00    +0.229 C 
ENDBRANCH  24  26
ENDBRANCH  22  24
ENDBRANCH  16  22
ENDBRANCH   1  19
BRANCH   1  27
ATOM     27  C   UNL     1       5.820  -4.132  -4.630  0.00  0.00    +0.173 A 
ATOM     28  N   UNL     1       6.535  -4.063  -3.533  0.00  0.00    -0.111 NA
ATOM     29  N   UNL     1       7.708  -3.635  -3.849  0.00  0.00    -0.023 NA
ATOM     30  N   UNL     1       7.760  -3.428  -5.119  0.00  0.00    -0.044 NA
ATOM     31  N   UNL     1       6.617  -3.728  -5.636  0.00  0.00    -0.224 N 
BRANCH  31  32
ATOM     32  C   UNL     1       6.253  -3.642  -7.053  0.00  0.00    +0.111 C 
ATOM     33  C   UNL     1       7.217  -4.499  -7.899  0.00  0.00    +0.027 C 
ATOM     34  C   UNL     1       7.415  -3.679  -9.198  0.00  0.00    +0.002 C 
ATOM     35  C   UNL     1       7.454  -2.220  -8.678  0.00  0.00    +0.002 C 
ATOM     36  C   UNL     1       6.404  -2.192  -7.548  0.00  0.00    +0.027 C 
ENDBRANCH  31  32
ENDBRANCH   1  27
TORSDOF 7
