REMARK  Name = ZINC12642793
REMARK  8 active torsions:
REMARK  status: ('A' for Active; 'I' for Inactive)
REMARK    1  A    between atoms: C_6  and  C_7
REMARK    2  A    between atoms: C_7  and  N_62
REMARK    3  A    between atoms: C_8  and  C_9
REMARK    4  A    between atoms: C_8  and  N_62
REMARK    5  A    between atoms: C_15  and  C_17
REMARK    6  A    between atoms: C_15  and  C_24
REMARK    7  A    between atoms: C_15  and  N_62
REMARK    8  A    between atoms: N_28  and  C_29
REMARK                            x       y       z     vdW  Elec       q    Type
REMARK                         _______ _______ _______ _____ _____    ______ ____
ROOT
ATOM      1  C   UNL     1       1.613  -1.610   0.476  0.00  0.00    +0.034 C 
ENDROOT
BRANCH   1   2
ATOM      2  C   UNL     1       1.465  -1.882  -0.999  0.00  0.00    -0.054 A 
ATOM      3  C   UNL     1       0.230  -2.228  -1.516  0.00  0.00    +0.004 A 
ATOM      4  C   UNL     1       0.092  -2.472  -2.870  0.00  0.00    +0.020 A 
ATOM      5  C   UNL     1       1.192  -2.381  -3.705  0.00  0.00    +0.041 A 
ATOM      6  C   UNL     1       2.428  -2.041  -3.185  0.00  0.00    +0.020 A 
ATOM      7  C   UNL     1       2.564  -1.792  -1.832  0.00  0.00    +0.004 A 
ATOM      8 CL   UNL     1       1.020  -2.696  -5.403  0.00  0.00    -0.084 Cl
ENDBRANCH   1   2
BRANCH   1   9
ATOM      9  C   UNL     1       1.022  -0.262   0.800  0.00  0.00    +0.143 A 
ATOM     10  N   UNL     1      -0.252   0.036   0.878  0.00  0.00    -0.115 NA
ATOM     11  N   UNL     1      -0.351   1.285   1.175  0.00  0.00    -0.023 NA
ATOM     12  N   UNL     1       0.827   1.792   1.289  0.00  0.00    -0.044 NA
ATOM     13  N   UNL     1       1.701   0.870   1.066  0.00  0.00    -0.227 N 
BRANCH  13  14
ATOM     14  C   UNL     1       3.157   1.025   1.095  0.00  0.00    +0.111 C 
ATOM     15  C   UNL     1       3.606   1.542   2.477  0.00  0.00    +0.027 C 
ATOM     16  C   UNL     1       4.771   2.513   2.159  0.00  0.00    +0.002 C 
ATOM     17  C   UNL     1       4.295   3.205   0.858  0.00  0.00    +0.002 C 
ATOM     18  C   UNL     1       3.595   2.082   0.066  0.00  0.00    +0.027 C 
ENDBRANCH  13  14
ENDBRANCH   1   9
BRANCH   1  19
ATOM     19  N   UNL     1       0.882  -2.647   1.233  0.00  0.00    +0.393 N 
ATOM     20  H   UNL     1      -0.118  -2.581   1.010  0.00  0.00    -0.080 HD
BRANCH  19  21
ATOM     21  C   UNL     1       1.065  -2.437   2.684  0.00  0.00    -0.041 C 
BRANCH  21  27
ATOM     22  C   UNL     1      -1.225  -2.815   3.622  0.00  0.00    +0.003 A 
ATOM     23  C   UNL     1      -2.147  -3.591   4.298  0.00  0.00    +0.020 A 
ATOM     24  C   UNL     1      -1.780  -4.832   4.788  0.00  0.00    +0.041 A 
ATOM     25  C   UNL     1      -0.490  -5.296   4.598  0.00  0.00    +0.020 A 
ATOM     26  C   UNL     1       0.429  -4.521   3.917  0.00  0.00    +0.003 A 
ATOM     27  C   UNL     1       0.061  -3.282   3.427  0.00  0.00    -0.064 A 
ATOM     28 CL   UNL     1      -2.936  -5.805   5.643  0.00  0.00    -0.084 Cl
ENDBRANCH  21  27
ENDBRANCH  19  21
BRANCH  19  29
ATOM     29  C   UNL     1       1.370  -3.990   0.852  0.00  0.00    -0.045 C 
BRANCH  29  30
ATOM     30  C   UNL     1       2.847  -4.147   1.218  0.00  0.00    +0.102 C 
ATOM     31  C   UNL     1       3.296  -5.601   0.972  0.00  0.00    +0.032 C 
ATOM     32  C   UNL     1       4.458  -5.471  -0.043  0.00  0.00    +0.030 C 
ATOM     33  C   UNL     1       4.897  -3.998   0.151  0.00  0.00    +0.160 C 
ATOM     34  O   UNL     1       3.652  -3.303   0.378  0.00  0.00    -0.378 OA
ENDBRANCH  29  30
ENDBRANCH  19  29
ENDBRANCH   1  19
TORSDOF 8
