REMARK  Name = ZINC39681145
REMARK  10 active torsions:
REMARK  status: ('A' for Active; 'I' for Inactive)
REMARK    1  A    between atoms: C_1  and  C_2
REMARK    2  A    between atoms: C_2  and  C_4
REMARK    3  A    between atoms: C_2  and  N_10
REMARK    4  A    between atoms: C_11  and  C_13
REMARK    5  A    between atoms: C_24  and  C_26
REMARK    6  A    between atoms: C_26  and  C_28
REMARK    7  A    between atoms: C_26  and  O_31
REMARK    8  A    between atoms: C_28  and  C_29
REMARK    9  A    between atoms: C_28  and  C_30
REMARK   10  A    between atoms: O_31  and  C_32
REMARK                            x       y       z     vdW  Elec       q    Type
REMARK                         _______ _______ _______ _____ _____    ______ ____
ROOT
ATOM      1  C   UNL     1       1.046  -0.850   3.783  0.00  0.00    +0.100 C 
ATOM      2  C   UNL     1       1.390  -2.329   3.496  0.00  0.00    +0.121 C 
ATOM      3  N   UNL     1       1.130  -3.029   4.775  0.00  0.00    -0.297 N 
ATOM      4  C   UNL     1      -0.101  -2.391   5.302  0.00  0.00    +0.115 C 
ATOM      5  C   UNL     1       0.068  -0.895   4.969  0.00  0.00    -0.004 C 
ATOM      6  C   UNL     1      -1.275  -0.290   4.569  0.00  0.00    -0.010 C 
ATOM      7  C   UNL     1      -2.212  -0.292   5.780  0.00  0.00    -0.082 C 
ATOM      8  N   UNL     1      -1.607   0.484   6.870  0.00  0.00    +0.379 N 
ATOM      9  C   UNL     1      -0.363  -0.158   7.311  0.00  0.00    -0.082 C 
ATOM     10  C   UNL     1       0.652  -0.150   6.165  0.00  0.00    -0.010 C 
ATOM     11  C   UNL     1       1.849  -4.022   5.335  0.00  0.00    +0.257 C 
ATOM     12  O   UNL     1       1.459  -4.554   6.352  0.00  0.00    -0.272 OA
ATOM     13  H   UNL     1      -1.406   1.417   6.545  0.00  0.00    -0.086 HD
ATOM     14  H   UNL     1      -2.252   0.532   7.644  0.00  0.00    -0.086 HD
ENDROOT
BRANCH   1  16
ATOM     15  N   UNL     1       0.392   1.119   2.437  0.00  0.00    -0.308 N 
ATOM     16  C   UNL     1       0.388  -0.221   2.583  0.00  0.00    +0.219 C 
ATOM     17  O   UNL     1      -0.145  -0.920   1.748  0.00  0.00    -0.275 OA
ATOM     18  H   UNL     1       0.818   1.678   3.104  0.00  0.00    +0.149 HD
BRANCH  15  20
ATOM     19  C   UNL     1      -1.743   1.911   1.544  0.00  0.00    +0.033 C 
ATOM     20  C   UNL     1      -0.249   1.730   1.269  0.00  0.00    +0.100 C 
BRANCH  20  21
ATOM     21  C   UNL     1       0.379   3.074   0.998  0.00  0.00    -0.025 A 
ATOM     22  C   UNL     1       0.721   3.920   2.041  0.00  0.00    +0.025 A 
ATOM     23  C   UNL     1       1.294   5.145   1.754  0.00  0.00    +0.111 A 
ATOM     24  N   UNL     1       1.516   5.510   0.507  0.00  0.00    -0.263 NA
ATOM     25  C   UNL     1       1.204   4.730  -0.510  0.00  0.00    +0.111 A 
ATOM     26  C   UNL     1       0.633   3.489  -0.300  0.00  0.00    +0.025 A 
ENDBRANCH  20  21
ENDBRANCH  15  20
ENDBRANCH   1  16
BRANCH  11  27
ATOM     27  C   UNL     1       3.138  -4.471   4.696  0.00  0.00    +0.261 C 
BRANCH  27  28
ATOM     28  C   UNL     1       2.842  -5.554   3.657  0.00  0.00    +0.033 C 
ATOM     29  C   UNL     1       1.818  -5.028   2.649  0.00  0.00    +0.011 C 
ATOM     30  C   UNL     1       4.133  -5.925   2.925  0.00  0.00    +0.011 C 
ENDBRANCH  27  28
BRANCH  27  31
ATOM     31  O   UNL     1       4.009  -4.998   5.699  0.00  0.00    -0.479 OA
BRANCH  31  32
ATOM     32  C   UNL     1       5.342  -4.799   5.525  0.00  0.00    +0.122 A 
ATOM     33  C   UNL     1       5.798  -4.032   4.462  0.00  0.00    +0.045 A 
ATOM     34  C   UNL     1       7.153  -3.832   4.288  0.00  0.00    +0.004 A 
ATOM     35  C   UNL     1       8.056  -4.395   5.171  0.00  0.00    +0.000 A 
ATOM     36  C   UNL     1       7.604  -5.160   6.230  0.00  0.00    +0.004 A 
ATOM     37  C   UNL     1       6.250  -5.359   6.412  0.00  0.00    +0.045 A 
ENDBRANCH  31  32
ENDBRANCH  27  31
ENDBRANCH  11  27
TORSDOF 7
