REMARK  Name = ZINC34811950
REMARK  8 active torsions:
REMARK  status: ('A' for Active; 'I' for Inactive)
REMARK    1  A    between atoms: C_1  and  C_2
REMARK    2  A    between atoms: C_2  and  C_3
REMARK    3  A    between atoms: C_3  and  C_4
REMARK    4  A    between atoms: C_4  and  C_5
REMARK    5  A    between atoms: C_5  and  C_7
REMARK    6  A    between atoms: C_5  and  C_9
REMARK    7  A    between atoms: C_7  and  C_8
REMARK    8  A    between atoms: C_22  and  C_27
REMARK                            x       y       z     vdW  Elec       q    Type
REMARK                         _______ _______ _______ _____ _____    ______ ____
ROOT
ATOM      1  C   UNL     1      -2.786  -3.951   0.141  0.00  0.00    +0.219 C 
ATOM      2  O   UNL     1      -1.695  -4.457   0.299  0.00  0.00    -0.275 OA
ATOM      3  N   UNL     1      -3.891  -4.723   0.127  0.00  0.00    -0.301 N 
ATOM      4  C   UNL     1      -5.227  -4.117   0.043  0.00  0.00    +0.111 C 
ATOM      5  C   UNL     1      -6.082  -4.646   1.198  0.00  0.00    +0.064 C 
ATOM      6  C   UNL     1      -6.085  -6.177   1.164  0.00  0.00    +0.102 C 
ATOM      7  C   UNL     1      -4.656  -6.694   1.347  0.00  0.00    +0.064 C 
ATOM      8  C   UNL     1      -3.783  -6.187   0.189  0.00  0.00    +0.111 C 
ATOM      9  N   UNL     1      -6.925  -6.682   2.257  0.00  0.00    -0.323 N 
ATOM     10  C   UNL     1      -7.340  -8.008   2.222  0.00  0.00    +0.041 A 
ATOM     11  C   UNL     1      -7.582  -8.731   3.377  0.00  0.00    +0.024 A 
ATOM     12  C   UNL     1      -7.990 -10.049   3.286  0.00  0.00    +0.002 A 
ATOM     13  C   UNL     1      -8.156 -10.651   2.048  0.00  0.00    +0.004 A 
ATOM     14  C   UNL     1      -7.919  -9.944   0.888  0.00  0.00    -0.037 A 
ATOM     15  C   UNL     1      -7.511  -8.615   0.965  0.00  0.00    +0.060 A 
ATOM     16  C   UNL     1      -7.253  -7.811  -0.243  0.00  0.00    +0.248 C 
ATOM     17  O   UNL     1      -7.619  -8.204  -1.334  0.00  0.00    -0.270 OA
ATOM     18  N   UNL     1      -6.606  -6.633  -0.126  0.00  0.00    -0.290 N 
ATOM     19  C   UNL     1      -8.101 -10.605  -0.454  0.00  0.00    +0.044 C 
ATOM     20  H   UNL     1      -7.185  -6.101   2.990  0.00  0.00    +0.148 HD
ATOM     21  H   UNL     1      -6.484  -6.077  -0.911  0.00  0.00    +0.151 HD
ENDROOT
BRANCH   1  22
ATOM     22  C   UNL     1      -2.906  -2.460  -0.039  0.00  0.00    +0.075 C 
BRANCH  22  23
ATOM     23  C   UNL     1      -1.642  -1.924  -0.713  0.00  0.00    +0.009 C 
ATOM     24  C   UNL     1      -1.534  -2.500  -2.126  0.00  0.00    +0.004 C 
ENDBRANCH  22  23
BRANCH  22  25
ATOM     25  C   UNL     1      -3.077  -1.794   1.328  0.00  0.00    +0.013 C 
BRANCH  25  26
ATOM     26  C   UNL     1      -3.324  -0.296   1.138  0.00  0.00    +0.000 C 
BRANCH  26  28
ATOM     27  C   UNL     1      -3.741   1.869   2.314  0.00  0.00    +0.004 C 
ATOM     28  C   UNL     1      -3.495   0.371   2.504  0.00  0.00    -0.003 C 
ENDBRANCH  26  28
ENDBRANCH  25  26
ENDBRANCH  22  25
ENDBRANCH   1  22
TORSDOF 5
