REMARK  Name = ZINC58913075
REMARK  7 active torsions:
REMARK  status: ('A' for Active; 'I' for Inactive)
REMARK    1  A    between atoms: C_1  and  C_2
REMARK    2  A    between atoms: C_4  and  C_16
REMARK    3  A    between atoms: C_5  and  C_15
REMARK    4  A    between atoms: N_6  and  C_7
REMARK    5  A    between atoms: N_17  and  N_18
REMARK    6  A    between atoms: C_19  and  C_21
REMARK    7  A    between atoms: N_23  and  C_24
REMARK                            x       y       z     vdW  Elec       q    Type
REMARK                         _______ _______ _______ _____ _____    ______ ____
ROOT
ATOM      1  C   UNL     1       0.081  -3.383  -1.464  0.00  0.00    +0.140 C 
ATOM      2  N   UNL     1       0.094  -4.556  -0.903  0.00  0.00    -0.187 NA
ENDROOT
BRANCH   1   6
ATOM      3  C   UNL     1       0.057   1.504   0.006  0.00  0.00    +0.064 C 
ATOM      4  C   UNL     1       0.067  -0.003  -0.002  0.00  0.00    +0.022 A 
ATOM      5  C   UNL     1       0.064  -0.780  -1.100  0.00  0.00    +0.032 A 
ATOM      6  C   UNL     1       0.079  -2.169  -0.631  0.00  0.00    +0.016 A 
ATOM      7  C   UNL     1       0.090  -2.111   0.735  0.00  0.00    +0.030 A 
ATOM      8  N   UNL     1       0.088  -0.803   1.105  0.00  0.00    -0.316 N 
ATOM      9  C   UNL     1       0.107  -3.293   1.669  0.00  0.00    +0.064 C 
BRANCH   8  10
ATOM     10  C   UNL     1       0.102  -0.342   2.430  0.00  0.00    +0.065 A 
ATOM     11  C   UNL     1      -1.092  -0.128   3.105  0.00  0.00    +0.029 A 
ATOM     12  C   UNL     1      -1.075   0.325   4.409  0.00  0.00    +0.022 A 
ATOM     13  C   UNL     1       0.130   0.567   5.044  0.00  0.00    +0.042 A 
ATOM     14  C   UNL     1       1.322   0.355   4.374  0.00  0.00    +0.042 A 
ATOM     15  C   UNL     1       1.312  -0.104   3.071  0.00  0.00    +0.066 A 
ATOM     16 CL   UNL     1       2.808  -0.378   2.233  0.00  0.00    -0.081 Cl
ATOM     17 CL   UNL     1       0.147   1.137   6.684  0.00  0.00    -0.083 Cl
ENDBRANCH   8  10
ENDBRANCH   1   6
BRANCH   2  18
ATOM     18  N   UNL     1       0.096  -5.711  -1.696  0.00  0.00    -0.199 N 
ATOM     19  C   UNL     1       0.110  -6.927  -1.114  0.00  0.00    +0.318 C 
ATOM     20  O   UNL     1       0.120  -7.021   0.097  0.00  0.00    -0.263 OA
ATOM     21  H   UNL     1       0.087  -5.636  -2.663  0.00  0.00    +0.178 HD
BRANCH  19  22
ATOM     22  C   UNL     1       0.112  -8.156  -1.958  0.00  0.00    +0.305 C 
ATOM     23  O   UNL     1       0.101  -8.062  -3.168  0.00  0.00    -0.265 OA
ATOM     24  N   UNL     1       0.126  -9.372  -1.376  0.00  0.00    -0.277 N 
ATOM     25  H   UNL     1       0.200  -9.448  -0.412  0.00  0.00    +0.155 HD
BRANCH  24  26
ATOM     26  C   UNL     1       0.032 -10.524  -2.163  0.00  0.00    +0.048 A 
ATOM     27  C   UNL     1       0.619 -10.556  -3.422  0.00  0.00    +0.024 A 
ATOM     28  C   UNL     1       0.525 -11.696  -4.196  0.00  0.00    +0.002 A 
ATOM     29  C   UNL     1      -0.152 -12.804  -3.720  0.00  0.00    +0.001 A 
ATOM     30  C   UNL     1      -0.738 -12.775  -2.468  0.00  0.00    +0.017 A 
ATOM     31  C   UNL     1      -0.642 -11.641  -1.685  0.00  0.00    +0.039 A 
ATOM     32 BR   UNL     1      -1.435 -11.605   0.032  0.00  0.00    -0.048 Br
ENDBRANCH  24  26
ENDBRANCH  19  22
ENDBRANCH   2  18
TORSDOF 5
