REMARK  Name = ZINC58966481
REMARK  9 active torsions:
REMARK  status: ('A' for Active; 'I' for Inactive)
REMARK    1  A    between atoms: C_1  and  C_2
REMARK    2  A    between atoms: C_5  and  C_8
REMARK    3  A    between atoms: C_8  and  N_9
REMARK    4  A    between atoms: C_15  and  C_17
REMARK    5  A    between atoms: C_17  and  C_19
REMARK    6  A    between atoms: C_17  and  S_20
REMARK    7  A    between atoms: S_20  and  C_21
REMARK    8  A    between atoms: C_23  and  C_31
REMARK    9  A    between atoms: C_25  and  C_27
REMARK                            x       y       z     vdW  Elec       q    Type
REMARK                         _______ _______ _______ _____ _____    ______ ____
ROOT
ATOM      1  C   UNL     1       7.144  -5.511  -1.626  0.00  0.00    +0.137 C 
ATOM      2  C   UNL     1       7.918  -4.290  -1.123  0.00  0.00    +0.029 C 
ENDROOT
BRANCH   1   9
ATOM      3  N   UNL     1       1.447  -4.746  -0.032  0.00  0.00    -0.265 N 
ATOM      4  C   UNL     1       2.000  -5.603   0.852  0.00  0.00    +0.110 A 
ATOM      5  C   UNL     1       3.293  -5.784   0.500  0.00  0.00    +0.065 A 
ATOM      6  C   UNL     1       3.541  -5.008  -0.643  0.00  0.00    +0.147 A 
ATOM      7  N   UNL     1       2.430  -4.390  -0.964  0.00  0.00    -0.156 NA
ATOM      8  N   UNL     1       4.762  -4.915  -1.326  0.00  0.00    -0.268 N 
ATOM      9  C   UNL     1       5.832  -5.611  -0.892  0.00  0.00    +0.231 C 
ATOM     10  O   UNL     1       5.738  -6.318   0.089  0.00  0.00    -0.274 OA
ATOM     11  H   UNL     1       4.837  -4.350  -2.111  0.00  0.00    +0.156 HD
BRANCH   3  12
ATOM     12  C   UNL     1       0.059  -4.275  -0.021  0.00  0.00    +0.178 C 
BRANCH  12  17
ATOM     13  C   UNL     1      -0.018   1.503   0.010  0.00  0.00    +0.044 C 
ATOM     14  C   UNL     1       0.002  -0.004   0.002  0.00  0.00    -0.050 A 
ATOM     15  C   UNL     1       0.006  -0.689  -1.199  0.00  0.00    +0.004 A 
ATOM     16  C   UNL     1       0.025  -2.071  -1.206  0.00  0.00    +0.006 A 
ATOM     17  C   UNL     1       0.040  -2.768  -0.013  0.00  0.00    -0.026 A 
ATOM     18  C   UNL     1       0.037  -2.084   1.188  0.00  0.00    +0.006 A 
ATOM     19  C   UNL     1       0.023  -0.702   1.195  0.00  0.00    +0.004 A 
ENDBRANCH  12  17
ENDBRANCH   3  12
ENDBRANCH   1   9
BRANCH   1  20
ATOM     20  S   UNL     1       8.120  -7.010  -1.327  0.00  0.00    -0.074 S 
BRANCH  20  21
ATOM     21  C   UNL     1       9.536  -6.809  -2.356  0.00  0.00    +0.190 A 
ATOM     22  N   UNL     1      10.462  -7.756  -2.372  0.00  0.00    -0.219 NA
ATOM     23  C   UNL     1      11.545  -7.632  -3.139  0.00  0.00    +0.111 A 
ATOM     24  C   UNL     1      11.689  -6.484  -3.929  0.00  0.00    +0.064 A 
ATOM     25  C   UNL     1      10.697  -5.523  -3.879  0.00  0.00    +0.149 A 
ATOM     26  N   UNL     1       9.646  -5.715  -3.097  0.00  0.00    -0.218 NA
BRANCH  23  27
ATOM     27  C   UNL     1      12.576  -8.688  -3.157  0.00  0.00    +0.153 A 
ATOM     28  C   UNL     1      12.546  -9.845  -2.441  0.00  0.00    +0.051 A 
ATOM     29  C   UNL     1      13.722 -10.550  -2.761  0.00  0.00    +0.042 A 
ATOM     30  C   UNL     1      14.405  -9.797  -3.647  0.00  0.00    +0.196 A 
ATOM     31  O   UNL     1      13.708  -8.676  -3.888  0.00  0.00    -0.461 OA
ENDBRANCH  23  27
BRANCH  25  32
ATOM     32  C   UNL     1      10.809  -4.271  -4.710  0.00  0.00    +0.434 C 
ATOM     33  F   UNL     1      10.211  -4.484  -5.957  0.00  0.00    -0.164 F 
ATOM     34  F   UNL     1      10.160  -3.217  -4.056  0.00  0.00    -0.164 F 
ATOM     35  F   UNL     1      12.158  -3.948  -4.889  0.00  0.00    -0.164 F 
ENDBRANCH  25  32
ENDBRANCH  20  21
ENDBRANCH   1  20
TORSDOF 7
