REMARK  Name = ZINC27315117
REMARK  7 active torsions:
REMARK  status: ('A' for Active; 'I' for Inactive)
REMARK    1  A    between atoms: C_1  and  C_2
REMARK    2  A    between atoms: C_2  and  N_3
REMARK    3  A    between atoms: C_6  and  N_9
REMARK    4  A    between atoms: C_10  and  C_12
REMARK    5  A    between atoms: C_12  and  S_13
REMARK    6  A    between atoms: S_13  and  C_14
REMARK    7  A    between atoms: C_24  and  C_28
REMARK                            x       y       z     vdW  Elec       q    Type
REMARK                         _______ _______ _______ _____ _____    ______ ____
ROOT
ATOM      1  C   UNL     1       1.090   1.945  -0.375  0.00  0.00    +0.191 A 
ATOM      2  N   UNL     1       2.267   1.329  -0.376  0.00  0.00    -0.207 NA
ATOM      3  C   UNL     1       2.397   0.062  -0.020  0.00  0.00    +0.129 A 
ATOM      4  C   UNL     1       1.244  -0.670   0.379  0.00  0.00    +0.051 A 
ATOM      5  C   UNL     1       1.151  -2.067   0.809  0.00  0.00    -0.025 A 
ATOM      6  C   UNL     1      -0.073  -2.526   1.138  0.00  0.00    -0.004 A 
ATOM      7  S   UNL     1      -1.163  -1.149   0.899  0.00  0.00    -0.073 S 
ATOM      8  C   UNL     1       0.031   0.046   0.356  0.00  0.00    +0.115 A 
ATOM      9  N   UNL     1      -0.018   1.312  -0.012  0.00  0.00    -0.214 NA
ATOM     10  C   UNL     1      -0.430  -3.905   1.605  0.00  0.00    +0.046 C 
ATOM     11  C   UNL     1       0.861  -4.628   2.013  0.00  0.00    -0.009 C 
ATOM     12  C   UNL     1       1.903  -4.434   0.908  0.00  0.00    +0.008 C 
ATOM     13  C   UNL     1       2.373  -2.979   0.889  0.00  0.00    +0.037 C 
ATOM     14  C   UNL     1       0.577  -6.121   2.194  0.00  0.00    +0.008 C 
ATOM     15  N   UNL     1       3.640  -0.544  -0.036  0.00  0.00    -0.343 N 
ATOM     16  H   UNL     1       3.741  -1.598   0.262  0.00  0.00    +0.144 HD
ATOM     17  H   UNL     1       4.527   0.028  -0.345  0.00  0.00    +0.144 HD
ENDROOT
BRANCH   1  18
ATOM     18  S   UNL     1       0.998   3.635  -0.864  0.00  0.00    -0.077 S 
BRANCH  18  19
ATOM     19  C   UNL     1       2.742   3.951  -1.232  0.00  0.00    +0.173 C 
BRANCH  19  21
ATOM     20  N   UNL     1       4.132   5.842  -2.013  0.00  0.00    -0.312 N 
ATOM     21  C   UNL     1       2.910   5.378  -1.683  0.00  0.00    +0.224 C 
ATOM     22  O   UNL     1       1.946   6.111  -1.750  0.00  0.00    -0.275 OA
ATOM     23  H   UNL     1       5.007   5.178  -1.953  0.00  0.00    +0.149 HD
BRANCH  20  27
ATOM     24  N   UNL     1       5.638   9.159  -4.129  0.00  0.00    +0.380 N 
ATOM     25  C   UNL     1       5.910   9.120  -2.686  0.00  0.00    -0.077 C 
ATOM     26  C   UNL     1       5.728   7.691  -2.171  0.00  0.00    +0.003 C 
ATOM     27  C   UNL     1       4.295   7.230  -2.452  0.00  0.00    +0.069 C 
ATOM     28  C   UNL     1       4.022   7.327  -3.956  0.00  0.00    +0.003 C 
ATOM     29  C   UNL     1       4.253   8.767  -4.420  0.00  0.00    -0.077 C 
ATOM     30  H   UNL     1       6.303   8.430  -4.615  0.00  0.00    -0.082 HD
BRANCH  24  32
ATOM     31  C   UNL     1       5.413  10.567  -6.120  0.00  0.00    -0.017 C 
ATOM     32  C   UNL     1       5.937  10.486  -4.685  0.00  0.00    -0.082 C 
ENDBRANCH  24  32
ENDBRANCH  20  27
ENDBRANCH  19  21
ENDBRANCH  18  19
ENDBRANCH   1  18
TORSDOF 5
