REMARK  Name = ZINC61796245
REMARK  4 active torsions:
REMARK  status: ('A' for Active; 'I' for Inactive)
REMARK    1  A    between atoms: C_9  and  C_17
REMARK    2  A    between atoms: C_17  and  N_18
REMARK    3  A    between atoms: N_21  and  N_22
REMARK    4  A    between atoms: C_23  and  C_25
REMARK                            x       y       z     vdW  Elec       q    Type
REMARK                         _______ _______ _______ _____ _____    ______ ____
ROOT
ATOM      1  C   UNL     1      -0.017   1.385   0.010  0.00  0.00    +0.000 A 
ATOM      2  C   UNL     1       1.165   2.102   0.002  0.00  0.00    +0.000 A 
ATOM      3  C   UNL     1       2.388   1.442  -0.013  0.00  0.00    +0.004 A 
ATOM      4  C   UNL     1       2.399   0.077  -0.021  0.00  0.00    -0.036 A 
ATOM      5  C   UNL     1       1.207  -0.646  -0.013  0.00  0.00    -0.036 A 
ATOM      6  C   UNL     1       0.002  -0.004   0.002  0.00  0.00    +0.004 A 
ATOM      7  C   UNL     1       1.389  -2.155  -0.022  0.00  0.00    +0.050 C 
ATOM      8  C   UNL     1       2.220  -2.459  -1.288  0.00  0.00    +0.018 C 
ATOM      9  C   UNL     1       3.526  -1.667  -1.298  0.00  0.00    +0.019 C 
ATOM     10  C   UNL     1       3.654  -0.782  -0.038  0.00  0.00    +0.054 C 
ATOM     11  C   UNL     1       3.504  -1.732   1.140  0.00  0.00    -0.036 A 
ATOM     12  C   UNL     1       2.312  -2.455   1.148  0.00  0.00    -0.036 A 
ATOM     13  C   UNL     1       2.042  -3.345   2.147  0.00  0.00    +0.004 A 
ATOM     14  C   UNL     1       2.978  -3.520   3.159  0.00  0.00    +0.000 A 
ATOM     15  C   UNL     1       4.160  -2.803   3.151  0.00  0.00    +0.000 A 
ATOM     16  C   UNL     1       4.428  -1.899   2.131  0.00  0.00    +0.004 A 
ENDROOT
BRANCH   9  17
ATOM     17  C   UNL     1       3.563  -0.777  -2.541  0.00  0.00    +0.110 C 
BRANCH  17  18
ATOM     18  N   UNL     1       3.606  -1.616  -3.741  0.00  0.00    -0.298 N 
ATOM     19  C   UNL     1       3.644  -1.046  -4.962  0.00  0.00    +0.316 C 
ATOM     20  O   UNL     1       3.643   0.166  -5.067  0.00  0.00    -0.251 OA
ATOM     21  N   UNL     1       3.683  -1.818  -6.066  0.00  0.00    -0.218 N 
ATOM     22  H   UNL     1       3.607  -2.583  -3.658  0.00  0.00    +0.150 HD
ATOM     23  H   UNL     1       3.711  -1.407  -6.944  0.00  0.00    +0.174 HD
BRANCH  21  24
ATOM     24  N   UNL     1       3.685  -3.213  -5.945  0.00  0.00    -0.229 N 
ATOM     25  C   UNL     1       3.724  -3.986  -7.049  0.00  0.00    +0.263 C 
ATOM     26  O   UNL     1       3.758  -3.470  -8.150  0.00  0.00    -0.269 OA
ATOM     27  H   UNL     1       3.657  -3.624  -5.066  0.00  0.00    +0.173 HD
BRANCH  25  28
ATOM     28  C   UNL     1       3.725  -5.454  -6.922  0.00  0.00    +0.076 A 
ATOM     29  C   UNL     1       3.770  -6.440  -8.011  0.00  0.00    +0.054 A 
ATOM     30  C   UNL     1       3.753  -7.644  -7.419  0.00  0.00    +0.195 A 
ATOM     31  O   UNL     1       3.702  -7.479  -6.088  0.00  0.00    -0.470 OA
ATOM     32  C   UNL     1       3.690  -6.181  -5.768  0.00  0.00    +0.208 A 
ENDBRANCH  25  28
ENDBRANCH  21  24
ENDBRANCH  17  18
ENDBRANCH   9  17
TORSDOF 4
