REMARK  Name = ZINC39969439
REMARK  5 active torsions:
REMARK  status: ('A' for Active; 'I' for Inactive)
REMARK    1  A    between atoms: C_1  and  N_2
REMARK    2  A    between atoms: C_3  and  C_23
REMARK    3  A    between atoms: C_7  and  S_9
REMARK    4  A    between atoms: S_9  and  C_10
REMARK    5  A    between atoms: C_10  and  C_11
REMARK                            x       y       z     vdW  Elec       q    Type
REMARK                         _______ _______ _______ _____ _____    ______ ____
ROOT
ATOM      1  C   UNL     1      -0.121   1.439  -0.006  0.00  0.00    -0.090 C 
ATOM      2  N   UNL     1      -0.053  -0.029  -0.017  0.00  0.00    +0.411 N 
ATOM      3  C   UNL     1       0.622  -0.497  -1.250  0.00  0.00    +0.086 C 
ATOM      4  N   UNL     1       2.035  -0.702  -0.837  0.00  0.00    -0.264 NA
ATOM      5  N   UNL     1       1.908  -1.247   0.524  0.00  0.00    -0.261 NA
ATOM      6  C   UNL     1       0.769  -0.506   1.114  0.00  0.00    +0.077 C 
ATOM      7  H   UNL     1       2.498  -1.359  -1.447  0.00  0.00    +0.139 HD
ATOM      8  H   UNL     1       2.752  -1.094   1.055  0.00  0.00    +0.140 HD
ATOM      9  H   UNL     1      -0.982  -0.419   0.040  0.00  0.00    -0.076 HD
ENDROOT
BRANCH   3  10
ATOM     10  C   UNL     1       0.532   0.549  -2.330  0.00  0.00    +0.108 A 
ATOM     11  C   UNL     1      -0.173   0.424  -3.463  0.00  0.00    +0.053 A 
ATOM     12  C   UNL     1       0.026   1.671  -4.210  0.00  0.00    +0.021 A 
ATOM     13  C   UNL     1      -0.427   2.156  -5.436  0.00  0.00    +0.027 A 
ATOM     14  C   UNL     1      -0.040   3.410  -5.857  0.00  0.00    +0.019 A 
ATOM     15  C   UNL     1       0.797   4.186  -5.067  0.00  0.00    +0.019 A 
ATOM     16  C   UNL     1       1.252   3.717  -3.853  0.00  0.00    +0.048 A 
ATOM     17  C   UNL     1       0.873   2.457  -3.410  0.00  0.00    +0.135 A 
ATOM     18  O   UNL     1       1.143   1.746  -2.296  0.00  0.00    -0.460 OA
ATOM     19 BR   UNL     1      -0.650   4.075  -7.519  0.00  0.00    -0.050 Br
ENDBRANCH   3  10
BRANCH   6  20
ATOM     20  S   UNL     1      -0.209  -1.609   2.171  0.00  0.00    -0.152 S 
BRANCH  20  21
ATOM     21  C   UNL     1      -0.691  -2.964   1.065  0.00  0.00    +0.143 C 
BRANCH  21  22
ATOM     22  C   UNL     1      -1.519  -3.965   1.828  0.00  0.00    +0.120 A 
ATOM     23  N   UNL     1      -1.973  -5.062   1.169  0.00  0.00    -0.310 N 
ATOM     24  H   UNL     1      -1.759  -5.182   0.230  0.00  0.00    +0.170 HD
ATOM     25  C   UNL     1      -2.721  -5.991   1.809  0.00  0.00    +0.259 A 
ATOM     26  O   UNL     1      -3.134  -6.979   1.230  0.00  0.00    -0.267 OA
ATOM     27  C   UNL     1      -3.016  -5.760   3.231  0.00  0.00    +0.065 A 
ATOM     28  C   UNL     1      -3.777  -6.654   3.981  0.00  0.00    +0.015 A 
ATOM     29  C   UNL     1      -4.022  -6.388   5.310  0.00  0.00    +0.001 A 
ATOM     30  C   UNL     1      -3.518  -5.238   5.905  0.00  0.00    +0.002 A 
ATOM     31  C   UNL     1      -2.765  -4.342   5.182  0.00  0.00    +0.028 A 
ATOM     32  C   UNL     1      -2.501  -4.590   3.833  0.00  0.00    +0.078 A 
ATOM     33  N   UNL     1      -1.759  -3.737   3.084  0.00  0.00    -0.233 NA
ENDBRANCH  21  22
ENDBRANCH  20  21
ENDBRANCH   6  20
TORSDOF 4
