REMARK  Name = ZINC63588754
REMARK  13 active torsions:
REMARK  status: ('A' for Active; 'I' for Inactive)
REMARK    1  A    between atoms: C_1  and  C_2
REMARK    2  A    between atoms: C_2  and  O_3
REMARK    3  A    between atoms: O_3  and  C_4
REMARK    4  A    between atoms: C_7  and  C_13
REMARK    5  A    between atoms: C_9  and  O_10
REMARK    6  A    between atoms: O_10  and  C_11
REMARK    7  A    between atoms: C_11  and  C_12
REMARK    8  A    between atoms: C_13  and  N_15
REMARK    9  A    between atoms: N_17  and  C_18
REMARK   10  A    between atoms: C_22  and  C_24
REMARK   11  A    between atoms: N_25  and  C_26
REMARK   12  A    between atoms: C_26  and  C_27
REMARK   13  A    between atoms: C_27  and  C_28
REMARK                            x       y       z     vdW  Elec       q    Type
REMARK                         _______ _______ _______ _____ _____    ______ ____
ROOT
ATOM      1  N   UNL     1       0.608  -7.288  -0.063  0.00  0.00    -0.143 NA
ATOM      2  C   UNL     1       1.316  -8.058  -0.875  0.00  0.00    +0.194 C 
ATOM      3  N   UNL     1       1.256  -7.861  -2.225  0.00  0.00    -0.328 N 
ATOM      4  N   UNL     1       2.103  -9.047  -0.364  0.00  0.00    -0.357 N 
ATOM      5  H   UNL     1       1.454  -6.987  -2.597  0.00  0.00    +0.169 HD
ATOM      6  H   UNL     1       2.109  -9.218   0.591  0.00  0.00    +0.162 HD
ENDROOT
BRANCH   3   7
ATOM      7  C   UNL     1       0.911  -8.919  -3.072  0.00  0.00    +0.042 A 
ATOM      8  C   UNL     1      -0.034  -9.854  -2.668  0.00  0.00    +0.026 A 
ATOM      9  C   UNL     1      -0.373 -10.898  -3.506  0.00  0.00    +0.002 A 
ATOM     10  C   UNL     1       0.227 -11.013  -4.747  0.00  0.00    +0.003 A 
ATOM     11  C   UNL     1       1.169 -10.085  -5.152  0.00  0.00    -0.049 A 
ATOM     12  C   UNL     1       1.507  -9.035  -4.321  0.00  0.00    +0.029 A 
ATOM     13  C   UNL     1       1.821 -10.216  -6.504  0.00  0.00    +0.044 C 
ENDBRANCH   3   7
BRANCH   1  14
ATOM     14  C   UNL     1      -0.270  -6.410  -0.567  0.00  0.00    +0.270 C 
ATOM     15  O   UNL     1      -0.351  -6.253  -1.772  0.00  0.00    -0.268 OA
BRANCH  14  19
ATOM     16  C   UNL     1      -2.768  -4.171   2.047  0.00  0.00    +0.162 A 
ATOM     17  C   UNL     1      -1.858  -5.082   2.567  0.00  0.00    +0.050 A 
ATOM     18  C   UNL     1      -1.047  -5.809   1.722  0.00  0.00    +0.017 A 
ATOM     19  C   UNL     1      -1.140  -5.631   0.341  0.00  0.00    +0.043 A 
ATOM     20  C   UNL     1      -2.054  -4.715  -0.183  0.00  0.00    +0.062 A 
ATOM     21  C   UNL     1      -2.869  -3.993   0.669  0.00  0.00    +0.163 A 
BRANCH  16  22
ATOM     22  O   UNL     1      -3.565  -3.457   2.884  0.00  0.00    -0.489 OA
BRANCH  22  24
ATOM     23  C   UNL     1      -4.383  -2.801   5.061  0.00  0.00    +0.048 C 
ATOM     24  C   UNL     1      -3.409  -3.689   4.285  0.00  0.00    +0.226 C 
ENDBRANCH  22  24
ENDBRANCH  16  22
BRANCH  21  25
ATOM     25  O   UNL     1      -3.764  -3.104   0.162  0.00  0.00    -0.489 OA
BRANCH  25  26
ATOM     26  C   UNL     1      -3.814  -2.972  -1.260  0.00  0.00    +0.226 C 
ATOM     27  C   UNL     1      -4.873  -1.935  -1.640  0.00  0.00    +0.048 C 
ENDBRANCH  25  26
ENDBRANCH  21  25
ENDBRANCH  14  19
ENDBRANCH   1  14
BRANCH   4  28
ATOM     28  C   UNL     1       2.941  -9.852  -1.258  0.00  0.00    +0.120 C 
BRANCH  28  29
ATOM     29  C   UNL     1       3.721 -10.880  -0.436  0.00  0.00    +0.054 C 
BRANCH  29  30
ATOM     30  C   UNL     1       4.672 -11.626  -1.337  0.00  0.00    -0.040 C 
ATOM     31  C   UNL     1       5.967 -11.322  -1.583  0.00  0.00    -0.001 A 
ATOM     32  C   UNL     1       6.844 -10.247  -1.103  0.00  0.00    +0.010 A 
ATOM     33  C   UNL     1       8.124 -10.203  -1.537  0.00  0.00    +0.001 A 
ATOM     34  C   UNL     1       8.633 -11.155  -2.431  0.00  0.00    +0.002 A 
ATOM     35  C   UNL     1       7.888 -12.172  -2.915  0.00  0.00    +0.026 A 
ATOM     36  C   UNL     1       6.528 -12.315  -2.526  0.00  0.00    +0.043 A 
ATOM     37  N   UNL     1       5.616 -13.199  -2.850  0.00  0.00    -0.380 N 
ATOM     38  C   UNL     1       4.373 -12.869  -2.145  0.00  0.00    +0.144 C 
ATOM     39  H   UNL     1       5.743 -13.948  -3.454  0.00  0.00    +0.160 HD
ENDBRANCH  29  30
ENDBRANCH  28  29
ENDBRANCH   4  28
TORSDOF 10
