REMARK  Name = ZINC16957642
REMARK  3 active torsions:
REMARK  status: ('A' for Active; 'I' for Inactive)
REMARK    1  A    between atoms: C_10  and  C_15
REMARK    2  A    between atoms: C_10  and  O_19
REMARK    3  A    between atoms: C_22  and  C_25
REMARK                            x       y       z     vdW  Elec       q    Type
REMARK                         _______ _______ _______ _____ _____    ______ ____
ROOT
ATOM      1  C   UNL     1       1.327  -2.240   2.525  0.00  0.00    +0.001 A 
ATOM      2  C   UNL     1       0.243  -2.651   1.768  0.00  0.00    +0.004 A 
ATOM      3  C   UNL     1      -0.328  -1.813   0.830  0.00  0.00    +0.046 A 
ATOM      4  C   UNL     1       0.181  -0.538   0.632  0.00  0.00    +0.129 A 
ATOM      5  C   UNL     1       1.279  -0.125   1.413  0.00  0.00    +0.040 A 
ATOM      6  C   UNL     1       1.850  -0.972   2.348  0.00  0.00    +0.013 A 
ATOM      7  C   UNL     1       1.754   1.250   1.177  0.00  0.00    +0.081 C 
ATOM      8  N   UNL     1       2.440   2.057   1.883  0.00  0.00    -0.179 NA
ATOM      9  N   UNL     1       2.517   3.349   1.356  0.00  0.00    -0.160 N 
ATOM     10  C   UNL     1       1.731   3.398   0.107  0.00  0.00    +0.262 C 
ATOM     11  C   UNL     1       1.370   1.933  -0.138  0.00  0.00    +0.138 C 
ATOM     12  C   UNL     1      -0.131   1.689  -0.289  0.00  0.00    +0.243 C 
ATOM     13  O   UNL     1      -0.370   0.279  -0.296  0.00  0.00    -0.490 OA
ATOM     14  C   UNL     1       3.215   4.407   1.912  0.00  0.00    +0.184 A 
ATOM     15  N   UNL     1       3.251   5.674   1.538  0.00  0.00    -0.223 NA
ATOM     16  C   UNL     1       3.982   6.563   2.193  0.00  0.00    +0.080 A 
ATOM     17  C   UNL     1       4.713   6.163   3.277  0.00  0.00    +0.077 A 
ATOM     18  S   UNL     1       4.302   4.424   3.331  0.00  0.00    -0.058 S 
ENDROOT
BRANCH  16  19
ATOM     19  C   UNL     1       4.006   7.980   1.756  0.00  0.00    +0.001 A 
ATOM     20  C   UNL     1       3.184   8.405   0.713  0.00  0.00    +0.011 A 
ATOM     21  C   UNL     1       3.207   9.725   0.314  0.00  0.00    +0.020 A 
ATOM     22  C   UNL     1       4.053  10.626   0.939  0.00  0.00    +0.041 A 
ATOM     23  C   UNL     1       4.875  10.208   1.971  0.00  0.00    +0.020 A 
ATOM     24  C   UNL     1       4.856   8.891   2.382  0.00  0.00    +0.011 A 
ATOM     25 CL   UNL     1       4.081  12.284   0.427  0.00  0.00    -0.084 Cl
ENDBRANCH  16  19
BRANCH  10  26
ATOM     26  C   UNL     1       2.578   3.946  -1.043  0.00  0.00    +0.438 C 
ATOM     27  F   UNL     1       3.744   3.183  -1.167  0.00  0.00    -0.166 F 
ATOM     28  F   UNL     1       1.847   3.877  -2.234  0.00  0.00    -0.166 F 
ATOM     29  F   UNL     1       2.918   5.277  -0.779  0.00  0.00    -0.166 F 
ENDBRANCH  10  26
BRANCH  10  30
ATOM     30  O   UNL     1       0.553   4.188   0.284  0.00  0.00    -0.363 OA
ATOM     31  H   UNL     1       0.729   5.111   0.513  0.00  0.00    +0.212 HD
ENDBRANCH  10  30
TORSDOF 3
