REMARK  Name = ZINC34787581
REMARK  7 active torsions:
REMARK  status: ('A' for Active; 'I' for Inactive)
REMARK    1  A    between atoms: C_1  and  C_2
REMARK    2  A    between atoms: C_5  and  N_8
REMARK    3  A    between atoms: N_8  and  N_9
REMARK    4  A    between atoms: N_9  and  N_32
REMARK    5  A    between atoms: C_12  and  C_26
REMARK    6  A    between atoms: C_20  and  C_25
REMARK    7  A    between atoms: C_22  and  C_24
REMARK                            x       y       z     vdW  Elec       q    Type
REMARK                         _______ _______ _______ _____ _____    ______ ____
ROOT
ATOM      1  N   UNL     1      -0.087  -6.030   0.378  0.00  0.00    -0.164 N 
ATOM      2  C   UNL     1      -1.305  -6.360   0.946  0.00  0.00    +0.168 A 
ATOM      3  C   UNL     1      -2.479  -5.641   0.594  0.00  0.00    +0.058 A 
ATOM      4  C   UNL     1      -2.645  -4.528  -0.335  0.00  0.00    +0.002 A 
ATOM      5  C   UNL     1      -3.880  -4.001  -0.507  0.00  0.00    +0.056 A 
ATOM      6  S   UNL     1      -4.903  -4.977   0.578  0.00  0.00    -0.076 S 
ATOM      7  C   UNL     1      -3.663  -6.062   1.234  0.00  0.00    +0.116 A 
ATOM      8  N   UNL     1      -3.662  -7.058   2.099  0.00  0.00    -0.203 NA
ATOM      9  C   UNL     1      -2.537  -7.691   2.389  0.00  0.00    +0.254 A 
ATOM     10  N   UNL     1      -1.389  -7.350   1.818  0.00  0.00    -0.192 NA
ATOM     11  N   UNL     1      -2.559  -8.741   3.307  0.00  0.00    -0.202 N 
ATOM     12  C   UNL     1      -3.655  -9.210   3.960  0.00  0.00    +0.045 A 
ATOM     13  C   UNL     1      -3.253 -10.229   4.754  0.00  0.00    +0.048 A 
ATOM     14  C   UNL     1      -1.873 -10.390   4.584  0.00  0.00    +0.061 A 
ATOM     15  N   UNL     1      -1.458  -9.505   3.715  0.00  0.00    -0.169 NA
ATOM     16  C   UNL     1      -1.012 -11.413   5.279  0.00  0.00    +0.067 C 
ATOM     17  C   UNL     1      -5.062  -8.689   3.825  0.00  0.00    +0.066 C 
ENDROOT
BRANCH   4  18
ATOM     18  C   UNL     1      -1.482  -3.984  -1.076  0.00  0.00    -0.017 A 
ATOM     19  C   UNL     1      -0.531  -3.208  -0.415  0.00  0.00    +0.008 A 
ATOM     20  C   UNL     1       0.549  -2.705  -1.110  0.00  0.00    +0.001 A 
ATOM     21  C   UNL     1       0.690  -2.969  -2.460  0.00  0.00    +0.000 A 
ATOM     22  C   UNL     1      -0.250  -3.738  -3.122  0.00  0.00    +0.001 A 
ATOM     23  C   UNL     1      -1.332  -4.251  -2.436  0.00  0.00    +0.008 A 
ENDBRANCH   4  18
BRANCH   1  24
ATOM     24  N   UNL     1       1.018  -5.885   1.167  0.00  0.00    -0.208 NA
ATOM     25  C   UNL     1       1.999  -6.960   0.908  0.00  0.00    +0.107 C 
ATOM     26  C   UNL     1       3.030  -6.330  -0.061  0.00  0.00    +0.018 C 
ATOM     27  C   UNL     1       3.118  -4.877   0.476  0.00  0.00    +0.018 C 
ATOM     28  C   UNL     1       1.671  -4.585   0.927  0.00  0.00    +0.107 C 
ENDBRANCH   1  24
BRANCH   1  29
ATOM     29  N   UNL     1       0.012  -5.845  -1.007  0.00  0.00    -0.249 N 
ATOM     30  H   UNL     1       0.210  -4.966  -1.366  0.00  0.00    +0.172 HD
BRANCH  29  35
ATOM     31  C   UNL     1      -0.743 -10.237  -4.515  0.00  0.00    +0.044 C 
ATOM     32  C   UNL     1      -0.542  -9.070  -3.583  0.00  0.00    -0.050 A 
ATOM     33  C   UNL     1      -0.254  -7.818  -4.096  0.00  0.00    +0.005 A 
ATOM     34  C   UNL     1      -0.070  -6.747  -3.245  0.00  0.00    +0.025 A 
ATOM     35  C   UNL     1      -0.174  -6.927  -1.871  0.00  0.00    +0.046 A 
ATOM     36  C   UNL     1      -0.464  -8.185  -1.359  0.00  0.00    +0.025 A 
ATOM     37  C   UNL     1      -0.652  -9.252  -2.216  0.00  0.00    +0.005 A 
ENDBRANCH  29  35
ENDBRANCH   1  29
TORSDOF 4
