REMARK  Name = ZINC39550052
REMARK  9 active torsions:
REMARK  status: ('A' for Active; 'I' for Inactive)
REMARK    1  A    between atoms: C_1  and  C_2
REMARK    2  A    between atoms: C_4  and  C_35
REMARK    3  A    between atoms: C_5  and  C_9
REMARK    4  A    between atoms: C_7  and  C_8
REMARK    5  A    between atoms: C_11  and  N_20
REMARK    6  A    between atoms: N_12  and  C_14
REMARK    7  A    between atoms: C_21  and  C_23
REMARK    8  A    between atoms: C_23  and  S_24
REMARK    9  A    between atoms: S_24  and  C_25
REMARK                            x       y       z     vdW  Elec       q    Type
REMARK                         _______ _______ _______ _____ _____    ______ ____
ROOT
ATOM      1  C   UNL     1       0.061  -4.256  -0.021  0.00  0.00    +0.095 A 
ATOM      2  C   UNL     1       0.072  -5.088   1.114  0.00  0.00    +0.074 A 
ATOM      3  C   UNL     1       0.089  -6.377   0.685  0.00  0.00    +0.129 A 
ATOM      4  N   UNL     1       0.089  -6.359  -0.676  0.00  0.00    -0.218 N 
ATOM      5  N   UNL     1       0.065  -5.022  -1.092  0.00  0.00    -0.165 NA
ENDROOT
BRANCH   1  10
ATOM      6  C   UNL     1      -0.018   1.503   0.010  0.00  0.00    +0.044 C 
ATOM      7  C   UNL     1       0.002  -0.004   0.002  0.00  0.00    -0.047 A 
ATOM      8  C   UNL     1       0.006  -0.687  -1.201  0.00  0.00    +0.007 A 
ATOM      9  C   UNL     1       0.025  -2.066  -1.215  0.00  0.00    -0.041 A 
ATOM     10  C   UNL     1       0.041  -2.772  -0.013  0.00  0.00    +0.005 A 
ATOM     11  C   UNL     1       0.037  -2.080   1.196  0.00  0.00    +0.014 A 
ATOM     12  C   UNL     1       0.023  -0.699   1.197  0.00  0.00    -0.047 A 
ATOM     13  C   UNL     1       0.025   0.051   2.504  0.00  0.00    +0.044 C 
ATOM     14  C   UNL     1       0.028  -2.808  -2.526  0.00  0.00    +0.044 C 
ENDBRANCH   1  10
BRANCH   4  15
ATOM     15  C   UNL     1       0.104  -7.482  -1.514  0.00  0.00    +0.067 A 
ATOM     16  C   UNL     1       0.804  -8.621  -1.139  0.00  0.00    +0.028 A 
ATOM     17  C   UNL     1       0.817  -9.726  -1.967  0.00  0.00    +0.002 A 
ATOM     18  C   UNL     1       0.134  -9.700  -3.169  0.00  0.00    +0.000 A 
ATOM     19  C   UNL     1      -0.564  -8.567  -3.546  0.00  0.00    +0.002 A 
ATOM     20  C   UNL     1      -0.586  -7.460  -2.719  0.00  0.00    +0.028 A 
ENDBRANCH   4  15
BRANCH   3  21
ATOM     21  N   UNL     1       0.105  -7.513   1.494  0.00  0.00    -0.270 N 
ATOM     22  C   UNL     1       0.103  -7.385   2.836  0.00  0.00    +0.229 C 
ATOM     23  O   UNL     1       0.087  -6.282   3.340  0.00  0.00    -0.275 OA
ATOM     24  H   UNL     1       0.117  -8.395   1.091  0.00  0.00    +0.156 HD
BRANCH  22  25
ATOM     25  C   UNL     1       0.120  -8.613   3.709  0.00  0.00    +0.173 C 
BRANCH  25  26
ATOM     26  S   UNL     1       0.112  -8.114   5.453  0.00  0.00    -0.077 S 
BRANCH  26  27
ATOM     27  C   UNL     1       0.133  -9.641   6.333  0.00  0.00    +0.192 A 
ATOM     28  N   UNL     1       0.156 -10.847   5.810  0.00  0.00    -0.122 NA
ATOM     29  N   UNL     1       0.173 -11.730   6.746  0.00  0.00    -0.134 NA
ATOM     30  C   UNL     1       0.167 -11.145   7.907  0.00  0.00    +0.134 A 
ATOM     31  N   UNL     1       0.135  -9.798   7.685  0.00  0.00    -0.306 N 
ATOM     32  C   UNL     1       0.093  -8.748   8.703  0.00  0.00    +0.125 C 
ATOM     33  C   UNL     1       0.773  -9.253   9.979  0.00  0.00    +0.022 C 
ATOM     34  C   UNL     1      -0.254  -9.948  10.871  0.00  0.00    +0.002 C 
ATOM     35  C   UNL     1      -0.852 -11.159  10.161  0.00  0.00    +0.008 C 
ATOM     36  C   UNL     1       0.201 -11.804   9.262  0.00  0.00    +0.076 C 
ENDBRANCH  26  27
ENDBRANCH  25  26
ENDBRANCH  22  25
ENDBRANCH   3  21
TORSDOF 6
