REMARK  Name = ZINC37311602
REMARK  2 active torsions:
REMARK  status: ('A' for Active; 'I' for Inactive)
REMARK    1  A    between atoms: C_3  and  O_22
REMARK    2  A    between atoms: C_6  and  C_7
REMARK                            x       y       z     vdW  Elec       q    Type
REMARK                         _______ _______ _______ _____ _____    ______ ____
ROOT
ATOM      1  C   UNL     1      -1.267  -0.762   0.011  0.00  0.00    +0.139 A 
ATOM      2  N   UNL     1      -1.368  -2.128   0.010  0.00  0.00    -0.338 N 
ATOM      3  H   UNL     1      -0.633  -2.760   0.004  0.00  0.00    +0.167 HD
ATOM      4  C   UNL     1      -2.717  -2.437   0.019  0.00  0.00    +0.070 A 
ATOM      5  C   UNL     1      -3.429  -3.628   0.021  0.00  0.00    +0.077 A 
ATOM      6  C   UNL     1      -4.812  -3.607   0.032  0.00  0.00    +0.164 A 
ATOM      7  C   UNL     1      -5.497  -2.391   0.042  0.00  0.00    +0.164 A 
ATOM      8  C   UNL     1      -4.799  -1.200   0.037  0.00  0.00    +0.079 A 
ATOM      9  C   UNL     1      -3.400  -1.210   0.026  0.00  0.00    +0.093 A 
ATOM     10  N   UNL     1      -2.464  -0.229   0.026  0.00  0.00    -0.228 NA
ATOM     11  O   UNL     1      -6.859  -2.361   0.060  0.00  0.00    -0.485 OA
ATOM     12  C   UNL     1      -7.535  -3.567  -0.312  0.00  0.00    +0.270 C 
ATOM     13  C   UNL     1      -6.868  -4.738   0.422  0.00  0.00    +0.270 C 
ATOM     14  O   UNL     1      -5.492  -4.787   0.030  0.00  0.00    -0.485 OA
ENDROOT
BRANCH   1  20
ATOM     15  C   UNL     1      -0.017   1.392   0.010  0.00  0.00    +0.015 A 
ATOM     16  C   UNL     1       1.168   2.096   0.002  0.00  0.00    +0.047 A 
ATOM     17  C   UNL     1       2.380   1.419  -0.013  0.00  0.00    +0.135 A 
ATOM     18  C   UNL     1       2.404   0.029  -0.021  0.00  0.00    +0.083 A 
ATOM     19  C   UNL     1       1.223  -0.682  -0.014  0.00  0.00    +0.035 A 
ATOM     20  C   UNL     1       0.002  -0.004   0.002  0.00  0.00    +0.019 A 
ATOM     21 CL   UNL     1       3.922  -0.813  -0.041  0.00  0.00    -0.080 Cl
BRANCH  17  22
ATOM     22  O   UNL     1       3.546   2.116  -0.020  0.00  0.00    -0.505 OA
ATOM     23  H   UNL     1       3.892   2.313   0.861  0.00  0.00    +0.292 HD
ENDBRANCH  17  22
ENDBRANCH   1  20
TORSDOF 2
