REMARK  Name = ZINC12436333
REMARK  7 active torsions:
REMARK  status: ('A' for Active; 'I' for Inactive)
REMARK    1  A    between atoms: C_1  and  C_2
REMARK    2  A    between atoms: C_3  and  C_15
REMARK    3  A    between atoms: N_6  and  C_7
REMARK    4  A    between atoms: C_15  and  C_17
REMARK    5  A    between atoms: C_15  and  N_47
REMARK    6  A    between atoms: C_18  and  C_19
REMARK    7  A    between atoms: C_18  and  N_47
REMARK                            x       y       z     vdW  Elec       q    Type
REMARK                         _______ _______ _______ _____ _____    ______ ____
ROOT
ATOM      1  C   UNL     1       1.620   1.292  -0.086  0.00  0.00    -0.040 C 
ATOM      2  C   UNL     1       2.684   0.506  -0.854  0.00  0.00    -0.009 C 
ENDROOT
BRANCH   1   5
ATOM      3  C   UNL     1       3.515   3.473   1.117  0.00  0.00    +0.066 C 
ATOM      4  C   UNL     1       2.850   2.355   1.879  0.00  0.00    +0.044 A 
ATOM      5  C   UNL     1       2.030   1.412   1.359  0.00  0.00    -0.021 A 
ATOM      6  C   UNL     1       1.626   0.571   2.402  0.00  0.00    +0.137 A 
ATOM      7  N   UNL     1       2.190   0.988   3.507  0.00  0.00    -0.174 NA
ATOM      8  N   UNL     1       2.965   2.115   3.205  0.00  0.00    -0.234 N 
BRANCH   8   9
ATOM      9  C   UNL     1       3.725   2.864   4.116  0.00  0.00    +0.101 A 
ATOM     10  C   UNL     1       3.639   4.249   4.121  0.00  0.00    +0.033 A 
ATOM     11  C   UNL     1       4.383   4.984   5.023  0.00  0.00    +0.040 A 
ATOM     12  C   UNL     1       5.225   4.340   5.915  0.00  0.00    +0.126 A 
ATOM     13  C   UNL     1       5.319   2.959   5.910  0.00  0.00    +0.078 A 
ATOM     14  C   UNL     1       4.570   2.219   5.012  0.00  0.00    +0.151 A 
ATOM     15  F   UNL     1       4.661   0.871   5.006  0.00  0.00    -0.203 F 
ATOM     16  F   UNL     1       5.957   5.062   6.793  0.00  0.00    -0.205 F 
ENDBRANCH   8   9
ENDBRANCH   1   5
BRANCH   1  17
ATOM     17  N   UNL     1       0.330   0.582  -0.166  0.00  0.00    +0.386 N 
ATOM     18  H   UNL     1      -0.248   0.837   0.644  0.00  0.00    -0.085 HD
ATOM     19  H   UNL     1       0.499  -0.430  -0.160  0.00  0.00    -0.085 HD
BRANCH  17  20
ATOM     20  C   UNL     1      -0.381   0.949  -1.405  0.00  0.00    -0.045 C 
BRANCH  20  21
ATOM     21  C   UNL     1      -1.693   0.210  -1.460  0.00  0.00    -0.054 A 
ATOM     22  C   UNL     1      -1.834  -0.915  -2.221  0.00  0.00    +0.022 A 
ATOM     23  C   UNL     1      -3.054  -1.585  -2.252  0.00  0.00    +0.111 A 
ATOM     24  N   UNL     1      -4.092  -1.160  -1.573  0.00  0.00    -0.255 NA
ATOM     25  C   UNL     1      -4.023  -0.063  -0.813  0.00  0.00    +0.071 A 
ATOM     26  C   UNL     1      -2.809   0.664  -0.732  0.00  0.00    +0.002 A 
ATOM     27  C   UNL     1      -2.742   1.816   0.067  0.00  0.00    +0.010 A 
ATOM     28  C   UNL     1      -3.844   2.223   0.755  0.00  0.00    +0.001 A 
ATOM     29  C   UNL     1      -5.038   1.510   0.678  0.00  0.00    +0.002 A 
ATOM     30  C   UNL     1      -5.139   0.389  -0.087  0.00  0.00    +0.028 A 
ENDBRANCH  20  21
ENDBRANCH  17  20
ENDBRANCH   1  17
TORSDOF 5
