REMARK  Name = ZINC19480449
REMARK  4 active torsions:
REMARK  status: ('A' for Active; 'I' for Inactive)
REMARK    1  A    between atoms: C_1  and  C_2
REMARK    2  A    between atoms: C_5  and  C_20
REMARK    3  A    between atoms: C_13  and  C_16
REMARK    4  A    between atoms: N_17  and  O_18
REMARK                            x       y       z     vdW  Elec       q    Type
REMARK                         _______ _______ _______ _____ _____    ______ ____
ROOT
ATOM      1  C   UNL     1      -1.729   3.971  -2.174  0.00  0.00    +0.009 C 
ATOM      2  C   UNL     1      -0.926   3.426  -0.992  0.00  0.00    +0.004 C 
ATOM      3  C   UNL     1       0.474   4.045  -0.995  0.00  0.00    +0.009 C 
ATOM      4  C   UNL     1       1.291   3.450   0.155  0.00  0.00    +0.004 C 
ATOM      5  C   UNL     1       1.347   1.928  -0.000  0.00  0.00    +0.109 C 
ATOM      6  N   UNL     1      -0.017   1.383   0.010  0.00  0.00    -0.315 N 
ATOM      7  C   UNL     1      -0.805   1.905  -1.114  0.00  0.00    +0.109 C 
ATOM      8  C   UNL     1       0.002  -0.004   0.002  0.00  0.00    +0.121 A 
ATOM      9  C   UNL     1      -1.200  -0.708   0.015  0.00  0.00    +0.044 A 
ATOM     10  C   UNL     1      -1.174  -2.087   0.003  0.00  0.00    +0.016 A 
ATOM     11  C   UNL     1       0.072  -2.730  -0.013  0.00  0.00    +0.036 A 
ATOM     12  C   UNL     1       1.232  -1.958  -0.020  0.00  0.00    +0.124 A 
ATOM     13  N   UNL     1       1.163  -0.642  -0.013  0.00  0.00    -0.240 NA
ATOM     14  C   UNL     1       0.628   3.803   1.488  0.00  0.00    +0.009 C 
ENDROOT
BRANCH  11  15
ATOM     15  C   UNL     1       0.154  -4.207  -0.021  0.00  0.00    +0.164 C 
ATOM     16  N   UNL     1      -0.935  -4.919  -0.014  0.00  0.00    -0.071 NA
ATOM     17  N   UNL     1       1.389  -4.831  -0.035  0.00  0.00    -0.340 N 
ATOM     18  H   UNL     1       1.450  -5.929  -0.041  0.00  0.00    +0.144 HD
ATOM     19  H   UNL     1       2.310  -4.229  -0.041  0.00  0.00    +0.144 HD
BRANCH  16  20
ATOM     20  O   UNL     1      -0.857  -6.333  -0.021  0.00  0.00    -0.408 OA
ATOM     21  H   UNL     1      -1.778  -6.935  -0.015  0.00  0.00    +0.328 HD
ENDBRANCH  16  20
ENDBRANCH  11  15
TORSDOF 2
