REMARK  Name = ZINC02111268
REMARK  8 active torsions:
REMARK  status: ('A' for Active; 'I' for Inactive)
REMARK    1  A    between atoms: C_1  and  C_2
REMARK    2  A    between atoms: C_11  and  C_12
REMARK    3  A    between atoms: C_12  and  O_13
REMARK    4  A    between atoms: O_13  and  C_14
REMARK    5  A    between atoms: C_18  and  C_40
REMARK    6  A    between atoms: C_19  and  C_25
REMARK    7  A    between atoms: C_25  and  C_26
REMARK    8  A    between atoms: C_31  and  O_39
REMARK                            x       y       z     vdW  Elec       q    Type
REMARK                         _______ _______ _______ _____ _____    ______ ____
ROOT
ATOM      1  C   UNL     1      -2.908   6.404   2.289  0.00  0.00    +0.125 A 
ATOM      2  C   UNL     1      -3.820   6.847   1.333  0.00  0.00    +0.046 A 
ATOM      3  C   UNL     1      -5.012   7.389   1.714  0.00  0.00    +0.015 A 
ATOM      4  C   UNL     1      -5.316   7.514   3.075  0.00  0.00    +0.021 A 
ATOM      5  C   UNL     1      -6.585   8.098   3.513  0.00  0.00    -0.029 A 
ATOM      6  C   UNL     1      -6.822   8.191   4.848  0.00  0.00    +0.049 A 
ATOM      7  C   UNL     1      -5.856   7.729   5.765  0.00  0.00    +0.341 A 
ATOM      8  O   UNL     1      -6.081   7.819   6.959  0.00  0.00    -0.245 OA
ATOM      9  O   UNL     1      -4.695   7.194   5.356  0.00  0.00    -0.422 OA
ATOM     10  C   UNL     1      -4.397   7.074   4.045  0.00  0.00    +0.143 A 
ATOM     11  C   UNL     1      -3.193   6.519   3.640  0.00  0.00    +0.092 A 
ATOM     12  C   UNL     1      -7.601   8.583   2.511  0.00  0.00    +0.045 C 
ENDROOT
BRANCH   1  13
ATOM     13  O   UNL     1      -1.728   5.860   1.893  0.00  0.00    -0.487 OA
BRANCH  13  14
ATOM     14  C   UNL     1      -1.495   5.770   0.486  0.00  0.00    +0.265 C 
BRANCH  14  25
ATOM     15  C   UNL     1       0.851   7.407   0.437  0.00  0.00    +0.044 C 
ATOM     16  C   UNL     1       0.973   5.921   0.216  0.00  0.00    -0.043 A 
ATOM     17  C   UNL     1       2.229   5.362  -0.011  0.00  0.00    +0.004 A 
ATOM     18  C   UNL     1       2.374   4.024  -0.214  0.00  0.00    +0.009 A 
ATOM     19  C   UNL     1       1.242   3.191  -0.197  0.00  0.00    -0.017 A 
ATOM     20  C   UNL     1       1.352   1.805  -0.403  0.00  0.00    +0.008 A 
ATOM     21  C   UNL     1       0.233   1.030  -0.378  0.00  0.00    +0.001 A 
ATOM     22  C   UNL     1      -1.023   1.590  -0.157  0.00  0.00    +0.001 A 
ATOM     23  C   UNL     1      -1.168   2.927   0.053  0.00  0.00    +0.009 A 
ATOM     24  C   UNL     1      -0.036   3.760   0.034  0.00  0.00    -0.011 A 
ATOM     25  C   UNL     1      -0.146   5.146   0.240  0.00  0.00    +0.000 A 
ENDBRANCH  14  25
ENDBRANCH  13  14
ENDBRANCH   1  13
BRANCH   6  26
ATOM     26  C   UNL     1      -8.114   8.786   5.346  0.00  0.00    +0.138 C 
BRANCH  26  27
ATOM     27  C   UNL     1      -9.144   7.696   5.495  0.00  0.00    +0.220 C 
ATOM     28  O   UNL     1      -8.858   6.549   5.223  0.00  0.00    -0.275 OA
ATOM     29  N   UNL     1     -10.384   7.996   5.931  0.00  0.00    -0.301 N 
ATOM     30  C   UNL     1     -10.747   9.380   6.264  0.00  0.00    +0.110 C 
ATOM     31  C   UNL     1     -12.005   9.761   5.478  0.00  0.00    +0.054 C 
ATOM     32  C   UNL     1     -13.110   8.739   5.760  0.00  0.00    +0.072 C 
ATOM     33  C   UNL     1     -14.374   9.140   4.997  0.00  0.00    +0.035 C 
ATOM     34  C   UNL     1     -15.482   8.121   5.268  0.00  0.00    +0.003 C 
ATOM     35  C   UNL     1     -15.025   6.737   4.801  0.00  0.00    +0.001 C 
ATOM     36  C   UNL     1     -13.764   6.333   5.567  0.00  0.00    +0.008 C 
ATOM     37  C   UNL     1     -12.653   7.352   5.300  0.00  0.00    +0.038 C 
ATOM     38  C   UNL     1     -11.401   6.946   6.076  0.00  0.00    +0.114 C 
BRANCH  32  39
ATOM     39  O   UNL     1     -13.387   8.711   7.162  0.00  0.00    -0.388 OA
ATOM     40  H   UNL     1     -13.684   9.558   7.520  0.00  0.00    +0.210 HD
ENDBRANCH  32  39
ENDBRANCH  26  27
ENDBRANCH   6  26
TORSDOF 6
