REMARK  Name = ZINC59121549
REMARK  5 active torsions:
REMARK  status: ('A' for Active; 'I' for Inactive)
REMARK    1  A    between atoms: C_4  and  C_7
REMARK    2  A    between atoms: N_9  and  C_31
REMARK    3  A    between atoms: C_16  and  C_25
REMARK    4  A    between atoms: N_17  and  N_18
REMARK    5  A    between atoms: N_18  and  C_19
REMARK                            x       y       z     vdW  Elec       q    Type
REMARK                         _______ _______ _______ _____ _____    ______ ____
ROOT
ATOM      1  C   UNL     1       3.690  -1.035   0.227  0.00  0.00    +0.127 C 
ATOM      2  N   UNL     1       4.744  -0.293   0.021  0.00  0.00    -0.169 NA
ATOM      3  N   UNL     1       6.016  -0.817  -0.132  0.00  0.00    -0.180 N 
ATOM      4  C   UNL     1       6.089  -2.269  -0.044  0.00  0.00    +0.225 C 
ATOM      5  S   UNL     1       4.340  -2.702   0.252  0.00  0.00    -0.045 S 
ATOM      6  N   UNL     1       6.646  -2.939  -1.206  0.00  0.00    -0.275 N 
ATOM      7  C   UNL     1       7.710  -3.909  -0.922  0.00  0.00    +0.121 C 
ATOM      8  C   UNL     1       8.521  -3.492   0.343  0.00  0.00    +0.093 C 
ATOM      9  S   UNL     1       7.122  -2.825   1.358  0.00  0.00    -0.101 S 
ATOM     10  C   UNL     1       6.200  -2.679  -2.501  0.00  0.00    +0.122 C 
ATOM     11  N   UNL     1       5.331  -1.733  -2.712  0.00  0.00    -0.293 N 
ATOM     12  H   UNL     1       5.071  -1.141  -1.989  0.00  0.00    +0.186 HD
ENDROOT
BRANCH   1  16
ATOM     13  C   UNL     1      -0.337   0.216   0.737  0.00  0.00    +0.000 A 
ATOM     14  C   UNL     1       0.655   1.157   0.520  0.00  0.00    +0.001 A 
ATOM     15  C   UNL     1       1.965   0.757   0.354  0.00  0.00    +0.010 A 
ATOM     16  C   UNL     1       2.289  -0.600   0.405  0.00  0.00    +0.008 A 
ATOM     17  C   UNL     1       1.284  -1.543   0.624  0.00  0.00    +0.010 A 
ATOM     18  C   UNL     1      -0.022  -1.130   0.788  0.00  0.00    +0.001 A 
ENDBRANCH   1  16
BRANCH  10  19
ATOM     19  C   UNL     1       6.715  -3.477  -3.633  0.00  0.00    +0.014 A 
ATOM     20  C   UNL     1       7.009  -2.859  -4.850  0.00  0.00    +0.011 A 
ATOM     21  C   UNL     1       7.489  -3.610  -5.903  0.00  0.00    +0.001 A 
ATOM     22  C   UNL     1       7.678  -4.973  -5.755  0.00  0.00    +0.000 A 
ATOM     23  C   UNL     1       7.388  -5.592  -4.552  0.00  0.00    +0.001 A 
ATOM     24  C   UNL     1       6.913  -4.851  -3.489  0.00  0.00    +0.011 A 
ENDBRANCH  10  19
BRANCH   3  25
ATOM     25  C   UNL     1       7.138  -0.019  -0.352  0.00  0.00    +0.056 A 
ATOM     26  C   UNL     1       8.254  -0.547  -0.993  0.00  0.00    +0.025 A 
ATOM     27  C   UNL     1       9.362   0.247  -1.209  0.00  0.00    +0.002 A 
ATOM     28  C   UNL     1       9.364   1.565  -0.790  0.00  0.00    +0.000 A 
ATOM     29  C   UNL     1       8.257   2.093  -0.152  0.00  0.00    +0.002 A 
ATOM     30  C   UNL     1       7.141   1.308   0.062  0.00  0.00    +0.025 A 
ENDBRANCH   3  25
BRANCH  11  31
ATOM     31  N   UNL     1       4.770  -1.569  -3.986  0.00  0.00    -0.259 N 
ATOM     32  H   UNL     1       5.003  -2.182  -4.701  0.00  0.00    +0.172 HD
BRANCH  31  33
ATOM     33  C   UNL     1       3.879  -0.524  -4.226  0.00  0.00    +0.046 A 
ATOM     34  C   UNL     1       3.549   0.359  -3.204  0.00  0.00    +0.024 A 
ATOM     35  C   UNL     1       2.666   1.392  -3.446  0.00  0.00    +0.002 A 
ATOM     36  C   UNL     1       2.109   1.549  -4.702  0.00  0.00    +0.000 A 
ATOM     37  C   UNL     1       2.434   0.672  -5.721  0.00  0.00    +0.002 A 
ATOM     38  C   UNL     1       3.321  -0.360  -5.489  0.00  0.00    +0.024 A 
ENDBRANCH  31  33
ENDBRANCH  11  31
TORSDOF 5
