REMARK  Name = ZINC39344909
REMARK  8 active torsions:
REMARK  status: ('A' for Active; 'I' for Inactive)
REMARK    1  A    between atoms: C_1  and  C_2
REMARK    2  A    between atoms: C_2  and  C_4
REMARK    3  A    between atoms: C_2  and  N_11
REMARK    4  A    between atoms: C_12  and  C_14
REMARK    5  A    between atoms: C_16  and  C_30
REMARK    6  A    between atoms: C_18  and  S_20
REMARK    7  A    between atoms: S_20  and  N_23
REMARK    8  A    between atoms: N_23  and  C_24
REMARK                            x       y       z     vdW  Elec       q    Type
REMARK                         _______ _______ _______ _____ _____    ______ ____
ROOT
ATOM      1  C   UNL     1       0.698  -1.085  -3.575  0.00  0.00    +0.039 A 
ATOM      2  C   UNL     1      -0.004  -1.217  -4.774  0.00  0.00    +0.019 A 
ATOM      3  C   UNL     1       0.648  -1.662  -5.906  0.00  0.00    -0.017 A 
ATOM      4  C   UNL     1       1.994  -1.978  -5.853  0.00  0.00    +0.034 A 
ATOM      5  C   UNL     1       2.696  -1.849  -4.668  0.00  0.00    +0.106 A 
ATOM      6  C   UNL     1       2.057  -1.400  -3.530  0.00  0.00    +0.041 A 
ENDROOT
BRANCH   3   7
ATOM      7  C   UNL     1      -0.108  -1.805  -7.202  0.00  0.00    +0.153 C 
ATOM      8  C   UNL     1      -0.312  -0.450  -7.856  0.00  0.00    +0.025 C 
ATOM      9  C   UNL     1      -1.639  -0.311  -7.899  0.00  0.00    +0.130 C 
ATOM     10  N   UNL     1      -2.252  -1.390  -7.364  0.00  0.00    -0.186 NA
ATOM     11  N   UNL     1      -1.484  -2.268  -6.954  0.00  0.00    -0.298 N 
ATOM     12  H   UNL     1      -1.738  -3.110  -6.543  0.00  0.00    +0.183 HD
ENDBRANCH   3   7
BRANCH   1  14
ATOM     13  N   UNL     1       0.688  -0.476  -1.203  0.00  0.00    -0.305 N 
ATOM     14  C   UNL     1       0.006  -0.608  -2.358  0.00  0.00    +0.245 C 
ATOM     15  O   UNL     1      -1.177  -0.335  -2.400  0.00  0.00    -0.270 OA
ATOM     16  H   UNL     1       1.632  -0.695  -1.170  0.00  0.00    +0.150 HD
BRANCH  13  18
ATOM     17  C   UNL     1      -0.019   1.526   0.010  0.00  0.00    +0.033 C 
ATOM     18  C   UNL     1       0.002  -0.004   0.002  0.00  0.00    +0.100 C 
BRANCH  18  19
ATOM     19  C   UNL     1       0.731  -0.503   1.223  0.00  0.00    -0.027 A 
ATOM     20  C   UNL     1       2.113  -0.513   1.246  0.00  0.00    +0.008 A 
ATOM     21  C   UNL     1       2.783  -0.971   2.365  0.00  0.00    +0.038 A 
ATOM     22  C   UNL     1       2.068  -1.419   3.464  0.00  0.00    +0.123 A 
ATOM     23  C   UNL     1       0.684  -1.408   3.439  0.00  0.00    +0.038 A 
ATOM     24  C   UNL     1       0.017  -0.945   2.321  0.00  0.00    +0.008 A 
ATOM     25  F   UNL     1       2.722  -1.866   4.558  0.00  0.00    -0.205 F 
ENDBRANCH  18  19
ENDBRANCH  13  18
ENDBRANCH   1  14
BRANCH   5  26
ATOM     26  S   UNL     1       4.410  -2.254  -4.612  0.00  0.00    +0.059 S 
ATOM     27  O   UNL     1       4.708  -2.569  -3.259  0.00  0.00    -0.153 OA
ATOM     28  O   UNL     1       4.646  -3.166  -5.676  0.00  0.00    -0.153 OA
BRANCH  26  29
ATOM     29  N   UNL     1       5.251  -0.875  -4.974  0.00  0.00    -0.187 NA
ATOM     30  H   UNL     1       5.784  -0.830  -5.783  0.00  0.00    +0.148 HD
BRANCH  29  31
ATOM     31  C   UNL     1       5.190   0.278  -4.072  0.00  0.00    +0.077 C 
ATOM     32  C   UNL     1       4.109   1.247  -4.556  0.00  0.00    +0.020 C 
ATOM     33  C   UNL     1       4.046   2.452  -3.614  0.00  0.00    +0.002 C 
ATOM     34  C   UNL     1       5.401   3.163  -3.603  0.00  0.00    +0.000 C 
ATOM     35  C   UNL     1       6.482   2.193  -3.120  0.00  0.00    +0.002 C 
ATOM     36  C   UNL     1       6.545   0.989  -4.062  0.00  0.00    +0.020 C 
ENDBRANCH  29  31
ENDBRANCH  26  29
ENDBRANCH   5  26
TORSDOF 7
