REMARK  Name = ZINC39325027
REMARK  7 active torsions:
REMARK  status: ('A' for Active; 'I' for Inactive)
REMARK    1  A    between atoms: C_1  and  C_2
REMARK    2  A    between atoms: C_2  and  C_3
REMARK    3  A    between atoms: C_10  and  C_15
REMARK    4  A    between atoms: C_15  and  N_16
REMARK    5  A    between atoms: N_16  and  C_17
REMARK    6  A    between atoms: N_16  and  S_23
REMARK    7  A    between atoms: S_23  and  C_26
REMARK                            x       y       z     vdW  Elec       q    Type
REMARK                         _______ _______ _______ _____ _____    ______ ____
ROOT
ATOM      1  N   UNL     1      -7.213  -3.748  -3.380  0.00  0.00    -0.172 NA
ENDROOT
BRANCH   1   2
ATOM      2  C   UNL     1      -8.043  -3.092  -4.394  0.00  0.00    +0.080 C 
ATOM      3  C   UNL     1      -7.750  -3.703  -5.766  0.00  0.00    +0.020 C 
ATOM      4  C   UNL     1      -8.616  -3.018  -6.824  0.00  0.00    +0.002 C 
ATOM      5  C   UNL     1      -8.298  -1.521  -6.854  0.00  0.00    +0.000 C 
ATOM      6  C   UNL     1      -8.591  -0.911  -5.482  0.00  0.00    +0.002 C 
ATOM      7  C   UNL     1      -7.724  -1.596  -4.423  0.00  0.00    +0.020 C 
ENDBRANCH   1   2
BRANCH   1   8
ATOM      8  S   UNL     1      -7.918  -4.417  -2.039  0.00  0.00    +0.062 S 
ATOM      9  O   UNL     1      -9.117  -5.040  -2.479  0.00  0.00    -0.153 OA
ATOM     10  O   UNL     1      -6.896  -5.129  -1.355  0.00  0.00    -0.153 OA
BRANCH   8  11
ATOM     11  C   UNL     1      -8.399  -3.089  -0.986  0.00  0.00    +0.119 A 
ATOM     12  C   UNL     1      -9.738  -2.791  -0.816  0.00  0.00    +0.029 A 
ATOM     13  C   UNL     1     -10.115  -1.750   0.011  0.00  0.00    +0.002 A 
ATOM     14  C   UNL     1      -9.153  -1.005   0.668  0.00  0.00    +0.001 A 
ATOM     15  C   UNL     1      -7.814  -1.302   0.499  0.00  0.00    +0.017 A 
ATOM     16  C   UNL     1      -7.436  -2.348  -0.324  0.00  0.00    +0.044 A 
ATOM     17 BR   UNL     1      -5.605  -2.760  -0.551  0.00  0.00    -0.048 Br
ENDBRANCH   8  11
ENDBRANCH   1   8
BRANCH   1  18
ATOM     18  C   UNL     1      -5.760  -3.812  -3.552  0.00  0.00    +0.126 C 
BRANCH  18  26
ATOM     19  C   UNL     1      -1.621  -6.774  -6.407  0.00  0.00    -0.047 A 
ATOM     20  C   UNL     1      -2.565  -7.416  -7.207  0.00  0.00    +0.005 A 
ATOM     21  C   UNL     1      -3.897  -7.383  -6.940  0.00  0.00    +0.024 A 
ATOM     22  C   UNL     1      -4.383  -6.683  -5.821  0.00  0.00    +0.040 A 
ATOM     23  N   UNL     1      -5.692  -6.658  -5.568  0.00  0.00    -0.284 N 
ATOM     24  C   UNL     1      -6.216  -6.020  -4.535  0.00  0.00    +0.225 C 
ATOM     25  O   UNL     1      -7.419  -6.032  -4.355  0.00  0.00    -0.275 OA
ATOM     26  C   UNL     1      -5.313  -5.275  -3.577  0.00  0.00    +0.114 C 
ATOM     27  C   UNL     1      -3.824  -5.302  -3.859  0.00  0.00    -0.003 C 
ATOM     28  C   UNL     1      -3.408  -5.995  -4.957  0.00  0.00    -0.007 A 
ATOM     29  C   UNL     1      -1.988  -6.076  -5.301  0.00  0.00    +0.013 A 
ATOM     30  H   UNL     1      -6.288  -7.129  -6.170  0.00  0.00    +0.155 HD
BRANCH  19  32
ATOM     31  C   UNL     1       0.461  -8.085  -6.100  0.00  0.00    +0.009 C 
ATOM     32  C   UNL     1      -0.161  -6.861  -6.773  0.00  0.00    +0.032 C 
ENDBRANCH  19  32
ENDBRANCH  18  26
ENDBRANCH   1  18
TORSDOF 6
