REMARK  Name = ZINC56552571
REMARK  5 active torsions:
REMARK  status: ('A' for Active; 'I' for Inactive)
REMARK    1  A    between atoms: C_1  and  C_2
REMARK    2  A    between atoms: N_11  and  C_15
REMARK    3  A    between atoms: C_15  and  N_16
REMARK    4  A    between atoms: N_16  and  C_17
REMARK    5  A    between atoms: N_16  and  C_18
REMARK                            x       y       z     vdW  Elec       q    Type
REMARK                         _______ _______ _______ _____ _____    ______ ____
ROOT
ATOM      1  C   UNL     1      -0.049   1.395   0.141  0.00  0.00    +0.010 C 
ATOM      2  C   UNL     1       0.078  -0.127   0.046  0.00  0.00    +0.018 C 
ATOM      3  C   UNL     1      -1.314  -0.760   0.108  0.00  0.00    +0.006 C 
ATOM      4  C   UNL     1      -1.184  -2.283   0.034  0.00  0.00    +0.000 C 
ATOM      5  C   UNL     1      -0.351  -2.785   1.215  0.00  0.00    +0.003 C 
ATOM      6  C   UNL     1       1.045  -2.158   1.156  0.00  0.00    +0.035 C 
ATOM      7  C   UNL     1       0.924  -0.639   1.206  0.00  0.00    +0.115 C 
ATOM      8  C   UNL     1       2.293   0.000   1.185  0.00  0.00    +0.248 C 
ATOM      9  O   UNL     1       3.127  -0.081   0.309  0.00  0.00    -0.273 OA
ATOM     10  N   UNL     1       2.391   0.681   2.345  0.00  0.00    -0.211 N 
ATOM     11  C   UNL     1       1.282   0.558   3.084  0.00  0.00    +0.310 C 
ATOM     12  O   UNL     1       1.132   1.081   4.171  0.00  0.00    -0.252 OA
ATOM     13  N   UNL     1       0.350  -0.211   2.489  0.00  0.00    -0.285 N 
ATOM     14  H   UNL     1      -0.526  -0.437   2.837  0.00  0.00    +0.151 HD
ENDROOT
BRANCH  10  15
ATOM     15  C   UNL     1       3.566   1.459   2.747  0.00  0.00    +0.205 C 
BRANCH  15  16
ATOM     16  N   UNL     1       3.425   2.841   2.268  0.00  0.00    -0.287 NA
ATOM     17  C   UNL     1       3.901   2.969   0.884  0.00  0.00    +0.106 C 
BRANCH  16  18
ATOM     18  C   UNL     1       4.127   3.779   3.154  0.00  0.00    +0.058 C 
ATOM     19  C   UNL     1       3.784   5.215   2.751  0.00  0.00    +0.019 C 
ATOM     20  C   UNL     1       4.514   6.192   3.674  0.00  0.00    +0.002 C 
ATOM     21  C   UNL     1       6.024   5.975   3.554  0.00  0.00    +0.000 C 
ATOM     22  C   UNL     1       6.367   4.540   3.957  0.00  0.00    +0.002 C 
ATOM     23  C   UNL     1       5.637   3.562   3.034  0.00  0.00    +0.019 C 
ENDBRANCH  16  18
ENDBRANCH  15  16
ENDBRANCH  10  15
TORSDOF 3
