REMARK  Name = ZINC06408979
REMARK  10 active torsions:
REMARK  status: ('A' for Active; 'I' for Inactive)
REMARK    1  A    between atoms: C_1  and  C_2
REMARK    2  A    between atoms: C_9  and  C_14
REMARK    3  A    between atoms: C_14  and  C_16
REMARK    4  A    between atoms: C_14  and  N_69
REMARK    5  A    between atoms: N_20  and  C_21
REMARK    6  A    between atoms: C_21  and  C_22
REMARK    7  A    between atoms: C_21  and  C_23
REMARK    8  A    between atoms: C_21  and  C_24
REMARK    9  A    between atoms: C_27  and  C_30
REMARK   10  A    between atoms: C_30  and  C_31
REMARK                            x       y       z     vdW  Elec       q    Type
REMARK                         _______ _______ _______ _____ _____    ______ ____
ROOT
ATOM      1  C   UNL     1       2.290   1.139   0.189  0.00  0.00    +0.039 C 
ENDROOT
BRANCH   1  10
ATOM      2  C   UNL     1      -1.603   5.645   4.678  0.00  0.00    +0.044 C 
ATOM      3  C   UNL     1      -1.431   4.930   3.364  0.00  0.00    -0.050 A 
ATOM      4  C   UNL     1      -2.393   5.069   2.373  0.00  0.00    +0.005 A 
ATOM      5  C   UNL     1      -2.251   4.430   1.160  0.00  0.00    +0.026 A 
ATOM      6  C   UNL     1      -1.139   3.627   0.928  0.00  0.00    +0.049 A 
ATOM      7  C   UNL     1      -0.167   3.486   1.937  0.00  0.00    -0.001 A 
ATOM      8  C   UNL     1      -0.328   4.150   3.157  0.00  0.00    +0.013 A 
ATOM      9  C   UNL     1       1.002   2.642   1.682  0.00  0.00    +0.017 A 
ATOM     10  C   UNL     1       1.101   2.018   0.482  0.00  0.00    +0.011 A 
ATOM     11  C   UNL     1       0.097   2.190  -0.494  0.00  0.00    +0.251 A 
ATOM     12  O   UNL     1       0.206   1.620  -1.566  0.00  0.00    -0.268 OA
ATOM     13  N   UNL     1      -0.978   2.966  -0.271  0.00  0.00    -0.322 N 
ATOM     14  H   UNL     1      -1.651   3.062  -0.964  0.00  0.00    +0.169 HD
ENDBRANCH   1  10
BRANCH   1  20
ATOM     15  C   UNL     1       3.275   3.031  -0.955  0.00  0.00    -0.077 C 
ATOM     16  C   UNL     1       3.827   3.510  -2.299  0.00  0.00    -0.015 C 
ATOM     17  C   UNL     1       5.081   2.703  -2.647  0.00  0.00    -0.010 C 
ATOM     18  C   UNL     1       4.727   1.213  -2.680  0.00  0.00    -0.015 C 
ATOM     19  C   UNL     1       4.149   0.801  -1.324  0.00  0.00    -0.077 C 
ATOM     20  N   UNL     1       2.931   1.597  -1.060  0.00  0.00    +0.389 N 
ATOM     21  H   UNL     1       2.274   1.469  -1.839  0.00  0.00    -0.080 HD
BRANCH  17  22
ATOM     22  C   UNL     1       5.603   3.135  -4.018  0.00  0.00    +0.038 C 
BRANCH  22  23
ATOM     23  C   UNL     1       6.066   4.567  -3.951  0.00  0.00    -0.047 A 
ATOM     24  C   UNL     1       5.182   5.593  -4.228  0.00  0.00    +0.003 A 
ATOM     25  C   UNL     1       5.605   6.907  -4.162  0.00  0.00    +0.000 A 
ATOM     26  C   UNL     1       6.915   7.196  -3.829  0.00  0.00    +0.000 A 
ATOM     27  C   UNL     1       7.801   6.170  -3.557  0.00  0.00    +0.000 A 
ATOM     28  C   UNL     1       7.377   4.856  -3.619  0.00  0.00    +0.003 A 
ENDBRANCH  22  23
ENDBRANCH  17  22
ENDBRANCH   1  20
BRANCH   1  29
ATOM     29  C   UNL     1       3.261   1.208   1.340  0.00  0.00    +0.143 A 
ATOM     30  N   UNL     1       4.040   2.216   1.646  0.00  0.00    -0.115 NA
ATOM     31  N   UNL     1       4.719   1.890   2.692  0.00  0.00    -0.023 NA
ATOM     32  N   UNL     1       4.392   0.701   3.061  0.00  0.00    -0.043 NA
ATOM     33  N   UNL     1       3.492   0.248   2.255  0.00  0.00    -0.225 N 
BRANCH  33  34
ATOM     34  C   UNL     1       2.846  -1.065   2.321  0.00  0.00    +0.059 C 
ATOM     35  C   UNL     1       3.209  -1.876   1.076  0.00  0.00    +0.036 C 
ATOM     36  C   UNL     1       3.324  -1.807   3.571  0.00  0.00    +0.036 C 
ATOM     37  C   UNL     1       1.328  -0.883   2.386  0.00  0.00    +0.036 C 
ENDBRANCH  33  34
ENDBRANCH   1  29
TORSDOF 6
