REMARK  Name = ZINC12497457
REMARK  10 active torsions:
REMARK  status: ('A' for Active; 'I' for Inactive)
REMARK    1  A    between atoms: C_1  and  C_2
REMARK    2  A    between atoms: C_5  and  N_8
REMARK    3  A    between atoms: C_13  and  C_28
REMARK    4  A    between atoms: C_15  and  C_20
REMARK    5  A    between atoms: C_15  and  C_24
REMARK    6  A    between atoms: C_20  and  C_21
REMARK    7  A    between atoms: C_21  and  S_22
REMARK    8  A    between atoms: S_22  and  C_23
REMARK    9  A    between atoms: C_24  and  O_26
REMARK   10  A    between atoms: O_26  and  C_27
REMARK                            x       y       z     vdW  Elec       q    Type
REMARK                         _______ _______ _______ _____ _____    ______ ____
ROOT
ATOM      1  N   UNL     1      -2.390   0.832   0.137  0.00  0.00    -0.210 N 
ATOM      2  C   UNL     1      -2.540  -0.533   0.131  0.00  0.00    +0.229 C 
ATOM      3  O   UNL     1      -1.685  -1.370  -0.064  0.00  0.00    -0.275 OA
ATOM      4  C   UNL     1      -3.938  -0.750   0.406  0.00  0.00    +0.077 C 
ATOM      5  C   UNL     1      -4.979  -1.783   0.283  0.00  0.00    -0.027 C 
ATOM      6  C   UNL     1      -5.957   0.431   0.379  0.00  0.00    +0.044 C 
ATOM      7  C   UNL     1      -4.605   0.477  -0.334  0.00  0.00    +0.086 C 
ATOM      8  C   UNL     1      -3.584   1.495   0.108  0.00  0.00    +0.229 C 
ATOM      9  O   UNL     1      -3.781   2.659   0.381  0.00  0.00    -0.275 OA
ATOM     10  N   UNL     1      -6.215  -1.012   0.628  0.00  0.00    +0.395 N 
ATOM     11  H   UNL     1      -6.449  -1.156   1.617  0.00  0.00    -0.083 HD
ATOM     12  H   UNL     1      -6.996  -1.330   0.041  0.00  0.00    -0.083 HD
ENDROOT
BRANCH   1  17
ATOM     13  C   UNL     1       2.649   3.441   0.275  0.00  0.00    +0.044 C 
ATOM     14  C   UNL     1       1.311   2.748   0.241  0.00  0.00    -0.050 A 
ATOM     15  C   UNL     1       1.249   1.367   0.237  0.00  0.00    +0.005 A 
ATOM     16  C   UNL     1       0.024   0.729   0.207  0.00  0.00    +0.024 A 
ATOM     17  C   UNL     1      -1.145   1.476   0.174  0.00  0.00    +0.044 A 
ATOM     18  C   UNL     1      -1.080   2.863   0.185  0.00  0.00    +0.024 A 
ATOM     19  C   UNL     1       0.147   3.495   0.215  0.00  0.00    +0.005 A 
ENDBRANCH   1  17
BRANCH   5  20
ATOM     20  C   UNL     1      -4.745  -2.902   1.265  0.00  0.00    -0.061 A 
ATOM     21  C   UNL     1      -5.117  -2.751   2.587  0.00  0.00    +0.003 A 
ATOM     22  C   UNL     1      -4.907  -3.779   3.487  0.00  0.00    +0.020 A 
ATOM     23  C   UNL     1      -4.314  -4.956   3.065  0.00  0.00    +0.041 A 
ATOM     24  C   UNL     1      -3.937  -5.105   1.743  0.00  0.00    +0.020 A 
ATOM     25  C   UNL     1      -4.152  -4.078   0.843  0.00  0.00    +0.003 A 
ATOM     26 CL   UNL     1      -4.044  -6.245   4.196  0.00  0.00    -0.084 Cl
ENDBRANCH   5  20
BRANCH   6  27
ATOM     27  C   UNL     1      -5.885   1.185   1.682  0.00  0.00    +0.297 C 
ATOM     28  O   UNL     1      -6.213   2.347   1.726  0.00  0.00    -0.252 OA
BRANCH  27  29
ATOM     29  O   UNL     1      -5.458   0.565   2.793  0.00  0.00    -0.469 OA
ATOM     30  C   UNL     1      -5.415   1.353   4.012  0.00  0.00    +0.280 C 
ENDBRANCH  27  29
ENDBRANCH   6  27
BRANCH   6  31
ATOM     31  C   UNL     1      -7.048   1.023  -0.515  0.00  0.00    +0.010 C 
BRANCH  31  32
ATOM     32  C   UNL     1      -8.392   0.968   0.215  0.00  0.00    +0.068 C 
BRANCH  32  33
ATOM     33  S   UNL     1      -9.685   1.671  -0.845  0.00  0.00    -0.164 S 
ATOM     34  C   UNL     1     -11.194   1.533   0.153  0.00  0.00    +0.084 C 
ENDBRANCH  32  33
ENDBRANCH  31  32
ENDBRANCH   6  31
TORSDOF 7
