REMARK  Name = ZINC07873307
REMARK  9 active torsions:
REMARK  status: ('A' for Active; 'I' for Inactive)
REMARK    1  A    between atoms: C_1  and  C_2
REMARK    2  A    between atoms: C_2  and  O_3
REMARK    3  A    between atoms: O_3  and  C_4
REMARK    4  A    between atoms: C_9  and  O_10
REMARK    5  A    between atoms: O_10  and  C_11
REMARK    6  A    between atoms: C_11  and  C_12
REMARK    7  A    between atoms: N_14  and  C_17
REMARK    8  A    between atoms: C_17  and  C_19
REMARK    9  A    between atoms: C_17  and  C_20
REMARK                            x       y       z     vdW  Elec       q    Type
REMARK                         _______ _______ _______ _____ _____    ______ ____
ROOT
ATOM      1  C   UNL     1       0.777  -1.811  -1.336  0.00  0.00    +0.162 A 
ATOM      2  C   UNL     1       0.245  -2.670  -0.390  0.00  0.00    +0.053 A 
ATOM      3  C   UNL     1       0.350  -4.042  -0.553  0.00  0.00    -0.044 A 
ATOM      4  C   UNL     1       0.985  -4.559  -1.663  0.00  0.00    -0.057 A 
ATOM      5  C   UNL     1       1.522  -3.703  -2.612  0.00  0.00    +0.051 A 
ATOM      6  C   UNL     1       1.416  -2.332  -2.458  0.00  0.00    +0.162 A 
ATOM      7  C   UNL     1       1.113  -6.044  -1.882  0.00  0.00    -0.042 C 
ATOM      8  N   UNL     1       0.902  -6.771  -0.626  0.00  0.00    +0.390 N 
ATOM      9  C   UNL     1      -0.385  -6.361  -0.045  0.00  0.00    -0.073 C 
ATOM     10  C   UNL     1      -0.241  -4.941   0.504  0.00  0.00    +0.017 C 
ATOM     11  H   UNL     1       1.648  -6.555   0.018  0.00  0.00    -0.080 HD
ENDROOT
BRANCH   8  12
ATOM     12  C   UNL     1       0.883  -8.216  -0.892  0.00  0.00    +0.017 C 
ATOM     13  C   UNL     1       2.219  -8.639  -1.508  0.00  0.00    -0.004 C 
BRANCH  12  14
ATOM     14  C   UNL     1       0.667  -8.961   0.400  0.00  0.00    +0.207 C 
ATOM     15  O   UNL     1       0.542  -8.350   1.439  0.00  0.00    -0.277 OA
ATOM     16  N   UNL     1       0.614 -10.308   0.400  0.00  0.00    -0.242 N 
ATOM     17  C   UNL     1       0.421 -10.975   1.555  0.00  0.00    +0.303 C 
ATOM     18  O   UNL     1       0.295 -10.362   2.596  0.00  0.00    -0.253 OA
ATOM     19  N   UNL     1       0.367 -12.322   1.555  0.00  0.00    -0.313 N 
ATOM     20  H   UNL     1       0.715 -10.797  -0.432  0.00  0.00    +0.159 HD
ATOM     21  H   UNL     1       0.468 -12.811   0.723  0.00  0.00    +0.146 HD
ATOM     22  H   UNL     1       0.229 -12.801   2.386  0.00  0.00    +0.146 HD
ENDBRANCH  12  14
ENDBRANCH   8  12
BRANCH   1  23
ATOM     23  O   UNL     1       0.671  -0.465  -1.174  0.00  0.00    -0.489 OA
BRANCH  23  25
ATOM     24  C   UNL     1      -0.019   1.526   0.010  0.00  0.00    +0.048 C 
ATOM     25  C   UNL     1       0.002  -0.004   0.002  0.00  0.00    +0.226 C 
ENDBRANCH  23  25
ENDBRANCH   1  23
BRANCH   6  26
ATOM     26  O   UNL     1       1.938  -1.496  -3.395  0.00  0.00    -0.489 OA
BRANCH  26  27
ATOM     27  C   UNL     1       2.579  -2.103  -4.519  0.00  0.00    +0.226 C 
ATOM     28  C   UNL     1       3.100  -1.013  -5.458  0.00  0.00    +0.048 C 
ENDBRANCH  26  27
ENDBRANCH   6  26
TORSDOF 6
