REMARK  Name = ZINC36500895
REMARK  15 active torsions:
REMARK  status: ('A' for Active; 'I' for Inactive)
REMARK    1  A    between atoms: C_1  and  C_2
REMARK    2  A    between atoms: C_2  and  C_3
REMARK    3  A    between atoms: C_2  and  C_4
REMARK    4  A    between atoms: C_2  and  N_5
REMARK    5  A    between atoms: C_6  and  C_8
REMARK    6  A    between atoms: C_8  and  C_10
REMARK    7  A    between atoms: C_8  and  N_19
REMARK    8  A    between atoms: C_13  and  N_16
REMARK    9  A    between atoms: N_16  and  C_17
REMARK   10  A    between atoms: N_16  and  C_18
REMARK   11  A    between atoms: N_19  and  C_20
REMARK   12  A    between atoms: C_20  and  C_21
REMARK   13  A    between atoms: C_26  and  C_28
REMARK   14  A    between atoms: C_32  and  O_35
REMARK   15  A    between atoms: C_33  and  O_34
REMARK                            x       y       z     vdW  Elec       q    Type
REMARK                         _______ _______ _______ _____ _____    ______ ____
ROOT
ATOM      1  N   UNL     1       3.447   0.828  -1.766  0.00  0.00    -0.275 N 
ATOM      2  C   UNL     1       4.679   0.638  -1.254  0.00  0.00    +0.252 C 
ATOM      3  O   UNL     1       4.861   0.731  -0.056  0.00  0.00    -0.270 OA
ENDROOT
BRANCH   2   4
ATOM      4  C   UNL     1       5.809   0.318  -2.148  0.00  0.00    +0.082 A 
ATOM      5  C   UNL     1       5.680  -0.690  -3.109  0.00  0.00    +0.017 A 
ATOM      6  C   UNL     1       6.736  -0.986  -3.942  0.00  0.00    +0.005 A 
ATOM      7  C   UNL     1       7.929  -0.290  -3.834  0.00  0.00    +0.049 A 
ATOM      8  C   UNL     1       8.072   0.711  -2.888  0.00  0.00    +0.159 A 
ATOM      9  C   UNL     1       7.012   1.025  -2.043  0.00  0.00    +0.171 A 
BRANCH   9  10
ATOM     10  O   UNL     1       7.146   2.009  -1.118  0.00  0.00    -0.503 OA
ATOM     11  H   UNL     1       7.481   1.703  -0.264  0.00  0.00    +0.292 HD
ENDBRANCH   9  10
BRANCH   8  12
ATOM     12  O   UNL     1       9.246   1.389  -2.788  0.00  0.00    -0.503 OA
ATOM     13  H   UNL     1       9.292   2.180  -3.343  0.00  0.00    +0.292 HD
ENDBRANCH   8  12
ENDBRANCH   2   4
BRANCH   1  14
ATOM     14  C   UNL     1       3.204   0.600  -3.193  0.00  0.00    +0.193 C 
BRANCH  14  15
ATOM     15  C   UNL     1       2.193  -0.505  -3.360  0.00  0.00    -0.018 A 
ATOM     16  C   UNL     1       1.741  -1.199  -2.252  0.00  0.00    +0.008 A 
ATOM     17  C   UNL     1       0.815  -2.213  -2.401  0.00  0.00    +0.023 A 
ATOM     18  C   UNL     1       0.337  -2.534  -3.666  0.00  0.00    +0.029 A 
ATOM     19  C   UNL     1       0.793  -1.835  -4.776  0.00  0.00    +0.023 A 
ATOM     20  C   UNL     1       1.715  -0.819  -4.619  0.00  0.00    +0.008 A 
BRANCH  18  21
ATOM     21  N   UNL     1      -0.600  -3.559  -3.820  0.00  0.00    -0.336 N 
ATOM     22  C   UNL     1      -1.150  -4.232  -2.641  0.00  0.00    +0.129 C 
ATOM     23  C   UNL     1      -1.032  -3.960  -5.161  0.00  0.00    +0.129 C 
ENDBRANCH  18  21
ENDBRANCH  14  15
BRANCH  14  25
ATOM     24  N   UNL     1       2.974   2.156  -5.101  0.00  0.00    -0.309 N 
ATOM     25  C   UNL     1       2.675   1.864  -3.821  0.00  0.00    +0.239 C 
ATOM     26  O   UNL     1       1.979   2.617  -3.173  0.00  0.00    -0.273 OA
ATOM     27  H   UNL     1       3.449   1.511  -5.648  0.00  0.00    +0.149 HD
BRANCH  24  29
ATOM     28  C   UNL     1       3.119   4.577  -4.785  0.00  0.00    +0.031 C 
ATOM     29  C   UNL     1       2.582   3.449  -5.668  0.00  0.00    +0.026 C 
ATOM     30  C   UNL     1       1.056   3.535  -5.735  0.00  0.00    +0.031 C 
ATOM     31  C   UNL     1       3.162   3.585  -7.077  0.00  0.00    +0.031 C 
ENDBRANCH  24  29
ENDBRANCH  14  25
ENDBRANCH   1  14
BRANCH   1  32
ATOM     32  C   UNL     1       2.351   1.262  -0.896  0.00  0.00    +0.183 C 
BRANCH  32  33
ATOM     33  C   UNL     1       2.646   2.643  -0.369  0.00  0.00    +0.122 A 
ATOM     34  C   UNL     1       1.837   3.713  -0.472  0.00  0.00    +0.046 A 
ATOM     35  C   UNL     1       2.503   4.791   0.155  0.00  0.00    +0.041 A 
ATOM     36  C   UNL     1       3.678   4.316   0.603  0.00  0.00    +0.195 A 
ATOM     37  O   UNL     1       3.757   3.012   0.288  0.00  0.00    -0.466 OA
ENDBRANCH  32  33
ENDBRANCH   1  32
TORSDOF 10
