REMARK  Name = ZINC35931340
REMARK  15 active torsions:
REMARK  status: ('A' for Active; 'I' for Inactive)
REMARK    1  A    between atoms: C_1  and  C_2
REMARK    2  A    between atoms: C_2  and  C_3
REMARK    3  A    between atoms: C_2  and  C_4
REMARK    4  A    between atoms: C_4  and  N_5
REMARK    5  A    between atoms: N_5  and  C_6
REMARK    6  A    between atoms: C_6  and  C_7
REMARK    7  A    between atoms: N_10  and  C_12
REMARK    8  A    between atoms: C_15  and  O_18
REMARK    9  A    between atoms: O_18  and  C_19
REMARK   10  A    between atoms: N_22  and  C_24
REMARK   11  A    between atoms: C_24  and  C_25
REMARK   12  A    between atoms: C_32  and  C_34
REMARK   13  A    between atoms: C_34  and  C_35
REMARK   14  A    between atoms: C_34  and  C_36
REMARK   15  A    between atoms: C_34  and  C_37
REMARK                            x       y       z     vdW  Elec       q    Type
REMARK                         _______ _______ _______ _____ _____    ______ ____
ROOT
ATOM      1  C   UNL     1      -1.435  -2.705   2.143  0.00  0.00    +0.082 A 
ATOM      2  C   UNL     1      -1.605  -1.612   2.986  0.00  0.00    -0.018 A 
ATOM      3  C   UNL     1      -2.890  -1.624   3.433  0.00  0.00    +0.045 A 
ATOM      4  N   UNL     1      -3.507  -2.684   2.889  0.00  0.00    -0.236 N 
ATOM      5  N   UNL     1      -2.576  -3.350   2.076  0.00  0.00    -0.169 NA
ATOM      6  C   UNL     1      -3.437  -0.586   4.382  0.00  0.00    +0.037 C 
ATOM      7  C   UNL     1      -2.243   0.158   4.997  0.00  0.00    -0.072 C 
ATOM      8  N   UNL     1      -1.330   0.595   3.932  0.00  0.00    +0.385 N 
ATOM      9  C   UNL     1      -0.601  -0.558   3.380  0.00  0.00    -0.039 C 
ATOM     10  H   UNL     1      -1.862   1.037   3.197  0.00  0.00    -0.081 HD
ENDROOT
BRANCH   4  11
ATOM     11  C   UNL     1      -4.845  -3.056   3.091  0.00  0.00    +0.066 A 
ATOM     12  C   UNL     1      -5.836  -2.086   3.137  0.00  0.00    +0.031 A 
ATOM     13  C   UNL     1      -7.152  -2.453   3.336  0.00  0.00    +0.048 A 
ATOM     14  C   UNL     1      -7.484  -3.792   3.489  0.00  0.00    +0.120 A 
ATOM     15  C   UNL     1      -6.493  -4.762   3.442  0.00  0.00    +0.048 A 
ATOM     16  C   UNL     1      -5.177  -4.396   3.238  0.00  0.00    +0.031 A 
BRANCH  14  17
ATOM     17  O   UNL     1      -8.780  -4.153   3.684  0.00  0.00    -0.495 OA
ATOM     18  C   UNL     1      -9.049  -5.548   3.834  0.00  0.00    +0.277 C 
ENDBRANCH  14  17
ENDBRANCH   4  11
BRANCH   1  19
ATOM     19  C   UNL     1      -0.164  -3.079   1.425  0.00  0.00    +0.165 C 
BRANCH  19  20
ATOM     20  N   UNL     1      -0.206  -2.562   0.055  0.00  0.00    -0.295 N 
ATOM     21  C   UNL     1      -0.736  -3.311  -0.932  0.00  0.00    +0.221 C 
ATOM     22  O   UNL     1      -1.068  -4.457  -0.712  0.00  0.00    -0.275 OA
BRANCH  21  23
ATOM     23  C   UNL     1      -0.916  -2.725  -2.309  0.00  0.00    +0.039 C 
ATOM     24  C   UNL     1      -1.451  -3.802  -3.255  0.00  0.00    +0.020 C 
ATOM     25  C   UNL     1      -1.911  -1.565  -2.243  0.00  0.00    +0.020 C 
ATOM     26  C   UNL     1       0.430  -2.214  -2.826  0.00  0.00    +0.020 C 
ENDBRANCH  21  23
BRANCH  20  27
ATOM     27  C   UNL     1       0.328  -1.231  -0.242  0.00  0.00    +0.111 C 
BRANCH  27  29
ATOM     28  C   UNL     1       2.385   0.055  -0.842  0.00  0.00    +0.009 C 
ATOM     29  C   UNL     1       1.830  -1.334  -0.519  0.00  0.00    +0.000 C 
ATOM     30  C   UNL     1       2.539  -1.892   0.717  0.00  0.00    +0.009 C 
ENDBRANCH  27  29
ENDBRANCH  20  27
ENDBRANCH  19  20
ENDBRANCH   1  19
BRANCH   8  31
ATOM     31  C   UNL     1      -0.369   1.561   4.481  0.00  0.00    -0.042 C 
BRANCH  31  32
ATOM     32  C   UNL     1      -1.100   2.805   4.917  0.00  0.00    -0.061 A 
ATOM     33  C   UNL     1      -1.290   3.843   4.025  0.00  0.00    +0.002 A 
ATOM     34  C   UNL     1      -1.960   4.985   4.423  0.00  0.00    +0.003 A 
ATOM     35  C   UNL     1      -2.441   5.089   5.715  0.00  0.00    +0.038 A 
ATOM     36  C   UNL     1      -2.252   4.050   6.609  0.00  0.00    +0.124 A 
ATOM     37  C   UNL     1      -1.585   2.904   6.207  0.00  0.00    +0.040 A 
ATOM     38  F   UNL     1      -2.721   4.151   7.872  0.00  0.00    -0.205 F 
ENDBRANCH  31  32
ENDBRANCH   8  31
TORSDOF 9
