REMARK  Name = ZINC00812876
REMARK  7 active torsions:
REMARK  status: ('A' for Active; 'I' for Inactive)
REMARK    1  A    between atoms: C_1  and  O_2
REMARK    2  A    between atoms: O_2  and  C_3
REMARK    3  A    between atoms: C_6  and  C_9
REMARK    4  A    between atoms: C_14  and  C_24
REMARK    5  A    between atoms: C_27  and  O_31
REMARK    6  A    between atoms: C_28  and  O_30
REMARK    7  A    between atoms: O_31  and  C_32
REMARK                            x       y       z     vdW  Elec       q    Type
REMARK                         _______ _______ _______ _____ _____    ______ ____
ROOT
ATOM      1  C   UNL     1       3.882   3.298  -1.800  0.00  0.00    +0.032 C 
ATOM      2  C   UNL     1       2.441   3.353  -1.297  0.00  0.00    +0.059 C 
ATOM      3  C   UNL     1       1.976   1.958  -0.909  0.00  0.00    +0.017 C 
ATOM      4  C   UNL     1       2.420   0.885  -1.581  0.00  0.00    +0.036 C 
ATOM      5  C   UNL     1       2.009  -0.548  -1.337  0.00  0.00    +0.136 C 
ATOM      6  N   UNL     1       1.262  -0.752  -0.113  0.00  0.00    -0.331 N 
ATOM      7  C   UNL     1       0.007  -0.178   0.067  0.00  0.00    +0.049 A 
ATOM      8  C   UNL     1      -1.137  -0.957   0.151  0.00  0.00    +0.025 A 
ATOM      9  C   UNL     1      -2.372  -0.342   0.266  0.00  0.00    +0.002 A 
ATOM     10  C   UNL     1      -2.469   1.037   0.297  0.00  0.00    +0.002 A 
ATOM     11  C   UNL     1      -1.327   1.818   0.232  0.00  0.00    +0.025 A 
ATOM     12  C   UNL     1      -0.091   1.204   0.135  0.00  0.00    +0.052 A 
ATOM     13  N   UNL     1       1.099   1.925   0.127  0.00  0.00    -0.316 N 
ATOM     14  C   UNL     1       3.363   1.036  -2.626  0.00  0.00    +0.163 C 
ATOM     15  O   UNL     1       3.738   0.047  -3.224  0.00  0.00    -0.292 OA
ATOM     16  C   UNL     1       3.916   2.372  -3.021  0.00  0.00    +0.088 C 
ATOM     17  H   UNL     1       1.643  -1.298   0.593  0.00  0.00    +0.147 HD
ATOM     18  H   UNL     1       1.318   2.441   0.919  0.00  0.00    +0.152 HD
ENDROOT
BRANCH   1  22
ATOM     19  C   UNL     1       5.177   7.215  -2.914  0.00  0.00    +0.120 A 
ATOM     20  C   UNL     1       5.847   6.519  -1.919  0.00  0.00    +0.046 A 
ATOM     21  C   UNL     1       5.426   5.253  -1.560  0.00  0.00    +0.007 A 
ATOM     22  C   UNL     1       4.339   4.679  -2.193  0.00  0.00    -0.043 A 
ATOM     23  C   UNL     1       3.673   5.369  -3.189  0.00  0.00    +0.007 A 
ATOM     24  C   UNL     1       4.086   6.637  -3.547  0.00  0.00    +0.046 A 
BRANCH  19  26
ATOM     25  C   UNL     1       4.852   9.118  -4.301  0.00  0.00    +0.277 C 
ATOM     26  O   UNL     1       5.589   8.461  -3.268  0.00  0.00    -0.495 OA
ENDBRANCH  19  26
ENDBRANCH   1  22
BRANCH   5  27
ATOM     27  C   UNL     1       1.163  -1.008  -2.496  0.00  0.00    -0.019 A 
ATOM     28  C   UNL     1       1.624  -2.008  -3.332  0.00  0.00    +0.009 A 
ATOM     29  C   UNL     1       0.849  -2.438  -4.394  0.00  0.00    +0.050 A 
ATOM     30  C   UNL     1      -0.387  -1.858  -4.628  0.00  0.00    +0.161 A 
ATOM     31  C   UNL     1      -0.849  -0.848  -3.789  0.00  0.00    +0.159 A 
ATOM     32  C   UNL     1      -0.070  -0.426  -2.724  0.00  0.00    +0.055 A 
BRANCH  31  33
ATOM     33  O   UNL     1      -2.062  -0.276  -4.015  0.00  0.00    -0.503 OA
ATOM     34  H   UNL     1      -2.031   0.494  -4.599  0.00  0.00    +0.292 HD
ENDBRANCH  31  33
BRANCH  30  35
ATOM     35  O   UNL     1      -1.148  -2.275  -5.675  0.00  0.00    -0.491 OA
ATOM     36  C   UNL     1      -0.610  -3.316  -6.494  0.00  0.00    +0.277 C 
ENDBRANCH  30  35
ENDBRANCH   5  27
TORSDOF 5
