REMARK  Name = ZINC60355022
REMARK  7 active torsions:
REMARK  status: ('A' for Active; 'I' for Inactive)
REMARK    1  A    between atoms: C_1  and  C_2
REMARK    2  A    between atoms: C_5  and  C_7
REMARK    3  A    between atoms: C_7  and  C_9
REMARK    4  A    between atoms: C_7  and  N_29
REMARK    5  A    between atoms: C_9  and  N_10
REMARK    6  A    between atoms: C_11  and  C_13
REMARK    7  A    between atoms: C_19  and  C_21
REMARK                            x       y       z     vdW  Elec       q    Type
REMARK                         _______ _______ _______ _____ _____    ______ ____
ROOT
ATOM      1  N   UNL     1       3.112  -4.774   1.360  0.00  0.00    -0.315 N 
ATOM      2  C   UNL     1       3.650  -5.236   2.506  0.00  0.00    +0.234 C 
ATOM      3  O   UNL     1       3.365  -4.715   3.563  0.00  0.00    -0.274 OA
ATOM      4  H   UNL     1       3.341  -5.190   0.514  0.00  0.00    +0.149 HD
ENDROOT
BRANCH   2   5
ATOM      5  C   UNL     1       4.606  -6.400   2.474  0.00  0.00    +0.162 C 
ATOM      6  C   UNL     1       5.855  -6.031   1.645  0.00  0.00    +0.033 C 
ATOM      7  C   UNL     1       6.879  -5.605   2.730  0.00  0.00    +0.021 C 
ATOM      8  C   UNL     1       6.530  -6.577   3.885  0.00  0.00    +0.109 C 
ATOM      9  N   UNL     1       5.060  -6.713   3.837  0.00  0.00    -0.286 N 
ATOM     10  C   UNL     1       4.266  -7.062   4.868  0.00  0.00    +0.247 C 
ATOM     11  O   UNL     1       3.058  -7.034   4.742  0.00  0.00    -0.270 OA
BRANCH  10  12
ATOM     12  C   UNL     1       4.865  -7.481   6.154  0.00  0.00    +0.040 A 
ATOM     13  C   UNL     1       4.134  -7.369   7.337  0.00  0.00    +0.033 A 
ATOM     14  C   UNL     1       4.699  -7.761   8.534  0.00  0.00    +0.043 A 
ATOM     15  C   UNL     1       5.988  -8.266   8.562  0.00  0.00    +0.040 A 
ATOM     16  C   UNL     1       6.718  -8.380   7.392  0.00  0.00    +0.043 A 
ATOM     17  C   UNL     1       6.162  -7.996   6.188  0.00  0.00    +0.033 A 
ATOM     18 CL   UNL     1       8.334  -9.012   7.437  0.00  0.00    -0.083 Cl
ATOM     19 CL   UNL     1       3.791  -7.621  10.007  0.00  0.00    -0.083 Cl
ENDBRANCH  10  12
ENDBRANCH   2   5
BRANCH   1  20
ATOM     20  C   UNL     1       2.183  -3.642   1.391  0.00  0.00    +0.096 C 
BRANCH  20  21
ATOM     21  C   UNL     1       1.627  -3.400  -0.013  0.00  0.00    +0.016 C 
BRANCH  21  26
ATOM     22  C   UNL     1      -2.058  -6.797  -0.577  0.00  0.00    +0.086 C 
ATOM     23  C   UNL     1      -0.731  -6.098  -0.717  0.00  0.00    +0.102 A 
ATOM     24  C   UNL     1       0.308  -6.522  -1.459  0.00  0.00    +0.044 A 
ATOM     25  C   UNL     1       1.340  -5.570  -1.301  0.00  0.00    +0.043 A 
ATOM     26  C   UNL     1       0.872  -4.620  -0.472  0.00  0.00    +0.093 A 
ATOM     27  O   UNL     1      -0.385  -4.943  -0.125  0.00  0.00    -0.466 OA
ENDBRANCH  21  26
BRANCH  21  28
ATOM     28  N   UNL     1       0.720  -2.244   0.012  0.00  0.00    +0.387 N 
ATOM     29  C   UNL     1       1.487  -0.997   0.265  0.00  0.00    -0.078 C 
ATOM     30  C   UNL     1       0.554   0.111  -0.286  0.00  0.00    -0.020 C 
ATOM     31  C   UNL     1      -0.062  -0.549  -1.541  0.00  0.00    -0.020 C 
ATOM     32  C   UNL     1       0.085  -2.065  -1.312  0.00  0.00    -0.078 C 
ATOM     33  H   UNL     1       0.014  -2.370   0.722  0.00  0.00    -0.081 HD
ENDBRANCH  21  28
ENDBRANCH  20  21
ENDBRANCH   1  20
TORSDOF 6
