REMARK  Name = ZINC12218694
REMARK  8 active torsions:
REMARK  status: ('A' for Active; 'I' for Inactive)
REMARK    1  A    between atoms: C_1  and  C_2
REMARK    2  A    between atoms: C_2  and  C_3
REMARK    3  A    between atoms: C_2  and  C_4
REMARK    4  A    between atoms: C_2  and  O_35
REMARK    5  A    between atoms: C_5  and  C_6
REMARK    6  A    between atoms: C_9  and  C_12
REMARK    7  A    between atoms: C_21  and  C_25
REMARK    8  A    between atoms: C_25  and  N_68
REMARK                            x       y       z     vdW  Elec       q    Type
REMARK                         _______ _______ _______ _____ _____    ______ ____
ROOT
ATOM      1  C   UNL     1       2.215  -1.305   2.069  0.00  0.00    +0.247 C 
ATOM      2  O   UNL     1       1.317  -2.120   2.158  0.00  0.00    -0.270 OA
ATOM      3  N   UNL     1       2.397  -0.626   0.919  0.00  0.00    -0.290 N 
ATOM      4  C   UNL     1       3.427   0.412   0.844  0.00  0.00    +0.149 C 
ATOM      5  C   UNL     1       2.810   1.782   0.601  0.00  0.00    +0.248 C 
ATOM      6  O   UNL     1       2.101   1.788  -0.644  0.00  0.00    -0.490 OA
ATOM      7  C   UNL     1       0.799   1.417  -0.583  0.00  0.00    +0.125 A 
ATOM      8  C   UNL     1      -0.205   2.364  -0.741  0.00  0.00    +0.046 A 
ATOM      9  C   UNL     1      -1.529   1.990  -0.621  0.00  0.00    +0.005 A 
ATOM     10  C   UNL     1      -1.863   0.677  -0.344  0.00  0.00    -0.063 A 
ATOM     11  C   UNL     1      -0.866  -0.273  -0.202  0.00  0.00    +0.010 A 
ATOM     12  C   UNL     1       0.452   0.097  -0.337  0.00  0.00    +0.012 A 
ATOM     13  C   UNL     1       1.563  -0.933  -0.247  0.00  0.00    +0.147 C 
ENDROOT
BRANCH   1  17
ATOM     14  C   UNL     1       4.780  -0.600   5.383  0.00  0.00    +0.025 A 
ATOM     15  C   UNL     1       4.127   0.470   4.766  0.00  0.00    +0.017 A 
ATOM     16  C   UNL     1       3.296   0.241   3.692  0.00  0.00    +0.014 A 
ATOM     17  C   UNL     1       3.106  -1.060   3.220  0.00  0.00    +0.037 A 
ATOM     18  C   UNL     1       3.755  -2.130   3.842  0.00  0.00    +0.014 A 
ATOM     19  C   UNL     1       4.591  -1.901   4.911  0.00  0.00    +0.017 A 
BRANCH  14  21
ATOM     20  C   UNL     1       6.353  -0.167   7.416  0.00  0.00    -0.063 C 
ATOM     21  C   UNL     1       5.644  -0.362   6.500  0.00  0.00    -0.063 C 
BRANCH  20  23
ATOM     22  C   UNL     1       7.825  -1.252   9.048  0.00  0.00    +0.055 C 
ATOM     23  C   UNL     1       7.241   0.077   8.563  0.00  0.00    +0.121 C 
ATOM     24  C   UNL     1       8.378   1.009   8.139  0.00  0.00    +0.055 C 
BRANCH  23  25
ATOM     25  O   UNL     1       6.497   0.684   9.621  0.00  0.00    -0.377 OA
ATOM     26  H   UNL     1       6.097   1.532   9.384  0.00  0.00    +0.211 HD
ENDBRANCH  23  25
ENDBRANCH  20  23
ENDBRANCH  14  21
ENDBRANCH   1  17
BRANCH  10  27
ATOM     27  C   UNL     1      -3.309   0.281  -0.198  0.00  0.00    -0.043 C 
BRANCH  27  37
ATOM     28  C   UNL     1      -5.051  -0.155   1.430  0.00  0.00    -0.073 C 
ATOM     29  C   UNL     1      -5.265  -0.315   2.935  0.00  0.00    +0.017 C 
ATOM     30  C   UNL     1      -4.943   0.977   3.640  0.00  0.00    -0.048 A 
ATOM     31  C   UNL     1      -5.400   1.155   4.937  0.00  0.00    +0.004 A 
ATOM     32  C   UNL     1      -5.123   2.321   5.621  0.00  0.00    +0.000 A 
ATOM     33  C   UNL     1      -4.386   3.318   5.010  0.00  0.00    +0.000 A 
ATOM     34  C   UNL     1      -3.931   3.143   3.718  0.00  0.00    +0.002 A 
ATOM     35  C   UNL     1      -4.210   1.972   3.029  0.00  0.00    -0.061 A 
ATOM     36  C   UNL     1      -3.696   1.829   1.621  0.00  0.00    -0.042 C 
ATOM     37  N   UNL     1      -3.703   0.411   1.223  0.00  0.00    +0.385 N 
ATOM     38  H   UNL     1      -3.031  -0.103   1.804  0.00  0.00    -0.081 HD
ENDBRANCH  27  37
ENDBRANCH  10  27
TORSDOF 6
