REMARK  Name = ZINC35279025
REMARK  13 active torsions:
REMARK  status: ('A' for Active; 'I' for Inactive)
REMARK    1  A    between atoms: C_1  and  C_2
REMARK    2  A    between atoms: C_2  and  C_3
REMARK    3  A    between atoms: C_3  and  O_4
REMARK    4  A    between atoms: O_4  and  C_5
REMARK    5  A    between atoms: C_9  and  C_11
REMARK    6  A    between atoms: C_11  and  C_12
REMARK    7  A    between atoms: C_13  and  C_25
REMARK    8  A    between atoms: N_15  and  C_20
REMARK    9  A    between atoms: C_20  and  C_21
REMARK   10  A    between atoms: C_21  and  C_22
REMARK   11  A    between atoms: C_22  and  O_23
REMARK   12  A    between atoms: O_23  and  C_24
REMARK   13  A    between atoms: C_29  and  N_31
REMARK                            x       y       z     vdW  Elec       q    Type
REMARK                         _______ _______ _______ _____ _____    ______ ____
ROOT
ATOM      1  C   UNL     1       2.695  -6.545  -4.767  0.00  0.00    +0.076 C 
ATOM      2  C   UNL     1       3.347  -5.780  -5.894  0.00  0.00    +0.145 C 
ATOM      3  N   UNL     1       3.799  -6.785  -6.864  0.00  0.00    -0.283 N 
ATOM      4  C   UNL     1       3.466  -7.998  -6.388  0.00  0.00    +0.288 C 
ATOM      5  O   UNL     1       3.695  -9.053  -6.945  0.00  0.00    -0.266 OA
ATOM      6  C   UNL     1       2.785  -7.859  -5.083  0.00  0.00    +0.249 C 
ATOM      7  O   UNL     1       2.323  -8.880  -4.326  0.00  0.00    -0.282 OA
ENDROOT
BRANCH   2   8
ATOM      8  C   UNL     1       2.348  -4.853  -6.537  0.00  0.00    -0.020 A 
ATOM      9  C   UNL     1       1.359  -5.364  -7.358  0.00  0.00    +0.006 A 
ATOM     10  C   UNL     1       0.443  -4.513  -7.947  0.00  0.00    +0.003 A 
ATOM     11  C   UNL     1       0.514  -3.152  -7.716  0.00  0.00    +0.033 A 
ATOM     12  C   UNL     1       1.502  -2.642  -6.895  0.00  0.00    +0.127 A 
ATOM     13  C   UNL     1       2.416  -3.493  -6.302  0.00  0.00    +0.038 A 
BRANCH  12  14
ATOM     14  N   UNL     1       1.579  -1.184  -6.647  0.00  0.00    +0.056 N 
ATOM     15  O   UNL     1       0.837  -0.432  -7.234  0.00  0.00    -0.126 OA
ATOM     16  O   UNL     1       2.384  -0.747  -5.859  0.00  0.00    -0.126 OA
ENDBRANCH  12  14
ENDBRANCH   2   8
BRANCH   1  17
ATOM     17  C   UNL     1       2.088  -5.976  -3.560  0.00  0.00    +0.195 C 
ATOM     18  O   UNL     1       0.891  -6.085  -3.372  0.00  0.00    -0.287 OA
BRANCH  17  23
ATOM     19  C   UNL     1       3.140  -4.001  -0.539  0.00  0.00    +0.121 A 
ATOM     20  C   UNL     1       4.516  -3.946  -0.721  0.00  0.00    +0.046 A 
ATOM     21  C   UNL     1       5.098  -4.548  -1.821  0.00  0.00    +0.004 A 
ATOM     22  C   UNL     1       4.315  -5.209  -2.746  0.00  0.00    +0.012 A 
ATOM     23  C   UNL     1       2.930  -5.270  -2.571  0.00  0.00    +0.026 A 
ATOM     24  C   UNL     1       2.346  -4.666  -1.456  0.00  0.00    +0.057 A 
BRANCH  19  25
ATOM     25  O   UNL     1       2.574  -3.407   0.545  0.00  0.00    -0.492 OA
BRANCH  25  26
ATOM     26  C   UNL     1       3.454  -2.738   1.451  0.00  0.00    +0.229 C 
BRANCH  26  28
ATOM     27  C   UNL     1       3.583  -1.420   3.570  0.00  0.00    +0.007 C 
ATOM     28  C   UNL     1       2.641  -2.136   2.599  0.00  0.00    +0.038 C 
ENDBRANCH  26  28
ENDBRANCH  25  26
ENDBRANCH  19  25
ENDBRANCH  17  23
ENDBRANCH   1  17
BRANCH   3  29
ATOM     29  C   UNL     1       4.491  -6.514  -8.127  0.00  0.00    +0.111 C 
BRANCH  29  30
ATOM     30  C   UNL     1       6.002  -6.503  -7.888  0.00  0.00    +0.047 C 
BRANCH  30  31
ATOM     31  C   UNL     1       6.724  -6.221  -9.207  0.00  0.00    +0.161 C 
BRANCH  31  32
ATOM     32  O   UNL     1       8.136  -6.210  -8.985  0.00  0.00    -0.383 OA
ATOM     33  C   UNL     1       8.907  -5.953 -10.160  0.00  0.00    +0.193 C 
ENDBRANCH  31  32
ENDBRANCH  30  31
ENDBRANCH  29  30
ENDBRANCH   3  29
TORSDOF 11
