REMARK  Name = ZINC39711106
REMARK  14 active torsions:
REMARK  status: ('A' for Active; 'I' for Inactive)
REMARK    1  A    between atoms: C_1  and  C_2
REMARK    2  A    between atoms: C_2  and  C_3
REMARK    3  A    between atoms: C_3  and  C_4
REMARK    4  A    between atoms: C_3  and  C_5
REMARK    5  A    between atoms: C_3  and  N_6
REMARK    6  A    between atoms: C_7  and  C_12
REMARK    7  A    between atoms: C_12  and  C_14
REMARK    8  A    between atoms: C_12  and  N_28
REMARK    9  A    between atoms: C_18  and  C_27
REMARK   10  A    between atoms: C_21  and  C_26
REMARK   11  A    between atoms: N_28  and  C_29
REMARK   12  A    between atoms: N_28  and  C_36
REMARK   13  A    between atoms: C_29  and  C_30
REMARK   14  A    between atoms: C_36  and  C_37
REMARK                            x       y       z     vdW  Elec       q    Type
REMARK                         _______ _______ _______ _____ _____    ______ ____
ROOT
ATOM      1  C   UNL     1       2.446  -1.075   3.808  0.00  0.00    -0.010 C 
ENDROOT
BRANCH   1   2
ATOM      2  C   UNL     1       3.498  -0.403   4.692  0.00  0.00    +0.088 C 
ATOM      3  C   UNL     1       2.868  -0.139   6.046  0.00  0.00    -0.006 C 
ATOM      4  C   UNL     1       2.843   1.152   6.483  0.00  0.00    -0.004 A 
ATOM      5  C   UNL     1       2.254   1.495   7.778  0.00  0.00    -0.042 A 
ATOM      6  C   UNL     1       2.251   2.794   8.172  0.00  0.00    +0.004 A 
ATOM      7  C   UNL     1       2.794   3.798   7.370  0.00  0.00    +0.005 A 
ATOM      8  C   UNL     1       3.355   3.546   6.159  0.00  0.00    -0.029 A 
ATOM      9  C   UNL     1       3.411   2.232   5.658  0.00  0.00    +0.043 A 
ATOM     10  N   UNL     1       3.964   1.996   4.468  0.00  0.00    -0.284 N 
ATOM     11  C   UNL     1       4.046   0.788   3.938  0.00  0.00    +0.223 C 
ATOM     12  O   UNL     1       4.562   0.635   2.847  0.00  0.00    -0.275 OA
ATOM     13  C   UNL     1       3.923   4.681   5.347  0.00  0.00    +0.045 C 
ATOM     14  C   UNL     1       1.660   0.425   8.658  0.00  0.00    +0.044 C 
ATOM     15  H   UNL     1       4.323   2.746   3.968  0.00  0.00    +0.155 HD
ENDBRANCH   1   2
BRANCH   1  17
ATOM     16  N   UNL     1       4.398  -2.307   2.921  0.00  0.00    -0.211 N 
ATOM     17  C   UNL     1       3.122  -1.658   2.565  0.00  0.00    +0.183 C 
ATOM     18  N   UNL     1       3.543  -0.586   1.643  0.00  0.00    -0.229 N 
ATOM     19  N   UNL     1       4.936  -0.692   1.545  0.00  0.00    -0.064 NA
ATOM     20  N   UNL     1       5.391  -1.604   2.229  0.00  0.00    -0.061 NA
ATOM     21  H   UNL     1       2.973   0.059   1.197  0.00  0.00    +0.172 HD
BRANCH  16  22
ATOM     22  C   UNL     1       4.588  -3.449   3.819  0.00  0.00    +0.050 C 
ATOM     23  C   UNL     1       4.082  -4.722   3.139  0.00  0.00    +0.033 C 
ATOM     24  C   UNL     1       3.804  -3.216   5.113  0.00  0.00    +0.033 C 
BRANCH  22  26
ATOM     25  C   UNL     1       6.288  -4.864   4.980  0.00  0.00    +0.006 C 
ATOM     26  C   UNL     1       6.075  -3.600   4.144  0.00  0.00    +0.023 C 
ENDBRANCH  22  26
ENDBRANCH  16  22
ENDBRANCH   1  17
BRANCH   1  27
ATOM     27  N   UNL     1       1.790  -2.152   4.560  0.00  0.00    +0.392 N 
ATOM     28  H   UNL     1       2.451  -2.566   5.201  0.00  0.00    -0.080 HD
BRANCH  27  29
ATOM     29  C   UNL     1       1.307  -3.178   3.626  0.00  0.00    -0.040 C 
BRANCH  29  30
ATOM     30  C   UNL     1       0.038  -2.700   2.967  0.00  0.00    -0.046 A 
ATOM     31  C   UNL     1      -1.197  -3.014   3.514  0.00  0.00    +0.005 A 
ATOM     32  C   UNL     1      -2.338  -2.553   2.874  0.00  0.00    +0.020 A 
ATOM     33  C   UNL     1      -2.206  -1.801   1.722  0.00  0.00    +0.111 A 
ATOM     34  N   UNL     1      -1.015  -1.522   1.231  0.00  0.00    -0.263 NA
ATOM     35  C   UNL     1       0.091  -1.939   1.816  0.00  0.00    +0.112 A 
ENDBRANCH  29  30
ENDBRANCH  27  29
BRANCH  27  36
ATOM     36  C   UNL     1       0.655  -1.603   5.314  0.00  0.00    -0.002 C 
BRANCH  36  37
ATOM     37  C   UNL     1       0.221  -2.595   6.362  0.00  0.00    +0.089 A 
ATOM     38  C   UNL     1       0.642  -2.624   7.639  0.00  0.00    +0.042 A 
ATOM     39  C   UNL     1      -0.016  -3.710   8.262  0.00  0.00    +0.041 A 
ATOM     40  C   UNL     1      -0.800  -4.279   7.328  0.00  0.00    +0.195 A 
ATOM     41  O   UNL     1      -0.656  -3.595   6.181  0.00  0.00    -0.470 OA
ENDBRANCH  36  37
ENDBRANCH  27  36
ENDBRANCH   1  27
TORSDOF 9
