REMARK  Name = ZINC08415135
REMARK  9 active torsions:
REMARK  status: ('A' for Active; 'I' for Inactive)
REMARK    1  A    between atoms: C_1  and  C_2
REMARK    2  A    between atoms: C_3  and  C_24
REMARK    3  A    between atoms: C_4  and  C_16
REMARK    4  A    between atoms: C_10  and  C_14
REMARK    5  A    between atoms: C_10  and  C_15
REMARK    6  A    between atoms: C_20  and  O_22
REMARK    7  A    between atoms: O_22  and  C_23
REMARK    8  A    between atoms: N_26  and  C_27
REMARK    9  A    between atoms: C_32  and  C_33
REMARK                            x       y       z     vdW  Elec       q    Type
REMARK                         _______ _______ _______ _____ _____    ______ ____
ROOT
ATOM      1  C   UNL     1       4.803   4.355  -0.902  0.00  0.00    +0.061 C 
ATOM      2  C   UNL     1       3.537   3.683  -0.438  0.00  0.00    +0.014 C 
ATOM      3  C   UNL     1       2.391   4.381  -0.387  0.00  0.00    +0.043 C 
ATOM      4  C   UNL     1       1.113   3.747   0.077  0.00  0.00    +0.090 C 
ATOM      5  C   UNL     1       1.208   2.243   0.035  0.00  0.00    +0.024 C 
ATOM      6  C   UNL     1       2.409   1.629  -0.033  0.00  0.00    +0.016 C 
ATOM      7  N   UNL     1       3.563   2.365  -0.072  0.00  0.00    -0.321 N 
ATOM      8  C   UNL     1       2.513   0.125  -0.072  0.00  0.00    +0.058 C 
ATOM      9  C   UNL     1       1.342  -0.491   0.699  0.00  0.00    -0.023 C 
ATOM     10  C   UNL     1       0.035  -0.005   0.064  0.00  0.00    +0.086 C 
ATOM     11  C   UNL     1       0.015   1.500   0.074  0.00  0.00    +0.162 C 
ATOM     12  O   UNL     1      -1.050   2.083   0.110  0.00  0.00    -0.292 OA
ATOM     13  C   UNL     1       1.400  -0.047   2.162  0.00  0.00    +0.011 C 
ATOM     14  C   UNL     1       1.415  -2.017   0.620  0.00  0.00    +0.011 C 
ATOM     15  H   UNL     1       4.517   1.887   0.194  0.00  0.00    +0.152 HD
ENDROOT
BRANCH   4  16
ATOM     16  C   UNL     1       0.829   4.186   1.491  0.00  0.00    -0.032 A 
ATOM     17  C   UNL     1       1.716   3.869   2.503  0.00  0.00    +0.005 A 
ATOM     18  C   UNL     1       1.462   4.275   3.800  0.00  0.00    +0.004 A 
ATOM     19  C   UNL     1       0.315   4.989   4.089  0.00  0.00    +0.045 A 
ATOM     20  C   UNL     1      -0.580   5.302   3.076  0.00  0.00    +0.120 A 
ATOM     21  C   UNL     1      -0.319   4.899   1.775  0.00  0.00    +0.050 A 
BRANCH  20  22
ATOM     22  O   UNL     1      -1.709   6.003   3.359  0.00  0.00    -0.495 OA
ATOM     23  C   UNL     1      -1.912   6.386   4.720  0.00  0.00    +0.277 C 
ENDBRANCH  20  22
ENDBRANCH   4  16
BRANCH   3  24
ATOM     24  C   UNL     1       2.389   5.742  -0.779  0.00  0.00    +0.247 C 
ATOM     25  O   UNL     1       1.992   6.057  -1.886  0.00  0.00    -0.270 OA
ATOM     26  N   UNL     1       2.827   6.689   0.074  0.00  0.00    -0.281 N 
ATOM     27  H   UNL     1       3.247   6.400   1.049  0.00  0.00    +0.155 HD
BRANCH  26  28
ATOM     28  C   UNL     1       2.748   8.040  -0.280  0.00  0.00    +0.045 A 
ATOM     29  C   UNL     1       2.737   8.409  -1.620  0.00  0.00    +0.024 A 
ATOM     30  C   UNL     1       2.659   9.743  -1.966  0.00  0.00    +0.002 A 
ATOM     31  C   UNL     1       2.591  10.712  -0.981  0.00  0.00    +0.001 A 
ATOM     32  C   UNL     1       2.602  10.348   0.352  0.00  0.00    +0.014 A 
ATOM     33  C   UNL     1       2.674   9.015   0.706  0.00  0.00    +0.076 A 
BRANCH  33  34
ATOM     34  C   UNL     1       2.679   8.619   2.160  0.00  0.00    +0.419 C 
ATOM     35  F   UNL     1       2.598   9.767   2.956  0.00  0.00    -0.166 F 
ATOM     36  F   UNL     1       1.583   7.791   2.421  0.00  0.00    -0.166 F 
ATOM     37  F   UNL     1       3.863   7.932   2.452  0.00  0.00    -0.166 F 
ENDBRANCH  33  34
ENDBRANCH  26  28
ENDBRANCH   3  24
TORSDOF 5
