REMARK  Name = ZINC39936866
REMARK  7 active torsions:
REMARK  status: ('A' for Active; 'I' for Inactive)
REMARK    1  A    between atoms: C_1  and  C_2
REMARK    2  A    between atoms: C_2  and  C_3
REMARK    3  A    between atoms: C_3  and  N_4
REMARK    4  A    between atoms: N_13  and  C_14
REMARK    5  A    between atoms: C_14  and  C_16
REMARK    6  A    between atoms: C_19  and  S_27
REMARK    7  A    between atoms: S_27  and  N_30
REMARK                            x       y       z     vdW  Elec       q    Type
REMARK                         _______ _______ _______ _____ _____    ______ ____
ROOT
ATOM      1  C   UNL     1       4.974  -2.672  -1.008  0.00  0.00    +0.034 C 
ATOM      2  C   UNL     1       5.904  -3.535  -1.558  0.00  0.00    +0.007 A 
ATOM      3  C   UNL     1       5.686  -4.937  -1.553  0.00  0.00    +0.038 A 
ATOM      4  C   UNL     1       6.615  -5.759  -2.100  0.00  0.00    +0.106 A 
ATOM      5  C   UNL     1       7.789  -5.257  -2.671  0.00  0.00    +0.030 A 
ATOM      6  C   UNL     1       8.060  -3.927  -2.709  0.00  0.00    +0.026 A 
ATOM      7  C   UNL     1       7.143  -3.006  -2.161  0.00  0.00    +0.041 A 
ATOM      8  N   UNL     1       7.407  -1.705  -2.199  0.00  0.00    -0.285 N 
ATOM      9  C   UNL     1       6.596  -0.781  -1.705  0.00  0.00    +0.222 C 
ATOM     10  O   UNL     1       6.899   0.395  -1.772  0.00  0.00    -0.275 OA
ATOM     11  C   UNL     1       5.289  -1.190  -1.064  0.00  0.00    +0.137 C 
ATOM     12  H   UNL     1       8.238  -1.416  -2.609  0.00  0.00    +0.155 HD
ENDROOT
BRANCH   4  13
ATOM     13  S   UNL     1       6.337  -7.499  -2.090  0.00  0.00    +0.061 S 
ATOM     14  O   UNL     1       7.614  -8.114  -2.180  0.00  0.00    -0.153 OA
ATOM     15  O   UNL     1       5.439  -7.761  -1.020  0.00  0.00    -0.153 OA
BRANCH  13  16
ATOM     16  N   UNL     1       5.532  -7.874  -3.487  0.00  0.00    -0.172 NA
ATOM     17  C   UNL     1       4.061  -7.860  -3.541  0.00  0.00    +0.137 C 
ATOM     18  C   UNL     1       3.629  -7.023  -4.751  0.00  0.00    +0.177 C 
ATOM     19  O   UNL     1       4.303  -7.500  -5.918  0.00  0.00    -0.377 OA
ATOM     20  C   UNL     1       5.726  -7.375  -5.865  0.00  0.00    +0.177 C 
ATOM     21  C   UNL     1       6.265  -8.225  -4.714  0.00  0.00    +0.137 C 
ENDBRANCH  13  16
ENDBRANCH   4  13
BRANCH   1  22
ATOM     22  C   UNL     1       3.726  -3.172  -0.398  0.00  0.00    +0.267 C 
ATOM     23  O   UNL     1       3.546  -4.372  -0.273  0.00  0.00    -0.268 OA
BRANCH  22  33
ATOM     24  N   UNL     1       0.757  -1.972   1.220  0.00  0.00    -0.312 N 
ATOM     25  C   UNL     1      -0.202  -2.801   1.789  0.00  0.00    +0.068 A 
ATOM     26  C   UNL     1      -1.383  -2.552   2.477  0.00  0.00    +0.028 A 
ATOM     27  C   UNL     1      -2.147  -3.606   2.934  0.00  0.00    +0.002 A 
ATOM     28  C   UNL     1      -1.742  -4.912   2.711  0.00  0.00    +0.002 A 
ATOM     29  C   UNL     1      -0.570  -5.171   2.030  0.00  0.00    +0.028 A 
ATOM     30  C   UNL     1       0.206  -4.118   1.564  0.00  0.00    +0.066 A 
ATOM     31  N   UNL     1       1.404  -4.061   0.864  0.00  0.00    -0.326 N 
ATOM     32  C   UNL     1       1.717  -2.754   0.660  0.00  0.00    +0.201 A 
ATOM     33  N   UNL     1       2.793  -2.311   0.018  0.00  0.00    -0.143 NA
ATOM     34  H   UNL     1       1.926  -4.823   0.567  0.00  0.00    +0.169 HD
BRANCH  24  35
ATOM     35  C   UNL     1       0.734  -0.508   1.218  0.00  0.00    +0.125 C 
BRANCH  35  37
ATOM     36  C   UNL     1      -0.033   1.519  -0.026  0.00  0.00    +0.005 C 
ATOM     37  C   UNL     1      -0.008  -0.011  -0.024  0.00  0.00    +0.018 C 
ENDBRANCH  35  37
ENDBRANCH  24  35
ENDBRANCH  22  33
ENDBRANCH   1  22
TORSDOF 6
