REMARK  Name = ZINC02442061
REMARK  10 active torsions:
REMARK  status: ('A' for Active; 'I' for Inactive)
REMARK    1  A    between atoms: C_1  and  C_2
REMARK    2  A    between atoms: C_2  and  C_3
REMARK    3  A    between atoms: C_2  and  C_4
REMARK    4  A    between atoms: C_2  and  C_5
REMARK    5  A    between atoms: C_16  and  C_21
REMARK    6  A    between atoms: N_23  and  C_24
REMARK    7  A    between atoms: C_24  and  C_25
REMARK    8  A    between atoms: C_25  and  N_56
REMARK    9  A    between atoms: C_26  and  N_56
REMARK   10  A    between atoms: C_27  and  N_56
REMARK                            x       y       z     vdW  Elec       q    Type
REMARK                         _______ _______ _______ _____ _____    ______ ____
ROOT
ATOM      1  C   UNL     1       0.718  -0.497  -1.257  0.00  0.00    -0.000 C 
ATOM      2  C   UNL     1       0.748  -2.029  -1.264  0.00  0.00    +0.009 C 
ATOM      3  C   UNL     1       1.237  -2.534  -2.620  0.00  0.00    +0.037 C 
ATOM      4  C   UNL     1       2.561  -1.851  -2.957  0.00  0.00    -0.024 A 
ATOM      5  C   UNL     1       2.924  -0.712  -2.323  0.00  0.00    -0.004 A 
ATOM      6  S   UNL     1       4.499  -0.294  -3.023  0.00  0.00    -0.073 S 
ATOM      7  C   UNL     1       4.636  -1.657  -4.152  0.00  0.00    +0.114 A 
ATOM      8  C   UNL     1       3.448  -2.374  -3.931  0.00  0.00    +0.055 A 
ATOM      9  C   UNL     1       3.292  -3.589  -4.758  0.00  0.00    +0.168 A 
ATOM     10  N   UNL     1       2.351  -4.503  -4.849  0.00  0.00    -0.202 NA
ATOM     11  C   UNL     1       2.700  -5.412  -5.767  0.00  0.00    +0.237 A 
ATOM     12  N   UNL     1       3.873  -5.090  -6.277  0.00  0.00    -0.139 NA
ATOM     13  N   UNL     1       4.285  -3.909  -5.642  0.00  0.00    -0.201 N 
ATOM     14  C   UNL     1       5.392  -3.124  -5.759  0.00  0.00    +0.226 A 
ATOM     15  N   UNL     1       5.544  -2.048  -5.038  0.00  0.00    -0.228 NA
ATOM     16  C   UNL     1       2.162   0.026  -1.267  0.00  0.00    +0.046 C 
ENDROOT
BRANCH   1  18
ATOM     17  C   UNL     1      -0.019   1.526   0.010  0.00  0.00    +0.011 C 
ATOM     18  C   UNL     1       0.002  -0.004   0.002  0.00  0.00    -0.035 C 
ATOM     19  C   UNL     1       0.742  -0.511   1.242  0.00  0.00    +0.011 C 
ATOM     20  C   UNL     1      -1.433  -0.534   0.013  0.00  0.00    +0.011 C 
ENDBRANCH   1  18
BRANCH  11  21
ATOM     21  C   UNL     1       1.895  -6.595  -6.149  0.00  0.00    +0.283 C 
ATOM     22  O   UNL     1       0.823  -6.800  -5.614  0.00  0.00    -0.267 OA
ATOM     23  N   UNL     1       2.351  -7.444  -7.091  0.00  0.00    -0.311 N 
ATOM     24  H   UNL     1       3.207  -7.281  -7.518  0.00  0.00    +0.149 HD
BRANCH  23  25
ATOM     25  C   UNL     1       1.555  -8.615  -7.470  0.00  0.00    +0.086 C 
BRANCH  25  26
ATOM     26  C   UNL     1       2.294  -9.406  -8.550  0.00  0.00    -0.061 C 
BRANCH  26  29
ATOM     27  C   UNL     1       2.053 -11.232 -10.122  0.00  0.00    -0.097 C 
ATOM     28  C   UNL     1       1.390 -11.528  -7.812  0.00  0.00    -0.097 C 
ATOM     29  N   UNL     1       1.470 -10.571  -8.936  0.00  0.00    +0.377 N 
ATOM     30  H   UNL     1       0.523 -10.247  -9.166  0.00  0.00    -0.083 HD
ENDBRANCH  26  29
ENDBRANCH  25  26
ENDBRANCH  23  25
ENDBRANCH  11  21
TORSDOF 5
