REMARK  Name = ZINC56806794
REMARK  5 active torsions:
REMARK  status: ('A' for Active; 'I' for Inactive)
REMARK    1  A    between atoms: C_1  and  N_2
REMARK    2  A    between atoms: N_2  and  C_3
REMARK    3  A    between atoms: C_3  and  C_4
REMARK    4  A    between atoms: N_15  and  C_16
REMARK    5  A    between atoms: N_25  and  C_27
REMARK                            x       y       z     vdW  Elec       q    Type
REMARK                         _______ _______ _______ _____ _____    ______ ____
ROOT
ATOM      1  C   UNL     1      -0.018   1.461   0.010  0.00  0.00    +0.134 C 
ATOM      2  N   UNL     1       0.002  -0.004   0.002  0.00  0.00    -0.284 N 
ATOM      3  C   UNL     1       0.000  -0.672  -1.169  0.00  0.00    +0.302 C 
ATOM      4  O   UNL     1       0.017  -1.887  -1.175  0.00  0.00    -0.253 OA
ATOM      5  N   UNL     1      -0.020   0.009  -2.332  0.00  0.00    -0.296 N 
ATOM      6  H   UNL     1      -0.033   0.978  -2.327  0.00  0.00    +0.151 HD
ENDROOT
BRANCH   5   7
ATOM      7  C   UNL     1      -0.022  -0.715  -3.602  0.00  0.00    +0.077 C 
ATOM      8  C   UNL     1       1.409  -1.039  -4.036  0.00  0.00    -0.007 C 
ATOM      9  C   UNL     1       2.224   0.241  -4.150  0.00  0.00    +0.003 C 
ATOM     10  C   UNL     1       1.592   1.266  -5.077  0.00  0.00    +0.001 C 
ATOM     11  C   UNL     1       0.103   1.456  -4.840  0.00  0.00    +0.003 C 
ATOM     12  C   UNL     1      -0.650   0.140  -4.705  0.00  0.00    -0.007 C 
ATOM     13  C   UNL     1      -0.658  -0.641  -6.012  0.00  0.00    -0.073 C 
ATOM     14  N   UNL     1       0.668  -1.102  -6.411  0.00  0.00    +0.382 N 
ATOM     15  C   UNL     1       1.381  -1.808  -5.351  0.00  0.00    -0.073 C 
ATOM     16  H   UNL     1       1.219  -0.330  -6.750  0.00  0.00    -0.081 HD
BRANCH  14  17
ATOM     17  C   UNL     1       0.507  -2.025  -7.543  0.00  0.00    -0.069 C 
ATOM     18  C   UNL     1       1.349  -1.763  -8.793  0.00  0.00    -0.017 C 
ATOM     19  C   UNL     1      -0.154  -1.480  -8.810  0.00  0.00    -0.017 C 
ENDBRANCH  14  17
ENDBRANCH   5   7
BRANCH   2  20
ATOM     20  C   UNL     1       0.024  -0.743   1.267  0.00  0.00    +0.144 C 
BRANCH  20  21
ATOM     21  C   UNL     1      -1.389  -1.016   1.714  0.00  0.00    -0.026 A 
ATOM     22  C   UNL     1      -2.046  -0.104   2.518  0.00  0.00    +0.009 A 
ATOM     23  C   UNL     1      -3.342  -0.349   2.931  0.00  0.00    +0.050 A 
ATOM     24  C   UNL     1      -3.986  -1.512   2.538  0.00  0.00    +0.166 A 
ATOM     25  C   UNL     1      -3.325  -2.431   1.728  0.00  0.00    +0.167 A 
ATOM     26  C   UNL     1      -2.027  -2.175   1.314  0.00  0.00    +0.054 A 
ATOM     27  O   UNL     1      -4.163  -3.480   1.483  0.00  0.00    -0.453 OA
ATOM     28  C   UNL     1      -5.194  -3.389   2.483  0.00  0.00    +0.466 C 
ATOM     29  O   UNL     1      -5.239  -1.985   2.802  0.00  0.00    -0.453 OA
ENDBRANCH  20  21
ENDBRANCH   2  20
TORSDOF 4
