REMARK  Name = ZINC40796354
REMARK  9 active torsions:
REMARK  status: ('A' for Active; 'I' for Inactive)
REMARK    1  A    between atoms: C_1  and  C_2
REMARK    2  A    between atoms: C_2  and  N_3
REMARK    3  A    between atoms: C_11  and  C_14
REMARK    4  A    between atoms: C_11  and  C_15
REMARK    5  A    between atoms: N_17  and  C_18
REMARK    6  A    between atoms: C_26  and  C_27
REMARK    7  A    between atoms: C_27  and  C_29
REMARK    8  A    between atoms: C_33  and  O_35
REMARK    9  A    between atoms: O_35  and  C_36
REMARK                            x       y       z     vdW  Elec       q    Type
REMARK                         _______ _______ _______ _____ _____    ______ ____
ROOT
ATOM      1  C   UNL     1      -4.885  -3.172  -4.101  0.00  0.00    +0.091 A 
ATOM      2  C   UNL     1      -6.149  -3.697  -4.630  0.00  0.00    +0.042 A 
ATOM      3  C   UNL     1      -7.469  -3.686  -4.177  0.00  0.00    +0.013 A 
ATOM      4  C   UNL     1      -8.447  -4.281  -4.923  0.00  0.00    +0.001 A 
ATOM      5  C   UNL     1      -8.136  -4.896  -6.127  0.00  0.00    +0.004 A 
ATOM      6  C   UNL     1      -6.838  -4.918  -6.592  0.00  0.00    +0.047 A 
ATOM      7  C   UNL     1      -5.826  -4.319  -5.849  0.00  0.00    +0.138 A 
ATOM      8  O   UNL     1      -4.500  -4.187  -6.047  0.00  0.00    -0.450 OA
ATOM      9  C   UNL     1      -3.921  -3.508  -5.031  0.00  0.00    +0.197 A 
ENDROOT
BRANCH   1  12
ATOM     10  C   UNL     1      -5.714  -1.768  -2.381  0.00  0.00    +0.242 C 
ATOM     11  O   UNL     1      -6.770  -1.684  -2.972  0.00  0.00    -0.273 OA
ATOM     12  N   UNL     1      -4.699  -2.475  -2.915  0.00  0.00    -0.280 N 
ATOM     13  H   UNL     1      -3.837  -2.498  -2.470  0.00  0.00    +0.155 HD
BRANCH  10  22
ATOM     14  N   UNL     1      -6.522   0.973  -0.032  0.00  0.00    -0.269 N 
ATOM     15  C   UNL     1      -5.388   1.351   0.682  0.00  0.00    +0.050 A 
ATOM     16  C   UNL     1      -5.522   2.230   1.753  0.00  0.00    +0.024 A 
ATOM     17  C   UNL     1      -4.415   2.612   2.483  0.00  0.00    +0.002 A 
ATOM     18  C   UNL     1      -3.160   2.127   2.160  0.00  0.00    +0.001 A 
ATOM     19  C   UNL     1      -3.012   1.255   1.097  0.00  0.00    +0.016 A 
ATOM     20  C   UNL     1      -4.119   0.872   0.358  0.00  0.00    +0.031 A 
ATOM     21  S   UNL     1      -3.934  -0.223  -1.015  0.00  0.00    -0.098 S 
ATOM     22  C   UNL     1      -5.538  -1.081  -1.052  0.00  0.00    +0.170 C 
ATOM     23  C   UNL     1      -6.631  -0.064  -0.856  0.00  0.00    +0.245 C 
ATOM     24  O   UNL     1      -7.660  -0.196  -1.484  0.00  0.00    -0.273 OA
ATOM     25  C   UNL     1      -5.595  -2.114   0.076  0.00  0.00    +0.043 C 
BRANCH  14  27
ATOM     26  C   UNL     1      -8.545   1.256   1.312  0.00  0.00    +0.025 C 
ATOM     27  C   UNL     1      -7.717   1.801   0.146  0.00  0.00    +0.110 C 
ENDBRANCH  14  27
ENDBRANCH  10  22
ENDBRANCH   1  12
BRANCH   9  28
ATOM     28  C   UNL     1      -2.544  -3.194  -4.935  0.00  0.00    +0.230 C 
ATOM     29  O   UNL     1      -2.109  -2.665  -3.927  0.00  0.00    -0.283 OA
BRANCH  28  30
ATOM     30  C   UNL     1      -1.632  -3.510  -6.057  0.00  0.00    +0.029 A 
ATOM     31  C   UNL     1      -2.101  -4.226  -7.159  0.00  0.00    +0.012 A 
ATOM     32  C   UNL     1      -1.249  -4.518  -8.204  0.00  0.00    +0.004 A 
ATOM     33  C   UNL     1       0.070  -4.103  -8.163  0.00  0.00    +0.045 A 
ATOM     34  C   UNL     1       0.545  -3.390  -7.071  0.00  0.00    +0.121 A 
ATOM     35  C   UNL     1      -0.304  -3.087  -6.019  0.00  0.00    +0.057 A 
BRANCH  34  36
ATOM     36  O   UNL     1       1.842  -2.986  -7.035  0.00  0.00    -0.495 OA
ATOM     37  C   UNL     1       2.659  -3.329  -8.156  0.00  0.00    +0.277 C 
ENDBRANCH  34  36
ENDBRANCH  28  30
ENDBRANCH   9  28
TORSDOF 6
