REMARK  Name = ZINC50640516
REMARK  4 active torsions:
REMARK  status: ('A' for Active; 'I' for Inactive)
REMARK    1  A    between atoms: C_5  and  N_7
REMARK    2  A    between atoms: N_7  and  S_8
REMARK    3  A    between atoms: S_8  and  C_11
REMARK    4  A    between atoms: C_12  and  N_20
REMARK                            x       y       z     vdW  Elec       q    Type
REMARK                         _______ _______ _______ _____ _____    ______ ____
ROOT
ATOM      1  C   UNL     1       0.235  -4.640  -0.026  0.00  0.00    +0.223 A 
ATOM      2  C   UNL     1       0.421  -5.417  -1.124  0.00  0.00    +0.140 A 
ATOM      3  N   UNL     1       0.725  -6.655  -0.722  0.00  0.00    -0.327 N 
ATOM      4  C   UNL     1       0.738  -6.692   0.605  0.00  0.00    +0.118 A 
ATOM      5  N   UNL     1       0.439  -5.438   1.070  0.00  0.00    -0.283 N 
ATOM      6  C   UNL     1       0.391  -5.192   2.411  0.00  0.00    +0.094 A 
ATOM      7  C   UNL     1       0.639  -6.177   3.301  0.00  0.00    +0.018 A 
ATOM      8  C   UNL     1       0.951  -7.471   2.855  0.00  0.00    +0.005 A 
ATOM      9  C   UNL     1       0.995  -7.732   1.520  0.00  0.00    +0.045 A 
ATOM     10  H   UNL     1       0.906  -7.408  -1.306  0.00  0.00    +0.169 HD
ENDROOT
BRANCH   1  11
ATOM     11  S   UNL     1      -0.183  -2.929  -0.012  0.00  0.00    +0.111 S 
ATOM     12  O   UNL     1      -0.802  -2.672   1.241  0.00  0.00    -0.147 OA
ATOM     13  O   UNL     1      -0.827  -2.658  -1.249  0.00  0.00    -0.147 OA
BRANCH  11  14
ATOM     14  N   UNL     1       1.237  -2.078  -0.021  0.00  0.00    -0.095 NA
BRANCH  14  19
ATOM     15  C   UNL     1      -0.017   1.377   0.010  0.00  0.00    +0.002 A 
ATOM     16  C   UNL     1       1.170   2.086   0.002  0.00  0.00    +0.001 A 
ATOM     17  C   UNL     1       2.380   1.417  -0.013  0.00  0.00    +0.017 A 
ATOM     18  C   UNL     1       2.406   0.035  -0.021  0.00  0.00    +0.042 A 
ATOM     19  C   UNL     1       1.215  -0.681  -0.013  0.00  0.00    +0.088 A 
ATOM     20  C   UNL     1       0.002  -0.004   0.002  0.00  0.00    +0.028 A 
ATOM     21 BR   UNL     1       4.061  -0.880  -0.043  0.00  0.00    -0.048 Br
ENDBRANCH  14  19
ENDBRANCH  11  14
ENDBRANCH   1  11
BRANCH   2  22
ATOM     22  N   UNL     1       0.312  -4.992  -2.455  0.00  0.00    -0.342 N 
ATOM     23  H   UNL     1       0.086  -4.069  -2.652  0.00  0.00    +0.144 HD
ATOM     24  H   UNL     1       0.464  -5.620  -3.178  0.00  0.00    +0.144 HD
ENDBRANCH   2  22
TORSDOF 4
