REMARK  Name = ZINC10225391
REMARK  14 active torsions:
REMARK  status: ('A' for Active; 'I' for Inactive)
REMARK    1  A    between atoms: C_1  and  C_2
REMARK    2  A    between atoms: C_2  and  C_3
REMARK    3  A    between atoms: C_3  and  N_56
REMARK    4  A    between atoms: C_4  and  C_5
REMARK    5  A    between atoms: C_4  and  N_56
REMARK    6  A    between atoms: N_7  and  C_8
REMARK    7  A    between atoms: C_17  and  C_18
REMARK    8  A    between atoms: C_17  and  N_56
REMARK    9  A    between atoms: N_20  and  C_21
REMARK   10  A    between atoms: C_23  and  C_31
REMARK   11  A    between atoms: C_24  and  C_26
REMARK   12  A    between atoms: C_26  and  O_28
REMARK   13  A    between atoms: O_28  and  C_29
REMARK   14  A    between atoms: C_29  and  C_30
REMARK                            x       y       z     vdW  Elec       q    Type
REMARK                         _______ _______ _______ _____ _____    ______ ____
ROOT
ATOM      1  N   UNL     1       3.774   5.999  -0.056  0.00  0.00    +0.391 N 
ATOM      2  H   UNL     1       4.284   5.539  -0.820  0.00  0.00    -0.080 HD
ENDROOT
BRANCH   1   3
ATOM      3  C   UNL     1       4.429   5.665   1.226  0.00  0.00    -0.078 C 
BRANCH   3   5
ATOM      4  C   UNL     1       5.423   3.800   2.559  0.00  0.00    +0.002 C 
ATOM      5  C   UNL     1       4.817   4.185   1.208  0.00  0.00    -0.022 C 
ENDBRANCH   3   5
ENDBRANCH   1   3
BRANCH   1   6
ATOM      6  C   UNL     1       2.378   5.514  -0.051  0.00  0.00    +0.020 C 
BRANCH   6   7
ATOM      7  C   UNL     1       1.889   5.436  -1.475  0.00  0.00    +0.201 C 
ATOM      8  O   UNL     1       2.651   5.660  -2.391  0.00  0.00    -0.278 OA
ATOM      9  N   UNL     1       0.605   5.116  -1.730  0.00  0.00    -0.285 N 
ATOM     10  H   UNL     1      -0.022   5.008  -0.998  0.00  0.00    +0.155 HD
BRANCH   9  11
ATOM     11  C   UNL     1       0.176   4.939  -3.052  0.00  0.00    +0.072 A 
ATOM     12  C   UNL     1       0.812   5.614  -4.085  0.00  0.00    +0.029 A 
ATOM     13  C   UNL     1       0.389   5.440  -5.388  0.00  0.00    +0.043 A 
ATOM     14  C   UNL     1      -0.670   4.592  -5.667  0.00  0.00    +0.161 A 
ATOM     15  C   UNL     1      -1.309   3.916  -4.639  0.00  0.00    +0.195 A 
ATOM     16  C   UNL     1      -0.887   4.088  -3.331  0.00  0.00    +0.182 A 
ATOM     17  F   UNL     1      -1.512   3.434  -2.327  0.00  0.00    -0.200 F 
ATOM     18  F   UNL     1      -2.342   3.090  -4.912  0.00  0.00    -0.199 F 
ATOM     19  F   UNL     1      -1.082   4.425  -6.943  0.00  0.00    -0.202 F 
ENDBRANCH   9  11
ENDBRANCH   6   7
ENDBRANCH   1   6
BRANCH   1  20
ATOM     20  C   UNL     1       3.801   7.461  -0.272  0.00  0.00    +0.020 C 
BRANCH  20  21
ATOM     21  C   UNL     1       5.228   7.893  -0.492  0.00  0.00    +0.201 C 
ATOM     22  O   UNL     1       6.122   7.075  -0.456  0.00  0.00    -0.278 OA
ATOM     23  N   UNL     1       5.510   9.189  -0.731  0.00  0.00    -0.282 N 
ATOM     24  H   UNL     1       4.795   9.844  -0.760  0.00  0.00    +0.155 HD
BRANCH  23  25
ATOM     25  C   UNL     1       6.825   9.588  -0.934  0.00  0.00    +0.073 A 
ATOM     26  C   UNL     1       7.308  10.854  -1.188  0.00  0.00    +0.035 A 
ATOM     27  C   UNL     1       8.655  11.025  -1.358  0.00  0.00    -0.028 A 
ATOM     28  C   UNL     1       9.456   9.895  -1.262  0.00  0.00    +0.101 A 
ATOM     29  S   UNL     1       8.260   8.615  -0.922  0.00  0.00    -0.067 S 
ATOM     30  C   UNL     1       9.244  12.383  -1.639  0.00  0.00    +0.045 C 
BRANCH  28  31
ATOM     31  C   UNL     1      10.862   9.787  -1.394  0.00  0.00    +0.346 C 
ATOM     32  O   UNL     1      11.530  10.778  -1.624  0.00  0.00    -0.244 OA
BRANCH  31  33
ATOM     33  O   UNL     1      11.462   8.584  -1.264  0.00  0.00    -0.461 OA
BRANCH  33  34
ATOM     34  C   UNL     1      12.883   8.549  -1.409  0.00  0.00    +0.229 C 
ATOM     35  C   UNL     1      13.378   7.112  -1.231  0.00  0.00    +0.048 C 
ENDBRANCH  33  34
ENDBRANCH  31  33
ENDBRANCH  28  31
ENDBRANCH  23  25
ENDBRANCH  20  21
ENDBRANCH   1  20
TORSDOF 11
