REMARK  Name = ZINC02877379
REMARK  8 active torsions:
REMARK  status: ('A' for Active; 'I' for Inactive)
REMARK    1  A    between atoms: C_1  and  N_2
REMARK    2  A    between atoms: N_2  and  C_3
REMARK    3  A    between atoms: N_2  and  S_20
REMARK    4  A    between atoms: C_6  and  C_9
REMARK    5  A    between atoms: N_11  and  C_12
REMARK    6  A    between atoms: C_12  and  C_13
REMARK    7  A    between atoms: C_13  and  C_14
REMARK    8  A    between atoms: S_20  and  C_23
REMARK                            x       y       z     vdW  Elec       q    Type
REMARK                         _______ _______ _______ _____ _____    ______ ____
ROOT
ATOM      1  C   UNL     1       0.922  -1.009   0.266  0.00  0.00    +0.051 A 
ATOM      2  C   UNL     1      -0.365  -0.491   0.385  0.00  0.00    +0.025 A 
ATOM      3  C   UNL     1      -0.549   0.849   0.636  0.00  0.00    +0.015 A 
ATOM      4  C   UNL     1       0.558   1.692   0.771  0.00  0.00    +0.037 A 
ATOM      5  C   UNL     1       1.849   1.169   0.651  0.00  0.00    +0.015 A 
ATOM      6  C   UNL     1       2.026  -0.172   0.400  0.00  0.00    +0.025 A 
ENDROOT
BRANCH   4   7
ATOM      7  C   UNL     1       0.365   3.129   1.040  0.00  0.00    +0.244 C 
ATOM      8  O   UNL     1      -0.758   3.583   1.144  0.00  0.00    -0.270 OA
ATOM      9  N   UNL     1       1.434   3.940   1.170  0.00  0.00    -0.311 N 
ATOM     10  H   UNL     1       2.330   3.579   1.087  0.00  0.00    +0.149 HD
BRANCH   9  11
ATOM     11  C   UNL     1       1.242   5.368   1.436  0.00  0.00    +0.109 C 
BRANCH  11  12
ATOM     12  C   UNL     1       2.605   6.056   1.538  0.00  0.00    +0.049 C 
BRANCH  12  13
ATOM     13  C   UNL     1       2.407   7.524   1.812  0.00  0.00    -0.072 C 
ATOM     14  C   UNL     1       2.447   7.922   3.043  0.00  0.00    -0.028 C 
ATOM     15  C   UNL     1       2.259   9.348   3.473  0.00  0.00    +0.027 C 
ATOM     16  C   UNL     1       2.442  10.286   2.278  0.00  0.00    +0.004 C 
ATOM     17  C   UNL     1       1.588   9.764   1.115  0.00  0.00    +0.005 C 
ATOM     18  C   UNL     1       2.183   8.435   0.641  0.00  0.00    +0.030 C 
ENDBRANCH  12  13
ENDBRANCH  11  12
ENDBRANCH   9  11
ENDBRANCH   4   7
BRANCH   1  20
ATOM     19  C   UNL     1       0.082  -3.330   0.424  0.00  0.00    +0.157 C 
ATOM     20  N   UNL     1       1.104  -2.364   0.013  0.00  0.00    -0.206 N 
BRANCH  20  21
ATOM     21  S   UNL     1       2.476  -2.886  -0.753  0.00  0.00    +0.074 S 
ATOM     22  O   UNL     1       2.145  -4.114  -1.387  0.00  0.00    -0.150 OA
ATOM     23  O   UNL     1       2.989  -1.772  -1.471  0.00  0.00    -0.150 OA
BRANCH  21  24
ATOM     24  C   UNL     1       3.658  -3.267   0.498  0.00  0.00    +0.109 A 
ATOM     25  C   UNL     1       4.617  -2.335   0.848  0.00  0.00    +0.030 A 
ATOM     26  C   UNL     1       5.541  -2.631   1.833  0.00  0.00    +0.022 A 
ATOM     27  C   UNL     1       5.512  -3.864   2.460  0.00  0.00    +0.041 A 
ATOM     28  C   UNL     1       4.555  -4.798   2.104  0.00  0.00    +0.022 A 
ATOM     29  C   UNL     1       3.628  -4.499   1.124  0.00  0.00    +0.030 A 
ATOM     30 CL   UNL     1       6.676  -4.239   3.692  0.00  0.00    -0.084 Cl
ENDBRANCH  21  24
ENDBRANCH  20  21
ENDBRANCH   1  20
TORSDOF 7
