REMARK  Name = ZINC39515029
REMARK  10 active torsions:
REMARK  status: ('A' for Active; 'I' for Inactive)
REMARK    1  A    between atoms: C_1  and  C_2
REMARK    2  A    between atoms: N_5  and  S_11
REMARK    3  A    between atoms: C_7  and  C_10
REMARK    4  A    between atoms: S_11  and  C_14
REMARK    5  A    between atoms: C_17  and  C_20
REMARK    6  A    between atoms: N_22  and  C_23
REMARK    7  A    between atoms: C_23  and  C_24
REMARK    8  A    between atoms: C_24  and  N_31
REMARK    9  A    between atoms: N_31  and  C_32
REMARK   10  A    between atoms: N_31  and  C_33
REMARK                            x       y       z     vdW  Elec       q    Type
REMARK                         _______ _______ _______ _____ _____    ______ ____
ROOT
ATOM      1  C   UNL     1       2.965   2.424  -2.366  0.00  0.00    +0.106 A 
ATOM      2  C   UNL     1       1.829   3.064  -2.829  0.00  0.00    +0.029 A 
ATOM      3  C   UNL     1       1.622   4.398  -2.547  0.00  0.00    +0.015 A 
ATOM      4  C   UNL     1       2.562   5.103  -1.793  0.00  0.00    +0.037 A 
ATOM      5  C   UNL     1       3.706   4.451  -1.330  0.00  0.00    +0.015 A 
ATOM      6  C   UNL     1       3.898   3.115  -1.614  0.00  0.00    +0.029 A 
ENDROOT
BRANCH   4   7
ATOM      7  C   UNL     1       2.347   6.533  -1.488  0.00  0.00    +0.244 C 
ATOM      8  O   UNL     1       1.350   7.098  -1.893  0.00  0.00    -0.270 OA
ATOM      9  N   UNL     1       3.257   7.211  -0.760  0.00  0.00    -0.313 N 
ATOM     10  H   UNL     1       4.052   6.760  -0.436  0.00  0.00    +0.149 HD
BRANCH   9  11
ATOM     11  C   UNL     1       3.044   8.628  -0.457  0.00  0.00    +0.092 C 
BRANCH  11  12
ATOM     12  C   UNL     1       4.215   9.153   0.377  0.00  0.00    -0.050 C 
ATOM     13  C   UNL     1       4.133  10.690   0.438  0.00  0.00    -0.010 C 
ATOM     14  C   UNL     1       3.098  11.193   1.462  0.00  0.00    -0.001 C 
ATOM     15  C   UNL     1       1.825  10.392   1.435  0.00  0.00    -0.000 C 
ATOM     16  C   UNL     1       1.920   9.284   2.504  0.00  0.00    -0.000 C 
ATOM     17  C   UNL     1       2.702   8.143   2.052  0.00  0.00    -0.001 C 
ATOM     18  C   UNL     1       4.165   8.519   1.740  0.00  0.00    -0.010 C 
BRANCH  12  19
ATOM     19  N   UNL     1       5.473   8.772  -0.279  0.00  0.00    +0.381 N 
ATOM     20  C   UNL     1       5.582   9.466  -1.569  0.00  0.00    -0.096 C 
ATOM     21  C   UNL     1       6.605   9.148   0.577  0.00  0.00    -0.096 C 
ATOM     22  H   UNL     1       5.483   7.774  -0.432  0.00  0.00    -0.082 HD
ENDBRANCH  12  19
ENDBRANCH  11  12
ENDBRANCH   9  11
ENDBRANCH   4   7
BRANCH   1  23
ATOM     23  S   UNL     1       3.221   0.719  -2.731  0.00  0.00    +0.061 S 
ATOM     24  O   UNL     1       4.621   0.491  -2.643  0.00  0.00    -0.153 OA
ATOM     25  O   UNL     1       2.477   0.439  -3.909  0.00  0.00    -0.153 OA
BRANCH  23  29
ATOM     26  C   UNL     1       0.320   1.353  -0.216  0.00  0.00    +0.039 C 
ATOM     27  C   UNL     1       0.410  -0.173  -0.294  0.00  0.00    +0.131 C 
ATOM     28  C   UNL     1       1.115  -0.579  -1.593  0.00  0.00    +0.140 C 
ATOM     29  N   UNL     1       2.521  -0.154  -1.510  0.00  0.00    -0.172 NA
ATOM     30  C   UNL     1       3.287  -0.527  -0.310  0.00  0.00    +0.140 C 
ATOM     31  C   UNL     1       2.476  -0.123   0.926  0.00  0.00    +0.131 C 
ATOM     32  O   UNL     1       1.156  -0.665   0.822  0.00  0.00    -0.371 OA
ATOM     33  C   UNL     1       3.155  -0.670   2.183  0.00  0.00    +0.039 C 
ENDBRANCH  23  29
ENDBRANCH   1  23
TORSDOF 6
