REMARK  Name = ZINC65301080
REMARK  11 active torsions:
REMARK  status: ('A' for Active; 'I' for Inactive)
REMARK    1  A    between atoms: C_1  and  C_2
REMARK    2  A    between atoms: C_2  and  C_3
REMARK    3  A    between atoms: C_3  and  C_4
REMARK    4  A    between atoms: C_4  and  O_5
REMARK    5  A    between atoms: O_5  and  C_6
REMARK    6  A    between atoms: C_9  and  C_12
REMARK    7  A    between atoms: C_12  and  N_13
REMARK    8  A    between atoms: C_14  and  C_16
REMARK    9  A    between atoms: N_19  and  C_22
REMARK   10  A    between atoms: C_23  and  C_32
REMARK   11  A    between atoms: C_28  and  C_31
REMARK                            x       y       z     vdW  Elec       q    Type
REMARK                         _______ _______ _______ _____ _____    ______ ____
ROOT
ATOM      1  C   UNL     1      -4.215 -10.090   2.941  0.00  0.00    +0.078 C 
ATOM      2  C   UNL     1      -5.193  -9.509   3.964  0.00  0.00    +0.031 C 
ATOM      3  C   UNL     1      -5.029 -10.245   5.297  0.00  0.00    +0.106 C 
ATOM      4  N   UNL     1      -5.186 -11.687   5.063  0.00  0.00    -0.329 N 
ATOM      5  C   UNL     1      -4.357 -12.331   4.035  0.00  0.00    +0.106 C 
ATOM      6  C   UNL     1      -4.529 -11.571   2.716  0.00  0.00    +0.031 C 
ENDROOT
BRANCH   4   7
ATOM      7  C   UNL     1      -6.095 -12.423   5.795  0.00  0.00    +0.055 A 
ATOM      8  C   UNL     1      -7.364 -12.718   5.277  0.00  0.00    +0.074 A 
ATOM      9  C   UNL     1      -8.273 -13.466   6.035  0.00  0.00    +0.098 A 
ATOM     10  N   UNL     1      -7.946 -13.896   7.236  0.00  0.00    -0.353 N 
ATOM     11  C   UNL     1      -6.767 -13.643   7.764  0.00  0.00    +0.107 A 
ATOM     12  C   UNL     1      -5.766 -12.904   7.090  0.00  0.00    +0.050 A 
ATOM     13  C   UNL     1      -4.588 -12.766   7.844  0.00  0.00    +0.058 A 
ATOM     14  N   UNL     1      -4.492 -13.292   9.026  0.00  0.00    -0.213 NA
ATOM     15  S   UNL     1      -5.970 -14.032   9.302  0.00  0.00    +0.030 S 
ATOM     16  C   UNL     1      -3.424 -11.999   7.272  0.00  0.00    +0.067 C 
ATOM     17  H   UNL     1      -8.590 -14.413   7.744  0.00  0.00    +0.166 HD
BRANCH   8  18
ATOM     18  C   UNL     1      -7.741 -12.242   3.936  0.00  0.00    +0.250 C 
ATOM     19  O   UNL     1      -7.680 -11.056   3.672  0.00  0.00    -0.270 OA
ATOM     20  N   UNL     1      -8.153 -13.119   3.000  0.00  0.00    -0.297 N 
ATOM     21  C   UNL     1      -8.195 -14.581   3.155  0.00  0.00    +0.108 C 
ATOM     22  C   UNL     1      -8.708 -15.168   1.824  0.00  0.00    +0.020 C 
ATOM     23  C   UNL     1      -8.391 -14.044   0.802  0.00  0.00    +0.020 C 
ATOM     24  C   UNL     1      -8.644 -12.773   1.654  0.00  0.00    +0.108 C 
ENDBRANCH   8  18
ENDBRANCH   4   7
BRANCH   1  26
ATOM     25  N   UNL     1      -4.120  -8.018   1.593  0.00  0.00    -0.311 N 
ATOM     26  C   UNL     1      -4.350  -9.345   1.638  0.00  0.00    +0.216 C 
ATOM     27  O   UNL     1      -4.666  -9.940   0.629  0.00  0.00    -0.276 OA
ATOM     28  H   UNL     1      -3.867  -7.542   2.400  0.00  0.00    +0.149 HD
BRANCH  25  29
ATOM     29  C   UNL     1      -4.251  -7.294   0.326  0.00  0.00    +0.139 C 
BRANCH  29  33
ATOM     30  C   UNL     1      -3.374  -3.158   0.952  0.00  0.00    +0.121 A 
ATOM     31  C   UNL     1      -2.359  -4.040   0.610  0.00  0.00    +0.046 A 
ATOM     32  C   UNL     1      -2.645  -5.376   0.409  0.00  0.00    +0.009 A 
ATOM     33  C   UNL     1      -3.942  -5.835   0.547  0.00  0.00    -0.030 A 
ATOM     34  C   UNL     1      -4.956  -4.959   0.887  0.00  0.00    +0.009 A 
ATOM     35  C   UNL     1      -4.674  -3.622   1.095  0.00  0.00    +0.046 A 
BRANCH  30  36
ATOM     36  O   UNL     1      -3.096  -1.843   1.151  0.00  0.00    -0.492 OA
BRANCH  36  37
ATOM     37  C   UNL     1      -1.736  -1.436   0.986  0.00  0.00    +0.229 C 
BRANCH  37  38
ATOM     38  C   UNL     1      -1.618   0.067   1.249  0.00  0.00    +0.041 C 
BRANCH  38  40
ATOM     39  C   UNL     1      -0.044   2.005   1.335  0.00  0.00    +0.004 C 
ATOM     40  C   UNL     1      -0.162   0.503   1.072  0.00  0.00    -0.000 C 
ENDBRANCH  38  40
ENDBRANCH  37  38
ENDBRANCH  36  37
ENDBRANCH  30  36
ENDBRANCH  29  33
ENDBRANCH  25  29
ENDBRANCH   1  26
TORSDOF 9
