REMARK  Name = ZINC17193950
REMARK  7 active torsions:
REMARK  status: ('A' for Active; 'I' for Inactive)
REMARK    1  A    between atoms: C_1  and  C_2
REMARK    2  A    between atoms: C_3  and  C_30
REMARK    3  A    between atoms: N_6  and  C_22
REMARK    4  A    between atoms: C_10  and  N_11
REMARK    5  A    between atoms: N_14  and  C_15
REMARK    6  A    between atoms: C_22  and  C_23
REMARK    7  A    between atoms: C_23  and  C_24
REMARK                            x       y       z     vdW  Elec       q    Type
REMARK                         _______ _______ _______ _____ _____    ______ ____
ROOT
ATOM      1  C   UNL     1      -0.073   1.502   0.009  0.00  0.00    +0.046 C 
ATOM      2  C   UNL     1      -0.055  -0.005   0.001  0.00  0.00    -0.015 C 
ATOM      3  C   UNL     1      -0.068  -0.704  -1.196  0.00  0.00    +0.118 C 
ATOM      4  C   UNL     1      -0.051  -2.169  -1.178  0.00  0.00    +0.264 C 
ATOM      5  O   UNL     1      -0.062  -2.783  -2.229  0.00  0.00    -0.269 OA
ATOM      6  N   UNL     1      -0.022  -2.843  -0.016  0.00  0.00    -0.233 N 
ATOM      7  C   UNL     1      -0.009  -2.202   1.166  0.00  0.00    +0.255 C 
ATOM      8  O   UNL     1       0.017  -2.840   2.201  0.00  0.00    -0.269 OA
ATOM      9  C   UNL     1      -0.019  -0.732   1.213  0.00  0.00    +0.055 C 
ATOM     10  C   UNL     1       0.001  -0.068   2.431  0.00  0.00    +0.089 C 
ENDROOT
BRANCH  10  11
ATOM     11  N   UNL     1      -0.076  -0.771   3.590  0.00  0.00    -0.275 N 
ATOM     12  C   UNL     1      -0.160  -0.123   4.768  0.00  0.00    +0.308 C 
ATOM     13  O   UNL     1      -0.166   1.093   4.794  0.00  0.00    -0.252 OA
ATOM     14  N   UNL     1      -0.236  -0.821   5.918  0.00  0.00    -0.268 N 
ATOM     15  H   UNL     1      -0.071  -1.741   3.569  0.00  0.00    +0.156 HD
ATOM     16  H   UNL     1      -0.147  -1.787   5.906  0.00  0.00    +0.156 HD
BRANCH  14  17
ATOM     17  C   UNL     1      -0.444  -0.153   7.130  0.00  0.00    +0.049 A 
ATOM     18  C   UNL     1      -1.068   1.088   7.143  0.00  0.00    +0.024 A 
ATOM     19  C   UNL     1      -1.272   1.744   8.341  0.00  0.00    +0.002 A 
ATOM     20  C   UNL     1      -0.855   1.168   9.527  0.00  0.00    +0.001 A 
ATOM     21  C   UNL     1      -0.234  -0.067   9.519  0.00  0.00    +0.017 A 
ATOM     22  C   UNL     1      -0.033  -0.733   8.324  0.00  0.00    +0.039 A 
ATOM     23 BR   UNL     1       0.809  -2.426   8.314  0.00  0.00    -0.048 Br
ENDBRANCH  14  17
ENDBRANCH  10  11
BRANCH   3  24
ATOM     24  C   UNL     1      -0.099   0.001  -2.442  0.00  0.00    +0.105 C 
ATOM     25  N   UNL     1      -0.124   0.560  -3.431  0.00  0.00    -0.191 NA
ENDBRANCH   3  24
BRANCH   6  26
ATOM     26  C   UNL     1      -0.005  -4.308  -0.037  0.00  0.00    +0.121 C 
BRANCH  26  27
ATOM     27  C   UNL     1       1.443  -4.801  -0.070  0.00  0.00    +0.054 C 
BRANCH  27  28
ATOM     28  C   UNL     1       1.461  -6.308  -0.092  0.00  0.00    -0.046 A 
ATOM     29  C   UNL     1       1.485  -7.016   1.095  0.00  0.00    +0.004 A 
ATOM     30  C   UNL     1       1.501  -8.398   1.075  0.00  0.00    +0.000 A 
ATOM     31  C   UNL     1       1.493  -9.072  -0.132  0.00  0.00    +0.000 A 
ATOM     32  C   UNL     1       1.468  -8.364  -1.319  0.00  0.00    +0.000 A 
ATOM     33  C   UNL     1       1.448  -6.982  -1.299  0.00  0.00    +0.004 A 
ENDBRANCH  27  28
ENDBRANCH  26  27
ENDBRANCH   6  26
TORSDOF 6
