REMARK  Name = ZINC38665343
REMARK  5 active torsions:
REMARK  status: ('A' for Active; 'I' for Inactive)
REMARK    1  A    between atoms: C_2  and  O_16
REMARK    2  A    between atoms: C_4  and  O_15
REMARK    3  A    between atoms: C_6  and  C_9
REMARK    4  A    between atoms: C_9  and  O_10
REMARK    5  A    between atoms: O_10  and  P_11
REMARK                            x       y       z     vdW  Elec       q    Type
REMARK                         _______ _______ _______ _____ _____    ______ ____
ROOT
ATOM      1  C   UNL     1      -0.018   1.440   0.010  0.00  0.00    +0.194 C 
ATOM      2  C   UNL     1       1.470   1.855  -0.002  0.00  0.00    +0.171 C 
ATOM      3  C   UNL     1       2.206   0.633   0.594  0.00  0.00    +0.176 C 
ATOM      4  C   UNL     1       1.075  -0.375   0.895  0.00  0.00    +0.175 C 
ATOM      5  O   UNL     1       0.002  -0.004   0.002  0.00  0.00    -0.369 OA
ENDROOT
BRANCH   3   6
ATOM      6  O   UNL     1       3.125   0.090  -0.356  0.00  0.00    -0.387 OA
ATOM      7  H   UNL     1       3.822   0.705  -0.625  0.00  0.00    +0.210 HD
ENDBRANCH   3   6
BRANCH   2   8
ATOM      8  O   UNL     1       1.674   3.011   0.812  0.00  0.00    -0.387 OA
ATOM      9  H   UNL     1       1.187   3.792   0.516  0.00  0.00    +0.210 HD
ENDBRANCH   2   8
BRANCH   4  10
ATOM     10  C   UNL     1       1.543  -1.802   0.605  0.00  0.00    +0.206 C 
BRANCH  10  11
ATOM     11  O   UNL     1       0.527  -2.726   0.999  0.00  0.00    -0.281 OA
BRANCH  11  12
ATOM     12  P   UNL     1       0.681  -4.321   0.837  0.00  0.00    +0.532 P 
ATOM     13  O   UNL     1       1.014  -4.665  -0.654  0.00  0.00    -0.222 OA
ATOM     14  O   UNL     1       1.838  -4.830   1.762  0.00  0.00    -0.115 OA
ATOM     15  O   UNL     1      -0.660  -5.019   1.247  0.00  0.00    -0.115 OA
ENDBRANCH  11  12
ENDBRANCH  10  11
ENDBRANCH   4  10
TORSDOF 5
