REMARK  Name = ZINC32781211
REMARK  12 active torsions:
REMARK  status: ('A' for Active; 'I' for Inactive)
REMARK    1  A    between atoms: C_1  and  N_2
REMARK    2  A    between atoms: N_2  and  C_3
REMARK    3  A    between atoms: N_2  and  C_4
REMARK    4  A    between atoms: C_4  and  C_5
REMARK    5  A    between atoms: C_5  and  C_7
REMARK    6  A    between atoms: C_5  and  N_13
REMARK    7  A    between atoms: C_14  and  C_16
REMARK    8  A    between atoms: C_20  and  S_22
REMARK    9  A    between atoms: S_22  and  N_25
REMARK   10  A    between atoms: N_25  and  C_26
REMARK   11  A    between atoms: C_31  and  O_32
REMARK   12  A    between atoms: O_32  and  C_33
REMARK                            x       y       z     vdW  Elec       q    Type
REMARK                         _______ _______ _______ _____ _____    ______ ____
ROOT
ATOM      1  C   UNL     1      -6.701   2.161   1.966  0.00  0.00    +0.039 A 
ATOM      2  C   UNL     1      -7.115   3.269   1.226  0.00  0.00    +0.013 A 
ATOM      3  C   UNL     1      -6.431   4.462   1.334  0.00  0.00    +0.003 A 
ATOM      4  C   UNL     1      -5.339   4.563   2.179  0.00  0.00    +0.029 A 
ATOM      5  C   UNL     1      -4.920   3.467   2.911  0.00  0.00    +0.109 A 
ATOM      6  C   UNL     1      -5.596   2.268   2.812  0.00  0.00    +0.041 A 
ENDROOT
BRANCH   1   8
ATOM      7  N   UNL     1      -8.496   0.779   1.038  0.00  0.00    -0.306 N 
ATOM      8  C   UNL     1      -7.429   0.879   1.855  0.00  0.00    +0.245 C 
ATOM      9  O   UNL     1      -7.067  -0.084   2.502  0.00  0.00    -0.270 OA
ATOM     10  H   UNL     1      -8.775   1.625   0.392  0.00  0.00    +0.150 HD
BRANCH   7  11
ATOM     11  C   UNL     1      -9.284  -0.455   1.009  0.00  0.00    +0.087 C 
BRANCH  11  12
ATOM     12  C   UNL     1     -10.060  -0.526  -0.281  0.00  0.00    -0.029 A 
ATOM     13  C   UNL     1     -10.652   0.612  -0.795  0.00  0.00    +0.005 A 
ATOM     14  C   UNL     1     -11.360   0.548  -1.980  0.00  0.00    +0.000 A 
ATOM     15  C   UNL     1     -11.483  -0.657  -2.648  0.00  0.00    +0.000 A 
ATOM     16  C   UNL     1     -10.895  -1.796  -2.131  0.00  0.00    +0.000 A 
ATOM     17  C   UNL     1     -10.184  -1.731  -0.948  0.00  0.00    +0.005 A 
ENDBRANCH  11  12
BRANCH  11  18
ATOM     18  C   UNL     1     -10.256  -0.468   2.190  0.00  0.00    -0.052 C 
BRANCH  18  20
ATOM     19  C   UNL     1     -10.083  -2.836   2.660  0.00  0.00    -0.097 C 
ATOM     20  N   UNL     1     -10.971  -1.751   2.223  0.00  0.00    +0.377 N 
ATOM     21  C   UNL     1     -12.162  -1.668   3.079  0.00  0.00    -0.097 C 
ATOM     22  H   UNL     1     -11.305  -1.978   1.200  0.00  0.00    -0.083 HD
ENDBRANCH  18  20
ENDBRANCH  11  18
ENDBRANCH   7  11
ENDBRANCH   1   8
BRANCH   5  23
ATOM     23  S   UNL     1      -3.525   3.604   3.979  0.00  0.00    +0.072 S 
ATOM     24  O   UNL     1      -3.671   2.595   4.969  0.00  0.00    -0.150 OA
ATOM     25  O   UNL     1      -3.399   4.981   4.307  0.00  0.00    -0.150 OA
BRANCH  23  26
ATOM     26  N   UNL     1      -2.187   3.205   3.090  0.00  0.00    -0.213 N 
ATOM     27  H   UNL     1      -1.558   2.354   3.393  0.00  0.00    +0.174 HD
BRANCH  26  28
ATOM     28  C   UNL     1      -1.855   3.949   1.952  0.00  0.00    +0.090 A 
ATOM     29  C   UNL     1      -2.078   5.318   1.927  0.00  0.00    +0.028 A 
ATOM     30  C   UNL     1      -1.754   6.051   0.800  0.00  0.00    +0.002 A 
ATOM     31  C   UNL     1      -1.203   5.423  -0.301  0.00  0.00    +0.004 A 
ATOM     32  C   UNL     1      -0.973   4.059  -0.282  0.00  0.00    +0.047 A 
ATOM     33  C   UNL     1      -1.294   3.318   0.843  0.00  0.00    +0.142 A 
BRANCH  33  34
ATOM     34  O   UNL     1      -1.068   1.978   0.864  0.00  0.00    -0.493 OA
ATOM     35  C   UNL     1      -0.497   1.398  -0.310  0.00  0.00    +0.277 C 
ENDBRANCH  33  34
ENDBRANCH  26  28
ENDBRANCH  23  26
ENDBRANCH   5  23
TORSDOF 9
