REMARK  Name = ZINC36660295
REMARK  13 active torsions:
REMARK  status: ('A' for Active; 'I' for Inactive)
REMARK    1  A    between atoms: C_1  and  C_2
REMARK    2  A    between atoms: C_2  and  O_3
REMARK    3  A    between atoms: O_3  and  C_4
REMARK    4  A    between atoms: N_13  and  C_14
REMARK    5  A    between atoms: C_14  and  C_15
REMARK    6  A    between atoms: C_15  and  C_16
REMARK    7  A    between atoms: C_16  and  N_17
REMARK    8  A    between atoms: N_17  and  C_18
REMARK    9  A    between atoms: N_17  and  C_19
REMARK   10  A    between atoms: C_20  and  C_22
REMARK   11  A    between atoms: N_27  and  S_28
REMARK   12  A    between atoms: S_28  and  C_31
REMARK   13  A    between atoms: C_34  and  C_37
REMARK                            x       y       z     vdW  Elec       q    Type
REMARK                         _______ _______ _______ _____ _____    ______ ____
ROOT
ATOM      1  C   UNL     1      -1.687  -1.107   1.307  0.00  0.00    +0.147 A 
ATOM      2  C   UNL     1      -0.543  -1.762   1.700  0.00  0.00    +0.048 A 
ATOM      3  C   UNL     1      -0.557  -3.111   2.020  0.00  0.00    +0.005 A 
ATOM      4  C   UNL     1      -1.745  -3.815   1.944  0.00  0.00    +0.017 A 
ATOM      5  C   UNL     1      -2.893  -3.170   1.553  0.00  0.00    +0.044 A 
ATOM      6  C   UNL     1      -2.923  -1.797   1.224  0.00  0.00    +0.122 A 
ATOM      7  N   UNL     1      -4.129  -1.307   0.864  0.00  0.00    -0.221 NA
ATOM      8  C   UNL     1      -5.209  -2.051   0.824  0.00  0.00    +0.168 A 
ATOM      9  S   UNL     1      -4.587  -3.651   1.320  0.00  0.00    -0.052 S 
ATOM     10  N   UNL     1      -6.502  -1.689   0.478  0.00  0.00    -0.249 N 
ATOM     11  C   UNL     1      -6.773  -0.419   0.119  0.00  0.00    +0.240 C 
ATOM     12  O   UNL     1      -7.918  -0.082  -0.100  0.00  0.00    -0.273 OA
ENDROOT
BRANCH  11  13
ATOM     13  C   UNL     1      -5.655   0.583  -0.011  0.00  0.00    +0.166 C 
ATOM     14  C   UNL     1      -4.916   0.375  -1.350  0.00  0.00    +0.031 C 
ATOM     15  C   UNL     1      -5.572   1.433  -2.276  0.00  0.00    +0.019 C 
ATOM     16  C   UNL     1      -5.821   2.599  -1.287  0.00  0.00    +0.110 C 
ATOM     17  N   UNL     1      -6.204   1.947  -0.018  0.00  0.00    -0.165 NA
BRANCH  17  18
ATOM     18  S   UNL     1      -7.101   2.633   1.192  0.00  0.00    +0.062 S 
ATOM     19  O   UNL     1      -7.870   3.666   0.592  0.00  0.00    -0.153 OA
ATOM     20  O   UNL     1      -7.695   1.562   1.914  0.00  0.00    -0.153 OA
BRANCH  18  21
ATOM     21  C   UNL     1      -5.974   3.420   2.295  0.00  0.00    +0.106 A 
ATOM     22  C   UNL     1      -5.443   2.716   3.359  0.00  0.00    +0.029 A 
ATOM     23  C   UNL     1      -4.559   3.333   4.224  0.00  0.00    +0.005 A 
ATOM     24  C   UNL     1      -4.205   4.654   4.024  0.00  0.00    -0.050 A 
ATOM     25  C   UNL     1      -4.736   5.358   2.959  0.00  0.00    +0.005 A 
ATOM     26  C   UNL     1      -5.616   4.739   2.091  0.00  0.00    +0.029 A 
ATOM     27  C   UNL     1      -3.242   5.328   4.967  0.00  0.00    +0.044 C 
ENDBRANCH  18  21
ENDBRANCH  17  18
ENDBRANCH  11  13
BRANCH   1  28
ATOM     28  O   UNL     1      -1.633   0.217   1.002  0.00  0.00    -0.490 OA
BRANCH  28  30
ATOM     29  C   UNL     1      -0.495   2.331   0.725  0.00  0.00    +0.048 C 
ATOM     30  C   UNL     1      -0.359   0.855   1.105  0.00  0.00    +0.226 C 
ENDBRANCH  28  30
ENDBRANCH   1  28
BRANCH  10  31
ATOM     31  C   UNL     1      -7.573  -2.688   0.501  0.00  0.00    +0.114 C 
BRANCH  31  32
ATOM     32  C   UNL     1      -8.224  -2.706   1.886  0.00  0.00    +0.001 C 
BRANCH  32  33
ATOM     33  C   UNL     1      -9.329  -3.763   1.917  0.00  0.00    -0.078 C 
BRANCH  33  34
ATOM     34  N   UNL     1      -9.954  -3.780   3.246  0.00  0.00    +0.376 N 
ATOM     35  C   UNL     1     -10.634  -2.499   3.483  0.00  0.00    -0.097 C 
ATOM     36  C   UNL     1     -10.932  -4.874   3.313  0.00  0.00    -0.097 C 
ATOM     37  H   UNL     1      -9.245  -3.919   3.949  0.00  0.00    -0.083 HD
ENDBRANCH  33  34
ENDBRANCH  32  33
ENDBRANCH  31  32
ENDBRANCH  10  31
TORSDOF 9
