REMARK  Name = ZINC41006517
REMARK  12 active torsions:
REMARK  status: ('A' for Active; 'I' for Inactive)
REMARK    1  A    between atoms: C_1  and  C_2
REMARK    2  A    between atoms: C_2  and  O_3
REMARK    3  A    between atoms: O_3  and  C_4
REMARK    4  A    between atoms: C_9  and  C_10
REMARK    5  A    between atoms: C_12  and  C_32
REMARK    6  A    between atoms: C_17  and  C_30
REMARK    7  A    between atoms: C_17  and  O_31
REMARK    8  A    between atoms: C_18  and  C_20
REMARK    9  A    between atoms: N_22  and  C_23
REMARK   10  A    between atoms: C_28  and  C_29
REMARK   11  A    between atoms: N_34  and  C_35
REMARK   12  A    between atoms: C_40  and  C_41
REMARK                            x       y       z     vdW  Elec       q    Type
REMARK                         _______ _______ _______ _____ _____    ______ ____
ROOT
ATOM      1  C   UNL     1       1.031  -1.854   3.551  0.00  0.00    +0.056 C 
ATOM      2  C   UNL     1       1.737  -1.375   4.824  0.00  0.00    +0.150 C 
ATOM      3  C   UNL     1       3.067  -0.768   4.436  0.00  0.00    +0.148 C 
ATOM      4  O   UNL     1       3.382   0.332   4.824  0.00  0.00    -0.296 OA
ATOM      5  C   UNL     1       3.993  -1.574   3.552  0.00  0.00    +0.110 C 
ATOM      6  C   UNL     1       3.205  -2.046   2.325  0.00  0.00    +0.082 C 
ATOM      7  C   UNL     1       1.956  -2.800   2.783  0.00  0.00    +0.116 C 
ATOM      8  C   UNL     1       2.792  -0.835   1.487  0.00  0.00    +0.042 C 
ENDROOT
BRANCH   1  14
ATOM      9  C   UNL     1      -1.426  -1.880   4.051  0.00  0.00    +0.124 A 
ATOM     10  C   UNL     1      -2.592  -2.553   4.387  0.00  0.00    +0.046 A 
ATOM     11  C   UNL     1      -2.563  -3.918   4.598  0.00  0.00    +0.004 A 
ATOM     12  C   UNL     1      -1.375  -4.613   4.474  0.00  0.00    +0.001 A 
ATOM     13  C   UNL     1      -0.212  -3.945   4.139  0.00  0.00    +0.007 A 
ATOM     14  C   UNL     1      -0.236  -2.581   3.922  0.00  0.00    -0.001 A 
BRANCH   9  15
ATOM     15  O   UNL     1      -1.451  -0.537   3.842  0.00  0.00    -0.492 OA
BRANCH  15  17
ATOM     16  C   UNL     1      -2.543   1.615   3.720  0.00  0.00    +0.048 C 
ATOM     17  C   UNL     1      -2.711   0.119   3.993  0.00  0.00    +0.225 C 
ENDBRANCH  15  17
ENDBRANCH   9  15
ENDBRANCH   1  14
BRANCH   7  18
ATOM     18  C   UNL     1       1.229  -3.343   1.579  0.00  0.00    +0.224 C 
ATOM     19  O   UNL     1       0.274  -2.747   1.127  0.00  0.00    -0.275 OA
ATOM     20  N   UNL     1       1.641  -4.491   1.005  0.00  0.00    -0.285 N 
ATOM     21  H   UNL     1       2.411  -4.962   1.360  0.00  0.00    +0.155 HD
BRANCH  20  22
ATOM     22  C   UNL     1       0.957  -5.002  -0.104  0.00  0.00    +0.036 A 
ATOM     23  C   UNL     1       0.219  -4.154  -0.919  0.00  0.00    +0.023 A 
ATOM     24  C   UNL     1      -0.455  -4.662  -2.012  0.00  0.00    +0.002 A 
ATOM     25  C   UNL     1      -0.395  -6.014  -2.296  0.00  0.00    +0.000 A 
ATOM     26  C   UNL     1       0.339  -6.862  -1.486  0.00  0.00    +0.005 A 
ATOM     27  C   UNL     1       1.020  -6.359  -0.395  0.00  0.00    -0.029 A 
ATOM     28  C   UNL     1       1.826  -7.282   0.482  0.00  0.00    +0.045 C 
ENDBRANCH  20  22
ENDBRANCH   7  18
BRANCH   2  29
ATOM     29  C   UNL     1       1.959  -2.542   5.750  0.00  0.00    +0.228 C 
ATOM     30  O   UNL     1       2.939  -3.244   5.617  0.00  0.00    -0.275 OA
ATOM     31  N   UNL     1       1.068  -2.807   6.726  0.00  0.00    -0.285 N 
ATOM     32  H   UNL     1       0.261  -2.275   6.804  0.00  0.00    +0.155 HD
BRANCH  31  33
ATOM     33  C   UNL     1       1.308  -3.849   7.628  0.00  0.00    +0.036 A 
ATOM     34  C   UNL     1       1.780  -5.072   7.169  0.00  0.00    +0.023 A 
ATOM     35  C   UNL     1       2.015  -6.099   8.062  0.00  0.00    +0.002 A 
ATOM     36  C   UNL     1       1.782  -5.911   9.412  0.00  0.00    +0.000 A 
ATOM     37  C   UNL     1       1.312  -4.695   9.872  0.00  0.00    +0.005 A 
ATOM     38  C   UNL     1       1.081  -3.661   8.985  0.00  0.00    -0.029 A 
ATOM     39  C   UNL     1       0.576  -2.334   9.489  0.00  0.00    +0.045 C 
ENDBRANCH  31  33
ENDBRANCH   2  29
BRANCH   6  40
ATOM     40  O   UNL     1       4.024  -2.914   1.539  0.00  0.00    -0.388 OA
ATOM     41  H   UNL     1       4.837  -2.501   1.215  0.00  0.00    +0.210 HD
ENDBRANCH   6  40
TORSDOF 8
