REMARK  Name = ZINC02872949
REMARK  11 active torsions:
REMARK  status: ('A' for Active; 'I' for Inactive)
REMARK    1  A    between atoms: C_1  and  C_2
REMARK    2  A    between atoms: C_2  and  O_3
REMARK    3  A    between atoms: O_3  and  C_4
REMARK    4  A    between atoms: C_7  and  C_10
REMARK    5  A    between atoms: C_10  and  N_59
REMARK    6  A    between atoms: C_11  and  C_12
REMARK    7  A    between atoms: C_11  and  N_59
REMARK    8  A    between atoms: C_12  and  C_13
REMARK    9  A    between atoms: C_22  and  C_23
REMARK   10  A    between atoms: C_22  and  N_59
REMARK   11  A    between atoms: C_26  and  C_29
REMARK                            x       y       z     vdW  Elec       q    Type
REMARK                         _______ _______ _______ _____ _____    ______ ____
ROOT
ATOM      1  N   UNL     1       7.276  -1.233   1.799  0.00  0.00    +0.385 N 
ATOM      2  H   UNL     1       7.190  -1.877   2.594  0.00  0.00    -0.081 HD
ENDROOT
BRANCH   1   3
ATOM      3  C   UNL     1       8.464  -1.610   1.004  0.00  0.00    -0.043 C 
BRANCH   3   7
ATOM      4  C   UNL     1      11.694  -2.439   3.676  0.00  0.00    +0.121 A 
ATOM      5  C   UNL     1      10.757  -3.421   3.393  0.00  0.00    +0.046 A 
ATOM      6  C   UNL     1       9.713  -3.151   2.529  0.00  0.00    +0.005 A 
ATOM      7  C   UNL     1       9.603  -1.902   1.946  0.00  0.00    -0.064 A 
ATOM      8  C   UNL     1      10.539  -0.923   2.222  0.00  0.00    +0.005 A 
ATOM      9  C   UNL     1      11.581  -1.186   3.090  0.00  0.00    +0.046 A 
BRANCH   4  10
ATOM     10  O   UNL     1      12.721  -2.702   4.527  0.00  0.00    -0.492 OA
BRANCH  10  12
ATOM     11  C   UNL     1      14.726  -2.124   5.745  0.00  0.00    +0.048 C 
ATOM     12  C   UNL     1      13.649  -1.643   4.771  0.00  0.00    +0.225 C 
ENDBRANCH  10  12
ENDBRANCH   4  10
ENDBRANCH   3   7
ENDBRANCH   1   3
BRANCH   1  13
ATOM     13  C   UNL     1       6.059  -1.334   0.966  0.00  0.00    -0.073 C 
BRANCH  13  14
ATOM     14  C   UNL     1       4.832  -1.278   1.879  0.00  0.00    +0.017 C 
BRANCH  14  15
ATOM     15  C   UNL     1       3.586  -1.490   1.059  0.00  0.00    -0.045 A 
ATOM     16  C   UNL     1       3.097  -2.768   0.866  0.00  0.00    +0.007 A 
ATOM     17  C   UNL     1       1.954  -2.968   0.114  0.00  0.00    +0.050 A 
ATOM     18  C   UNL     1       1.295  -1.886  -0.447  0.00  0.00    +0.166 A 
ATOM     19  C   UNL     1       1.788  -0.598  -0.252  0.00  0.00    +0.166 A 
ATOM     20  C   UNL     1       2.934  -0.406   0.502  0.00  0.00    +0.053 A 
ATOM     21  O   UNL     1       0.971   0.284  -0.898  0.00  0.00    -0.453 OA
ATOM     22  C   UNL     1      -0.251  -0.435  -1.148  0.00  0.00    +0.466 C 
ATOM     23  O   UNL     1       0.170  -1.810  -1.216  0.00  0.00    -0.453 OA
ENDBRANCH  14  15
ENDBRANCH  13  14
ENDBRANCH   1  13
BRANCH   1  24
ATOM     24  C   UNL     1       7.426   0.145   2.310  0.00  0.00    -0.043 C 
BRANCH  24  25
ATOM     25  C   UNL     1       7.348   1.139   1.180  0.00  0.00    -0.064 A 
ATOM     26  C   UNL     1       8.485   1.457   0.459  0.00  0.00    +0.002 A 
ATOM     27  C   UNL     1       8.412   2.365  -0.580  0.00  0.00    +0.012 A 
ATOM     28  C   UNL     1       7.206   2.963  -0.893  0.00  0.00    +0.055 A 
ATOM     29  C   UNL     1       6.071   2.649  -0.170  0.00  0.00    +0.012 A 
ATOM     30  C   UNL     1       6.142   1.737   0.867  0.00  0.00    +0.002 A 
BRANCH  28  31
ATOM     31  C   UNL     1       7.128   3.957  -2.023  0.00  0.00    +0.417 C 
ATOM     32  F   UNL     1       7.370   5.243  -1.531  0.00  0.00    -0.166 F 
ATOM     33  F   UNL     1       8.088   3.640  -2.990  0.00  0.00    -0.166 F 
ATOM     34  F   UNL     1       5.854   3.910  -2.599  0.00  0.00    -0.166 F 
ENDBRANCH  28  31
ENDBRANCH  24  25
ENDBRANCH   1  24
TORSDOF 10
