REMARK  Name = ZINC63923535
REMARK  6 active torsions:
REMARK  status: ('A' for Active; 'I' for Inactive)
REMARK    1  A    between atoms: C_4  and  C_7
REMARK    2  A    between atoms: C_10  and  C_12
REMARK    3  A    between atoms: C_12  and  S_13
REMARK    4  A    between atoms: S_13  and  C_14
REMARK    5  A    between atoms: C_17  and  C_26
REMARK    6  A    between atoms: N_18  and  C_19
REMARK                            x       y       z     vdW  Elec       q    Type
REMARK                         _______ _______ _______ _____ _____    ______ ____
ROOT
ATOM      1  C   UNL     1       9.651  -0.665  -1.630  0.00  0.00    +0.197 A 
ATOM      2  N   UNL     1      10.335  -0.604  -0.497  0.00  0.00    -0.122 NA
ATOM      3  N   UNL     1      11.588  -0.456  -0.743  0.00  0.00    -0.128 NA
ATOM      4  C   UNL     1      11.786  -0.412  -2.053  0.00  0.00    +0.168 A 
ATOM      5  N   UNL     1      10.545  -0.551  -2.653  0.00  0.00    -0.270 N 
ENDROOT
BRANCH   4   6
ATOM      6  C   UNL     1      13.018  -0.260  -2.707  0.00  0.00    +0.025 C 
ATOM      7  C   UNL     1      14.276  -0.130  -2.118  0.00  0.00    +0.006 A 
ATOM      8  C   UNL     1      14.700  -0.111  -0.772  0.00  0.00    +0.010 A 
ATOM      9  C   UNL     1      16.019   0.031  -0.484  0.00  0.00    +0.001 A 
ATOM     10  C   UNL     1      16.978   0.161  -1.491  0.00  0.00    +0.002 A 
ATOM     11  C   UNL     1      16.642   0.151  -2.804  0.00  0.00    +0.026 A 
ATOM     12  C   UNL     1      15.282   0.005  -3.183  0.00  0.00    +0.043 A 
ATOM     13  N   UNL     1      14.707  -0.034  -4.369  0.00  0.00    -0.380 N 
ATOM     14  C   UNL     1      13.261  -0.208  -4.199  0.00  0.00    +0.152 C 
ATOM     15  H   UNL     1      15.168   0.036  -5.219  0.00  0.00    +0.160 HD
ENDBRANCH   4   6
BRANCH   5  16
ATOM     16  C   UNL     1      10.266  -0.568  -4.026  0.00  0.00    +0.051 A 
ATOM     17  C   UNL     1      10.741  -1.604  -4.820  0.00  0.00    +0.028 A 
ATOM     18  C   UNL     1      10.464  -1.618  -6.173  0.00  0.00    +0.022 A 
ATOM     19  C   UNL     1       9.715  -0.601  -6.738  0.00  0.00    +0.041 A 
ATOM     20  C   UNL     1       9.240   0.432  -5.949  0.00  0.00    +0.022 A 
ATOM     21  C   UNL     1       9.509   0.448  -4.595  0.00  0.00    +0.028 A 
ATOM     22 CL   UNL     1       9.370  -0.622  -8.439  0.00  0.00    -0.084 Cl
ENDBRANCH   5  16
BRANCH   1  23
ATOM     23  S   UNL     1       7.907  -0.864  -1.785  0.00  0.00    -0.076 S 
BRANCH  23  24
ATOM     24  C   UNL     1       7.321  -0.950  -0.071  0.00  0.00    +0.173 C 
BRANCH  24  28
ATOM     25  C   UNL     1       3.695  -0.685  -0.038  0.00  0.00    +0.155 A 
ATOM     26  C   UNL     1       3.873  -2.031  -0.053  0.00  0.00    +0.161 A 
ATOM     27  N   UNL     1       5.194  -2.264  -0.066  0.00  0.00    -0.220 NA
ATOM     28  C   UNL     1       5.824  -1.123  -0.060  0.00  0.00    +0.206 A 
ATOM     29  O   UNL     1       4.926  -0.128  -0.048  0.00  0.00    -0.439 OA
BRANCH  25  33
ATOM     30  C   UNL     1      -0.017   1.379   0.010  0.00  0.00    +0.000 A 
ATOM     31  C   UNL     1       1.168   2.093   0.002  0.00  0.00    +0.001 A 
ATOM     32  C   UNL     1       2.377   1.429  -0.013  0.00  0.00    +0.011 A 
ATOM     33  C   UNL     1       2.403   0.034  -0.021  0.00  0.00    +0.019 A 
ATOM     34  C   UNL     1       1.204  -0.681  -0.013  0.00  0.00    +0.011 A 
ATOM     35  C   UNL     1       0.002  -0.004   0.002  0.00  0.00    +0.001 A 
ENDBRANCH  25  33
ENDBRANCH  24  28
ENDBRANCH  23  24
ENDBRANCH   1  23
TORSDOF 6
