REMARK  Name = ZINC15970534
REMARK  9 active torsions:
REMARK  status: ('A' for Active; 'I' for Inactive)
REMARK    1  A    between atoms: C_1  and  C_2
REMARK    2  A    between atoms: C_2  and  C_3
REMARK    3  A    between atoms: C_2  and  C_4
REMARK    4  A    between atoms: C_4  and  C_5
REMARK    5  A    between atoms: C_5  and  C_7
REMARK    6  A    between atoms: C_5  and  N_16
REMARK    7  A    between atoms: N_9  and  C_10
REMARK    8  A    between atoms: C_10  and  C_11
REMARK    9  A    between atoms: C_17  and  C_19
REMARK                            x       y       z     vdW  Elec       q    Type
REMARK                         _______ _______ _______ _____ _____    ______ ____
ROOT
ATOM      1  C   UNL     1       2.334  -0.645   0.333  0.00  0.00    +0.167 C 
ATOM      2  C   UNL     1       1.475   0.147  -0.663  0.00  0.00    +0.069 C 
ATOM      3  C   UNL     1       0.013  -0.015  -0.337  0.00  0.00    -0.015 A 
ATOM      4  C   UNL     1      -1.092   0.787  -0.832  0.00  0.00    +0.003 A 
ATOM      5  C   UNL     1      -1.147   1.886  -1.695  0.00  0.00    +0.010 A 
ATOM      6  C   UNL     1      -2.390   2.410  -1.952  0.00  0.00    +0.001 A 
ATOM      7  C   UNL     1      -3.541   1.884  -1.389  0.00  0.00    +0.002 A 
ATOM      8  C   UNL     1      -3.515   0.797  -0.532  0.00  0.00    +0.026 A 
ATOM      9  C   UNL     1      -2.267   0.244  -0.253  0.00  0.00    +0.047 A 
ATOM     10  N   UNL     1      -1.885  -0.806   0.530  0.00  0.00    -0.356 N 
ATOM     11  H   UNL     1      -2.487  -1.365   1.047  0.00  0.00    +0.166 HD
ATOM     12  C   UNL     1      -0.525  -0.952   0.477  0.00  0.00    +0.046 A 
ATOM     13  C   UNL     1       0.304  -1.983   1.203  0.00  0.00    +0.155 C 
ATOM     14  N   UNL     1       1.653  -1.918   0.596  0.00  0.00    -0.273 N 
ATOM     15  C   UNL     1       2.047  -3.162   0.290  0.00  0.00    +0.248 C 
ATOM     16  O   UNL     1       3.168  -3.475  -0.058  0.00  0.00    -0.270 OA
ATOM     17  C   UNL     1       0.919  -4.087   0.439  0.00  0.00    +0.042 A 
ATOM     18  C   UNL     1      -0.176  -3.374   0.969  0.00  0.00    -0.009 A 
ATOM     19  C   UNL     1      -1.396  -3.978   1.177  0.00  0.00    +0.006 A 
ATOM     20  C   UNL     1      -1.496  -5.329   0.856  0.00  0.00    +0.000 A 
ATOM     21  C   UNL     1      -0.426  -6.039   0.350  0.00  0.00    +0.001 A 
ATOM     22  C   UNL     1       0.807  -5.444   0.127  0.00  0.00    +0.013 A 
ENDROOT
BRANCH   1  24
ATOM     23  N   UNL     1       4.787  -0.332   0.281  0.00  0.00    -0.302 N 
ATOM     24  C   UNL     1       3.695  -0.907  -0.259  0.00  0.00    +0.235 C 
ATOM     25  O   UNL     1       3.807  -1.636  -1.222  0.00  0.00    -0.274 OA
ATOM     26  H   UNL     1       4.707   0.192   1.094  0.00  0.00    +0.150 HD
BRANCH  23  27
ATOM     27  C   UNL     1       6.094  -0.497  -0.358  0.00  0.00    +0.159 C 
BRANCH  27  28
ATOM     28  C   UNL     1       7.178  -0.414   0.685  0.00  0.00    +0.234 C 
ATOM     29  O   UNL     1       6.948   0.099   1.760  0.00  0.00    -0.274 OA
ATOM     30  N   UNL     1       8.404  -0.911   0.425  0.00  0.00    -0.307 N 
ATOM     31  H   UNL     1       8.609  -1.257  -0.458  0.00  0.00    +0.149 HD
BRANCH  30  32
ATOM     32  C   UNL     1       9.425  -0.928   1.475  0.00  0.00    +0.178 C 
BRANCH  32  33
ATOM     33  C   UNL     1      10.695  -1.529   0.930  0.00  0.00    +0.122 A 
ATOM     34  C   UNL     1      11.694  -0.852   0.335  0.00  0.00    +0.046 A 
ATOM     35  C   UNL     1      12.680  -1.802  -0.018  0.00  0.00    +0.041 A 
ATOM     36  C   UNL     1      12.225  -3.002   0.382  0.00  0.00    +0.195 A 
ATOM     37  O   UNL     1      11.025  -2.830   0.960  0.00  0.00    -0.466 OA
ENDBRANCH  32  33
ENDBRANCH  30  32
ENDBRANCH  27  28
BRANCH  27  38
ATOM     38  C   UNL     1       6.299   0.611  -1.394  0.00  0.00    +0.034 C 
BRANCH  38  40
ATOM     39  C   UNL     1       7.469  -0.905  -2.999  0.00  0.00    +0.007 C 
ATOM     40  C   UNL     1       7.603   0.364  -2.154  0.00  0.00    -0.015 C 
ATOM     41  C   UNL     1       7.895   1.556  -3.068  0.00  0.00    +0.007 C 
ENDBRANCH  38  40
ENDBRANCH  27  38
ENDBRANCH  23  27
ENDBRANCH   1  24
TORSDOF 7
