REMARK  Name = ZINC39517331
REMARK  9 active torsions:
REMARK  status: ('A' for Active; 'I' for Inactive)
REMARK    1  A    between atoms: C_1  and  C_2
REMARK    2  A    between atoms: C_2  and  C_4
REMARK    3  A    between atoms: C_2  and  S_15
REMARK    4  A    between atoms: N_6  and  C_7
REMARK    5  A    between atoms: C_7  and  C_13
REMARK    6  A    between atoms: S_15  and  C_16
REMARK    7  A    between atoms: N_20  and  C_21
REMARK    8  A    between atoms: C_26  and  O_27
REMARK    9  A    between atoms: O_27  and  C_28
REMARK                            x       y       z     vdW  Elec       q    Type
REMARK                         _______ _______ _______ _____ _____    ______ ____
ROOT
ATOM      1  C   UNL     1      -0.196  -0.067  -2.808  0.00  0.00    +0.198 A 
ATOM      2  N   UNL     1      -1.304   0.623  -2.686  0.00  0.00    -0.120 NA
ATOM      3  N   UNL     1      -1.815   0.854  -3.969  0.00  0.00    -0.112 NA
ATOM      4  C   UNL     1      -1.005   0.298  -4.836  0.00  0.00    +0.225 A 
ATOM      5  N   UNL     1       0.022  -0.282  -4.143  0.00  0.00    -0.255 N 
ATOM      6  N   UNL     1      -1.158   0.301  -6.216  0.00  0.00    -0.299 N 
ATOM      7  C   UNL     1      -2.370   0.858  -6.833  0.00  0.00    +0.108 C 
ATOM      8  C   UNL     1      -1.958   1.903  -7.874  0.00  0.00    +0.019 C 
ATOM      9  C   UNL     1      -0.981   1.271  -8.868  0.00  0.00    +0.003 C 
ATOM     10  C   UNL     1       0.275   0.807  -8.126  0.00  0.00    +0.019 C 
ATOM     11  C   UNL     1      -0.109  -0.245  -7.088  0.00  0.00    +0.108 C 
ENDROOT
BRANCH   5  12
ATOM     12  C   UNL     1       1.107  -0.977  -4.701  0.00  0.00    +0.093 A 
ATOM     13  C   UNL     1       1.018  -2.343  -4.920  0.00  0.00    +0.030 A 
ATOM     14  C   UNL     1       2.087  -3.026  -5.470  0.00  0.00    +0.002 A 
ATOM     15  C   UNL     1       3.247  -2.349  -5.802  0.00  0.00    +0.004 A 
ATOM     16  C   UNL     1       3.342  -0.987  -5.586  0.00  0.00    +0.048 A 
ATOM     17  C   UNL     1       2.273  -0.295  -5.041  0.00  0.00    +0.144 A 
BRANCH  17  18
ATOM     18  O   UNL     1       2.363   1.045  -4.833  0.00  0.00    -0.493 OA
ATOM     19  C   UNL     1       3.589   1.679  -5.206  0.00  0.00    +0.277 C 
ENDBRANCH  17  18
ENDBRANCH   5  12
BRANCH   1  20
ATOM     20  S   UNL     1       0.835  -0.615  -1.489  0.00  0.00    -0.073 S 
BRANCH  20  22
ATOM     21  C   UNL     1       0.003   1.518   0.008  0.00  0.00    +0.029 C 
ATOM     22  C   UNL     1      -0.003  -0.012   0.003  0.00  0.00    +0.137 C 
BRANCH  22  23
ATOM     23  C   UNL     1       0.717  -0.522   1.224  0.00  0.00    +0.227 C 
ATOM     24  O   UNL     1       1.892  -0.815   1.158  0.00  0.00    -0.275 OA
ATOM     25  N   UNL     1       0.055  -0.652   2.391  0.00  0.00    -0.296 N 
ATOM     26  H   UNL     1      -0.885  -0.418   2.445  0.00  0.00    +0.150 HD
BRANCH  25  27
ATOM     27  C   UNL     1       0.755  -1.147   3.579  0.00  0.00    +0.121 C 
ATOM     28  C   UNL     1       1.916  -0.209   3.915  0.00  0.00    +0.041 C 
ATOM     29  C   UNL     1       2.647  -0.727   5.156  0.00  0.00    +0.003 C 
ATOM     30  C   UNL     1       1.675  -0.778   6.336  0.00  0.00    +0.000 C 
ATOM     31  C   UNL     1       0.514  -1.716   6.000  0.00  0.00    +0.003 C 
ATOM     32  C   UNL     1      -0.217  -1.199   4.759  0.00  0.00    +0.041 C 
BRANCH  27  33
ATOM     33  C   UNL     1       1.277  -2.498   3.314  0.00  0.00    +0.088 C 
ATOM     34  N   UNL     1       1.679  -3.540   3.109  0.00  0.00    -0.194 NA
ENDBRANCH  27  33
ENDBRANCH  25  27
ENDBRANCH  22  23
ENDBRANCH  20  22
ENDBRANCH   1  20
TORSDOF 7
