REMARK  Name = ZINC39534250
REMARK  11 active torsions:
REMARK  status: ('A' for Active; 'I' for Inactive)
REMARK    1  A    between atoms: C_1  and  O_2
REMARK    2  A    between atoms: O_2  and  C_3
REMARK    3  A    between atoms: N_6  and  C_10
REMARK    4  A    between atoms: C_10  and  C_12
REMARK    5  A    between atoms: C_10  and  C_21
REMARK    6  A    between atoms: C_12  and  N_13
REMARK    7  A    between atoms: N_13  and  C_14
REMARK    8  A    between atoms: C_19  and  O_20
REMARK    9  A    between atoms: C_24  and  S_27
REMARK   10  A    between atoms: S_27  and  O_30
REMARK   11  A    between atoms: O_30  and  C_31
REMARK                            x       y       z     vdW  Elec       q    Type
REMARK                         _______ _______ _______ _____ _____    ______ ____
ROOT
ATOM      1  C   UNL     1       1.679  -4.101  -1.895  0.00  0.00    -0.020 C 
ENDROOT
BRANCH   1   4
ATOM      2  C   UNL     1       1.112  -0.510  -0.962  0.00  0.00    +0.169 C 
ATOM      3  C   UNL     1       1.138  -2.032  -0.809  0.00  0.00    -0.030 C 
ATOM      4  N   UNL     1       1.637  -2.641  -2.049  0.00  0.00    +0.389 N 
ATOM      5  C   UNL     1       0.745  -2.291  -3.162  0.00  0.00    -0.062 C 
ATOM      6  C   UNL     1       0.716  -0.771  -3.335  0.00  0.00    +0.065 C 
ATOM      7  N   UNL     1       0.243  -0.148  -2.091  0.00  0.00    -0.295 NA
ATOM      8  H   UNL     1      -0.716  -0.399  -1.903  0.00  0.00    +0.124 HD
ATOM      9  H   UNL     1       2.566  -2.297  -2.241  0.00  0.00    -0.081 HD
BRANCH   2  11
ATOM     10  C   UNL     1       0.749   1.503   0.288  0.00  0.00    +0.196 C 
ATOM     11  O   UNL     1       0.607   0.082   0.237  0.00  0.00    -0.367 OA
ENDBRANCH   2  11
ENDBRANCH   1   4
BRANCH   1  12
ATOM     12  C   UNL     1       2.565  -4.458  -0.729  0.00  0.00    -0.059 A 
ATOM     13  C   UNL     1       3.738  -3.760  -0.513  0.00  0.00    +0.004 A 
ATOM     14  C   UNL     1       4.551  -4.088   0.557  0.00  0.00    +0.031 A 
ATOM     15  C   UNL     1       4.189  -5.113   1.411  0.00  0.00    +0.128 A 
ATOM     16  C   UNL     1       3.015  -5.810   1.196  0.00  0.00    +0.031 A 
ATOM     17  C   UNL     1       2.200  -5.480   0.129  0.00  0.00    +0.004 A 
BRANCH  15  18
ATOM     18  S   UNL     1       5.225  -5.531   2.773  0.00  0.00    +0.151 S 
ATOM     19  O   UNL     1       4.936  -6.883   3.103  0.00  0.00    -0.131 OA
ATOM     20  O   UNL     1       6.534  -5.092   2.438  0.00  0.00    -0.131 OA
BRANCH  18  21
ATOM     21  O   UNL     1       4.773  -4.688   3.957  0.00  0.00    -0.342 OA
BRANCH  21  22
ATOM     22  C   UNL     1       3.612  -5.110   4.525  0.00  0.00    +0.157 A 
ATOM     23  C   UNL     1       2.398  -4.619   4.069  0.00  0.00    +0.048 A 
ATOM     24  C   UNL     1       1.219  -5.049   4.647  0.00  0.00    +0.004 A 
ATOM     25  C   UNL     1       1.250  -5.968   5.680  0.00  0.00    +0.000 A 
ATOM     26  C   UNL     1       2.459  -6.458   6.137  0.00  0.00    +0.004 A 
ATOM     27  C   UNL     1       3.640  -6.035   5.558  0.00  0.00    +0.048 A 
ENDBRANCH  21  22
ENDBRANCH  18  21
ENDBRANCH  15  18
ENDBRANCH   1  12
BRANCH   1  28
ATOM     28  C   UNL     1       2.237  -4.733  -3.171  0.00  0.00    +0.091 C 
BRANCH  28  29
ATOM     29  N   UNL     1       2.205  -6.192  -3.048  0.00  0.00    -0.342 N 
ATOM     30  H   UNL     1       1.795  -6.605  -2.272  0.00  0.00    +0.146 HD
BRANCH  29  31
ATOM     31  C   UNL     1       2.766  -6.992  -4.051  0.00  0.00    +0.069 A 
ATOM     32  C   UNL     1       3.359  -6.404  -5.159  0.00  0.00    +0.026 A 
ATOM     33  C   UNL     1       3.913  -7.195  -6.147  0.00  0.00    +0.002 A 
ATOM     34  C   UNL     1       3.878  -8.573  -6.035  0.00  0.00    +0.004 A 
ATOM     35  C   UNL     1       3.289  -9.166  -4.933  0.00  0.00    +0.047 A 
ATOM     36  C   UNL     1       2.737  -8.380  -3.936  0.00  0.00    +0.138 A 
BRANCH  36  37
ATOM     37  O   UNL     1       2.162  -8.962  -2.849  0.00  0.00    -0.505 OA
ATOM     38  H   UNL     1       1.219  -9.148  -2.955  0.00  0.00    +0.292 HD
ENDBRANCH  36  37
ENDBRANCH  29  31
ENDBRANCH  28  29
ENDBRANCH   1  28
TORSDOF 10
