REMARK  Name = ZINC59170727
REMARK  9 active torsions:
REMARK  status: ('A' for Active; 'I' for Inactive)
REMARK    1  A    between atoms: C_1  and  O_2
REMARK    2  A    between atoms: O_2  and  C_3
REMARK    3  A    between atoms: C_8  and  N_9
REMARK    4  A    between atoms: C_10  and  C_12
REMARK    5  A    between atoms: C_18  and  O_33
REMARK    6  A    between atoms: N_22  and  C_23
REMARK    7  A    between atoms: C_26  and  S_29
REMARK    8  A    between atoms: S_29  and  N_32
REMARK    9  A    between atoms: O_33  and  C_34
REMARK                            x       y       z     vdW  Elec       q    Type
REMARK                         _______ _______ _______ _____ _____    ______ ____
ROOT
ATOM      1  C   UNL     1       1.101  -4.877   0.239  0.00  0.00    +0.098 A 
ATOM      2  C   UNL     1       1.058  -6.265   0.219  0.00  0.00    +0.030 A 
ATOM      3  C   UNL     1       2.338  -6.978   0.248  0.00  0.00    +0.022 A 
ATOM      4  C   UNL     1       2.401  -8.348  -0.035  0.00  0.00    +0.012 A 
ATOM      5  C   UNL     1       3.606  -8.992  -0.008  0.00  0.00    +0.004 A 
ATOM      6  C   UNL     1       4.769  -8.302   0.297  0.00  0.00    +0.049 A 
ATOM      7  C   UNL     1       4.731  -6.948   0.583  0.00  0.00    +0.163 A 
ATOM      8  C   UNL     1       3.513  -6.273   0.563  0.00  0.00    +0.179 A 
ATOM      9  O   UNL     1       3.452  -4.949   0.846  0.00  0.00    -0.435 OA
ATOM     10  C   UNL     1       2.434  -4.245   0.282  0.00  0.00    +0.212 A 
ATOM     11  N   UNL     1       2.629  -3.040  -0.207  0.00  0.00    -0.325 N 
ATOM     12  H   UNL     1       1.924  -2.599  -0.707  0.00  0.00    +0.169 HD
ENDROOT
BRANCH  11  13
ATOM     13  C   UNL     1       3.826  -2.407  -0.010  0.00  0.00    +0.042 A 
ATOM     14  C   UNL     1       4.429  -2.422   1.250  0.00  0.00    +0.027 A 
ATOM     15  C   UNL     1       5.635  -1.782   1.441  0.00  0.00    +0.030 A 
ATOM     16  C   UNL     1       6.249  -1.127   0.388  0.00  0.00    +0.105 A 
ATOM     17  C   UNL     1       5.658  -1.108  -0.863  0.00  0.00    +0.030 A 
ATOM     18  C   UNL     1       4.454  -1.748  -1.070  0.00  0.00    +0.027 A 
BRANCH  16  19
ATOM     19  S   UNL     1       7.790  -0.311   0.642  0.00  0.00    +0.056 S 
ATOM     20  O   UNL     1       7.890   0.690  -0.362  0.00  0.00    -0.153 OA
ATOM     21  O   UNL     1       7.867  -0.010   2.029  0.00  0.00    -0.153 OA
BRANCH  19  22
ATOM     22  N   UNL     1       8.985  -1.414   0.331  0.00  0.00    -0.204 NA
ATOM     23  H   UNL     1       9.842  -1.117  -0.012  0.00  0.00    +0.144 HD
ATOM     24  H   UNL     1       8.827  -2.358   0.490  0.00  0.00    +0.144 HD
ENDBRANCH  19  22
ENDBRANCH  16  19
ENDBRANCH  11  13
BRANCH   1  26
ATOM     25  N   UNL     1      -0.062  -2.731   0.341  0.00  0.00    -0.278 N 
ATOM     26  C   UNL     1      -0.131  -4.071   0.212  0.00  0.00    +0.253 C 
ATOM     27  O   UNL     1      -1.211  -4.614   0.073  0.00  0.00    -0.270 OA
ATOM     28  H   UNL     1       0.801  -2.293   0.403  0.00  0.00    +0.155 HD
BRANCH  25  34
ATOM     29  C   UNL     1      -1.224  -0.695   0.944  0.00  0.00    +0.141 A 
ATOM     30  C   UNL     1      -2.388   0.055   0.980  0.00  0.00    +0.047 A 
ATOM     31  C   UNL     1      -3.561  -0.464   0.465  0.00  0.00    +0.004 A 
ATOM     32  C   UNL     1      -3.577  -1.732  -0.086  0.00  0.00    +0.002 A 
ATOM     33  C   UNL     1      -2.420  -2.487  -0.125  0.00  0.00    +0.027 A 
ATOM     34  C   UNL     1      -1.238  -1.970   0.384  0.00  0.00    +0.076 A 
BRANCH  29  36
ATOM     35  C   UNL     1      -0.129   1.129   2.008  0.00  0.00    +0.277 C 
ATOM     36  O   UNL     1      -0.069  -0.185   1.450  0.00  0.00    -0.493 OA
ENDBRANCH  29  36
ENDBRANCH  25  34
ENDBRANCH   1  26
BRANCH   7  37
ATOM     37  O   UNL     1       5.877  -6.280   0.882  0.00  0.00    -0.491 OA
ATOM     38  C   UNL     1       7.088  -7.038   0.884  0.00  0.00    +0.277 C 
ENDBRANCH   7  37
TORSDOF 7
