REMARK  Name = ZINC39521112
REMARK  9 active torsions:
REMARK  status: ('A' for Active; 'I' for Inactive)
REMARK    1  A    between atoms: C_1  and  C_2
REMARK    2  A    between atoms: C_2  and  C_3
REMARK    3  A    between atoms: C_2  and  S_4
REMARK    4  A    between atoms: S_4  and  C_7
REMARK    5  A    between atoms: C_17  and  S_27
REMARK    6  A    between atoms: N_19  and  C_20
REMARK    7  A    between atoms: C_20  and  C_21
REMARK    8  A    between atoms: S_27  and  O_30
REMARK    9  A    between atoms: O_30  and  C_31
REMARK                            x       y       z     vdW  Elec       q    Type
REMARK                         _______ _______ _______ _____ _____    ______ ____
ROOT
ATOM      1  C   UNL     1      -0.058   1.612   1.988  0.00  0.00    +0.129 C 
ATOM      2  C   UNL     1      -1.227   0.656   1.745  0.00  0.00    +0.026 C 
ATOM      3  C   UNL     1      -2.081   0.563   3.012  0.00  0.00    +0.001 C 
ATOM      4  C   UNL     1      -1.225   0.038   4.166  0.00  0.00    -0.012 C 
ATOM      5  C   UNL     1      -0.055   0.994   4.409  0.00  0.00    -0.061 C 
ATOM      6  C   UNL     1       0.798   1.088   3.143  0.00  0.00    +0.014 C 
ATOM      7  C   UNL     1       0.802   0.465   5.562  0.00  0.00    -0.012 C 
ATOM      8  C   UNL     1       1.971   1.423   5.804  0.00  0.00    -0.001 C 
ATOM      9  C   UNL     1       1.420   2.824   6.088  0.00  0.00    +0.010 C 
ATOM     10  C   UNL     1       0.542   3.266   4.915  0.00  0.00    +0.120 C 
ATOM     11  N   UNL     1      -0.572   2.324   4.751  0.00  0.00    +0.403 N 
ATOM     12  H   UNL     1      -1.179   2.648   4.013  0.00  0.00    -0.078 HD
ENDROOT
BRANCH   1  13
ATOM     13  S   UNL     1       0.955   1.723   0.487  0.00  0.00    -0.026 S 
ATOM     14  O   UNL     1       1.342   0.409   0.107  0.00  0.00    -0.174 OA
ATOM     15  O   UNL     1       1.959   2.707   0.693  0.00  0.00    -0.174 OA
BRANCH  13  17
ATOM     16  C   UNL     1      -0.755   3.712  -0.289  0.00  0.00    +0.031 C 
ATOM     17  C   UNL     1      -0.221   2.352  -0.743  0.00  0.00    +0.125 C 
ATOM     18  C   UNL     1       0.486   2.506  -2.092  0.00  0.00    +0.031 C 
ENDBRANCH  13  17
ENDBRANCH   1  13
BRANCH  10  19
ATOM     19  S   UNL     1      -0.114   4.925   5.244  0.00  0.00    +0.108 S 
ATOM     20  O   UNL     1      -0.893   5.371   4.143  0.00  0.00    -0.138 OA
ATOM     21  O   UNL     1      -0.625   4.995   6.569  0.00  0.00    -0.138 OA
BRANCH  19  22
ATOM     22  O   UNL     1       1.106   5.834   5.250  0.00  0.00    -0.347 OA
BRANCH  22  23
ATOM     23  C   UNL     1       1.608   6.093   4.014  0.00  0.00    +0.156 A 
ATOM     24  C   UNL     1       2.575   5.262   3.468  0.00  0.00    +0.048 A 
ATOM     25  C   UNL     1       3.083   5.528   2.211  0.00  0.00    +0.004 A 
ATOM     26  C   UNL     1       2.628   6.621   1.497  0.00  0.00    +0.000 A 
ATOM     27  C   UNL     1       1.665   7.451   2.039  0.00  0.00    +0.004 A 
ATOM     28  C   UNL     1       1.149   7.187   3.293  0.00  0.00    +0.048 A 
ENDBRANCH  22  23
ENDBRANCH  19  22
ENDBRANCH  10  19
BRANCH  11  29
ATOM     29  C   UNL     1      -1.333   2.245   6.006  0.00  0.00    -0.039 C 
BRANCH  29  30
ATOM     30  C   UNL     1      -2.738   1.786   5.713  0.00  0.00    -0.064 A 
ATOM     31  C   UNL     1      -3.528   2.498   4.831  0.00  0.00    +0.002 A 
ATOM     32  C   UNL     1      -4.817   2.078   4.563  0.00  0.00    +0.000 A 
ATOM     33  C   UNL     1      -5.316   0.944   5.176  0.00  0.00    +0.000 A 
ATOM     34  C   UNL     1      -4.525   0.230   6.058  0.00  0.00    +0.000 A 
ATOM     35  C   UNL     1      -3.235   0.649   6.323  0.00  0.00    +0.002 A 
ENDBRANCH  29  30
ENDBRANCH  11  29
TORSDOF 7
