REMARK  Name = ZINC07125545
REMARK  2 active torsions:
REMARK  status: ('A' for Active; 'I' for Inactive)
REMARK    1  A    between atoms: C_4  and  C_7
REMARK    2  A    between atoms: C_8  and  C_9
REMARK                            x       y       z     vdW  Elec       q    Type
REMARK                         _______ _______ _______ _____ _____    ______ ____
ROOT
ATOM      1  C   UNL     1       1.239  -0.784  -0.126  0.00  0.00    +0.220 C 
ATOM      2  N   UNL     1       1.111  -1.741  -1.240  0.00  0.00    -0.292 N 
ATOM      3  C   UNL     1       0.493  -2.946  -1.036  0.00  0.00    +0.183 C 
ATOM      4  N   UNL     1       0.522  -3.543   0.143  0.00  0.00    -0.183 NA
ATOM      5  C   UNL     1       1.127  -2.908   1.173  0.00  0.00    +0.236 A 
ATOM      6  N   UNL     1       1.497  -1.575   1.083  0.00  0.00    -0.284 N 
ATOM      7  C   UNL     1       2.086  -1.234   2.263  0.00  0.00    +0.072 A 
ATOM      8  C   UNL     1       2.655  -0.056   2.732  0.00  0.00    +0.028 A 
ATOM      9  C   UNL     1       3.167  -0.070   4.019  0.00  0.00    +0.002 A 
ATOM     10  C   UNL     1       3.122  -1.200   4.816  0.00  0.00    +0.002 A 
ATOM     11  C   UNL     1       2.562  -2.385   4.374  0.00  0.00    +0.030 A 
ATOM     12  C   UNL     1       2.038  -2.396   3.076  0.00  0.00    +0.091 A 
ATOM     13  N   UNL     1       1.438  -3.368   2.361  0.00  0.00    -0.210 NA
ATOM     14  N   UNL     1      -0.167  -3.545  -2.075  0.00  0.00    -0.331 N 
ATOM     15  H   UNL     1       1.464  -1.518  -2.115  0.00  0.00    +0.151 HD
ATOM     16  H   UNL     1      -0.195  -3.116  -2.944  0.00  0.00    +0.145 HD
ATOM     17  H   UNL     1      -0.608  -4.399  -1.941  0.00  0.00    +0.145 HD
ENDROOT
BRANCH   1  19
ATOM     18  C   UNL     1      -0.016   1.323   0.009  0.00  0.00    +0.027 C 
ATOM     19  C   UNL     1      -0.041  -0.004   0.032  0.00  0.00    +0.060 C 
ATOM     20 CL   UNL     1      -1.547  -0.840   0.244  0.00  0.00    -0.084 Cl
BRANCH  18  24
ATOM     21  C   UNL     1      -3.534   3.529   0.902  0.00  0.00    +0.000 A 
ATOM     22  C   UNL     1      -3.299   2.321   1.535  0.00  0.00    +0.001 A 
ATOM     23  C   UNL     1      -2.158   1.600   1.249  0.00  0.00    +0.008 A 
ATOM     24  C   UNL     1      -1.240   2.091   0.320  0.00  0.00    -0.024 A 
ATOM     25  C   UNL     1      -1.480   3.312  -0.311  0.00  0.00    +0.008 A 
ATOM     26  C   UNL     1      -2.628   4.021  -0.021  0.00  0.00    +0.001 A 
ENDBRANCH  18  24
ENDBRANCH   1  19
TORSDOF 2
