REMARK  Name = ZINC20914788
REMARK  12 active torsions:
REMARK  status: ('A' for Active; 'I' for Inactive)
REMARK    1  A    between atoms: C_1  and  C_2
REMARK    2  A    between atoms: C_2  and  O_3
REMARK    3  A    between atoms: O_3  and  C_4
REMARK    4  A    between atoms: C_4  and  C_6
REMARK    5  A    between atoms: C_10  and  N_11
REMARK    6  A    between atoms: C_12  and  C_14
REMARK    7  A    between atoms: C_14  and  S_15
REMARK    8  A    between atoms: S_15  and  C_16
REMARK    9  A    between atoms: N_20  and  N_21
REMARK   10  A    between atoms: N_22  and  N_23
REMARK   11  A    between atoms: C_24  and  C_25
REMARK   12  A    between atoms: C_29  and  O_31
REMARK                            x       y       z     vdW  Elec       q    Type
REMARK                         _______ _______ _______ _____ _____    ______ ____
ROOT
ATOM      1  C   UNL     1      -3.953   9.647   0.089  0.00  0.00    +0.210 A 
ATOM      2  N   UNL     1      -4.590   8.500   0.090  0.00  0.00    -0.119 NA
ATOM      3  N   UNL     1      -3.636   7.475   0.070  0.00  0.00    -0.109 NA
ATOM      4  C   UNL     1      -2.447   8.028   0.066  0.00  0.00    +0.254 A 
ATOM      5  N   UNL     1      -2.612   9.385   0.074  0.00  0.00    -0.211 N 
ATOM      6  N   UNL     1      -1.234   7.354   0.051  0.00  0.00    -0.204 N 
ATOM      7  H   UNL     1      -0.291   7.920   0.044  0.00  0.00    +0.177 HD
ENDROOT
BRANCH   5   8
ATOM      8  N   UNL     1      -1.613  10.316   0.069  0.00  0.00    -0.294 N 
ATOM      9  H   UNL     1      -0.561   9.993   0.057  0.00  0.00    +0.163 HD
ATOM     10  H   UNL     1      -1.859  11.388   0.077  0.00  0.00    +0.163 HD
ENDBRANCH   5   8
BRANCH   6  11
ATOM     11  N   UNL     1      -1.211   5.953   0.044  0.00  0.00    -0.188 NA
ATOM     12  C   UNL     1      -0.076   5.323   0.030  0.00  0.00    +0.138 C 
BRANCH  12  13
ATOM     13  C   UNL     1      -0.051   3.849   0.023  0.00  0.00    -0.002 A 
ATOM     14  C   UNL     1      -1.248   3.127   0.031  0.00  0.00    +0.010 A 
ATOM     15  C   UNL     1      -1.221   1.748   0.017  0.00  0.00    +0.004 A 
ATOM     16  C   UNL     1      -0.013   1.076   0.008  0.00  0.00    +0.045 A 
ATOM     17  C   UNL     1       1.182   1.784   0.000  0.00  0.00    +0.117 A 
ATOM     18  C   UNL     1       1.167   3.168   0.007  0.00  0.00    +0.054 A 
BRANCH  17  19
ATOM     19  O   UNL     1       2.366   1.117  -0.015  0.00  0.00    -0.507 OA
ATOM     20  H   UNL     1       3.313   1.677  -0.021  0.00  0.00    +0.292 HD
ENDBRANCH  17  19
ENDBRANCH  12  13
ENDBRANCH   6  11
BRANCH   1  21
ATOM     21  S   UNL     1      -4.696  11.245   0.104  0.00  0.00    -0.075 S 
BRANCH  21  22
ATOM     22  C   UNL     1      -6.477  10.900   0.120  0.00  0.00    +0.173 C 
BRANCH  22  24
ATOM     23  N   UNL     1      -8.587  12.190   0.147  0.00  0.00    -0.279 N 
ATOM     24  C   UNL     1      -7.239  12.200   0.134  0.00  0.00    +0.228 C 
ATOM     25  O   UNL     1      -6.641  13.255   0.134  0.00  0.00    -0.275 OA
ATOM     26  H   UNL     1      -9.130  11.234   0.148  0.00  0.00    +0.155 HD
BRANCH  23  31
ATOM     27  C   UNL     1     -10.661  13.579   0.169  0.00  0.00    +0.091 A 
ATOM     28  C   UNL     1     -11.150  14.957   0.186  0.00  0.00    -0.021 A 
ATOM     29  C   UNL     1     -10.193  15.903   0.182  0.00  0.00    -0.004 A 
ATOM     30  S   UNL     1      -8.664  14.999   0.162  0.00  0.00    -0.077 S 
ATOM     31  C   UNL     1      -9.289  13.386   0.160  0.00  0.00    +0.086 A 
ATOM     32  C   UNL     1     -10.773  17.291   0.198  0.00  0.00    +0.043 C 
ATOM     33  C   UNL     1     -12.237  17.097   0.650  0.00  0.00    +0.010 C 
ATOM     34  C   UNL     1     -12.514  15.648   0.202  0.00  0.00    +0.037 C 
BRANCH  27  35
ATOM     35  C   UNL     1     -11.587  12.445   0.166  0.00  0.00    +0.342 C 
ATOM     36  O   UNL     1     -11.966  11.966   1.218  0.00  0.00    -0.245 OA
BRANCH  35  37
ATOM     37  O   UNL     1     -12.020  11.930  -1.004  0.00  0.00    -0.461 OA
BRANCH  37  39
ATOM     38  C   UNL     1     -13.313  10.364  -2.346  0.00  0.00    +0.048 C 
ATOM     39  C   UNL     1     -12.936  10.807  -0.931  0.00  0.00    +0.229 C 
ENDBRANCH  37  39
ENDBRANCH  35  37
ENDBRANCH  27  35
ENDBRANCH  23  31
ENDBRANCH  22  24
ENDBRANCH  21  22
ENDBRANCH   1  21
TORSDOF 11
