REMARK  Name = ZINC43289274
REMARK  8 active torsions:
REMARK  status: ('A' for Active; 'I' for Inactive)
REMARK    1  A    between atoms: C_1  and  C_2
REMARK    2  A    between atoms: C_2  and  C_3
REMARK    3  A    between atoms: C_3  and  C_5
REMARK    4  A    between atoms: C_3  and  N_23
REMARK    5  A    between atoms: C_5  and  C_7
REMARK    6  A    between atoms: C_5  and  O_13
REMARK    7  A    between atoms: O_13  and  C_14
REMARK    8  A    between atoms: C_19  and  C_20
REMARK                            x       y       z     vdW  Elec       q    Type
REMARK                         _______ _______ _______ _____ _____    ______ ____
ROOT
ATOM      1  C   UNL     1       0.877  -2.046   1.169  0.00  0.00    +0.196 C 
ENDROOT
BRANCH   1   2
ATOM      2  C   UNL     1       1.763  -2.473   0.027  0.00  0.00    +0.029 A 
ATOM      3  C   UNL     1       3.067  -2.843   0.050  0.00  0.00    +0.030 A 
ATOM      4  C   UNL     1       3.683  -3.199  -1.135  0.00  0.00    +0.025 A 
ATOM      5  C   UNL     1       2.965  -3.168  -2.285  0.00  0.00    +0.060 A 
ATOM      6  S   UNL     1       1.365  -2.630  -1.706  0.00  0.00    -0.097 S 
ATOM      7 BR   UNL     1       5.501  -3.722  -1.152  0.00  0.00    -0.050 Br
ENDBRANCH   1   2
BRANCH   1   8
ATOM      8  C   UNL     1       0.768  -0.520   1.187  0.00  0.00    -0.029 C 
BRANCH   8   9
ATOM      9  N   UNL     1       0.004  -0.098   2.369  0.00  0.00    +0.383 N 
ATOM     10  H   UNL     1       0.476  -0.410   3.204  0.00  0.00    -0.089 HD
ATOM     11  H   UNL     1      -0.068   0.909   2.381  0.00  0.00    -0.089 HD
ATOM     12  H   UNL     1      -0.920  -0.501   2.334  0.00  0.00    -0.089 HD
ENDBRANCH   8   9
BRANCH   8  14
ATOM     13  C   UNL     1       0.053   1.484  -0.122  0.00  0.00    +0.002 C 
ATOM     14  C   UNL     1       0.052  -0.045  -0.079  0.00  0.00    -0.016 C 
ENDBRANCH   8  14
ENDBRANCH   1   8
BRANCH   1  15
ATOM     15  O   UNL     1      -0.423  -2.615   1.003  0.00  0.00    -0.485 OA
BRANCH  15  16
ATOM     16  C   UNL     1      -1.063  -3.028   2.125  0.00  0.00    +0.133 A 
ATOM     17  C   UNL     1      -0.508  -2.785   3.373  0.00  0.00    +0.046 A 
ATOM     18  C   UNL     1      -1.160  -3.206   4.514  0.00  0.00    +0.004 A 
ATOM     19  C   UNL     1      -2.372  -3.873   4.424  0.00  0.00    +0.001 A 
ATOM     20  C   UNL     1      -2.938  -4.122   3.193  0.00  0.00    +0.017 A 
ATOM     21  C   UNL     1      -2.291  -3.696   2.030  0.00  0.00    +0.078 A 
BRANCH  21  22
ATOM     22  C   UNL     1      -2.894  -3.954   0.708  0.00  0.00    +0.245 C 
ATOM     23  O   UNL     1      -2.326  -3.587  -0.302  0.00  0.00    -0.270 OA
ATOM     24  N   UNL     1      -4.075  -4.598   0.621  0.00  0.00    -0.325 N 
ATOM     25  H   UNL     1      -4.529  -4.891   1.427  0.00  0.00    +0.145 HD
ATOM     26  H   UNL     1      -4.472  -4.768  -0.248  0.00  0.00    +0.145 HD
ENDBRANCH  21  22
ENDBRANCH  15  16
ENDBRANCH   1  15
TORSDOF 7
