REMARK  Name = ZINC39687091
REMARK  8 active torsions:
REMARK  status: ('A' for Active; 'I' for Inactive)
REMARK    1  A    between atoms: C_1  and  C_2
REMARK    2  A    between atoms: C_2  and  C_4
REMARK    3  A    between atoms: C_2  and  N_12
REMARK    4  A    between atoms: C_4  and  C_5
REMARK    5  A    between atoms: C_13  and  C_15
REMARK    6  A    between atoms: C_26  and  C_28
REMARK    7  A    between atoms: C_33  and  S_34
REMARK    8  A    between atoms: S_34  and  C_35
REMARK                            x       y       z     vdW  Elec       q    Type
REMARK                         _______ _______ _______ _____ _____    ______ ____
ROOT
ATOM      1  C   UNL     1       2.810  -2.389   2.857  0.00  0.00    +0.100 C 
ATOM      2  C   UNL     1       2.576  -1.101   3.678  0.00  0.00    +0.121 C 
ATOM      3  N   UNL     1       3.905  -0.770   4.243  0.00  0.00    -0.296 N 
ATOM      4  C   UNL     1       4.858  -1.078   3.149  0.00  0.00    +0.115 C 
ATOM      5  C   UNL     1       4.309  -2.370   2.512  0.00  0.00    -0.004 C 
ATOM      6  C   UNL     1       5.004  -3.590   3.109  0.00  0.00    -0.010 C 
ATOM      7  C   UNL     1       6.481  -3.578   2.704  0.00  0.00    -0.082 C 
ATOM      8  N   UNL     1       6.589  -3.596   1.240  0.00  0.00    +0.379 N 
ATOM      9  C   UNL     1       6.000  -2.374   0.680  0.00  0.00    -0.082 C 
ATOM     10  C   UNL     1       4.502  -2.335   0.999  0.00  0.00    -0.010 C 
ATOM     11  C   UNL     1       4.185  -0.295   5.473  0.00  0.00    +0.249 C 
ATOM     12  O   UNL     1       5.325   0.016   5.760  0.00  0.00    -0.270 OA
ATOM     13  H   UNL     1       7.562  -3.650   0.977  0.00  0.00    -0.086 HD
ATOM     14  H   UNL     1       6.100  -4.401   0.878  0.00  0.00    -0.086 HD
ENDROOT
BRANCH  11  15
ATOM     15  C   UNL     1       3.110  -0.154   6.471  0.00  0.00    +0.069 A 
ATOM     16  C   UNL     1       1.845   0.314   6.094  0.00  0.00    +0.017 A 
ATOM     17  C   UNL     1       0.870   0.428   7.069  0.00  0.00    +0.020 A 
ATOM     18  C   UNL     1       1.167   0.081   8.375  0.00  0.00    +0.112 A 
ATOM     19  N   UNL     1       2.364  -0.358   8.710  0.00  0.00    -0.248 NA
ATOM     20  C   UNL     1       3.333  -0.492   7.817  0.00  0.00    +0.114 A 
BRANCH  20  21
ATOM     21  S   UNL     1       4.912  -1.090   8.320  0.00  0.00    -0.069 S 
BRANCH  21  22
ATOM     22  C   UNL     1       4.722  -1.398  10.044  0.00  0.00    +0.014 A 
ATOM     23  C   UNL     1       4.397  -2.672  10.493  0.00  0.00    +0.015 A 
ATOM     24  C   UNL     1       4.250  -2.910  11.845  0.00  0.00    +0.001 A 
ATOM     25  C   UNL     1       4.423  -1.881  12.752  0.00  0.00    +0.000 A 
ATOM     26  C   UNL     1       4.746  -0.612  12.310  0.00  0.00    +0.001 A 
ATOM     27  C   UNL     1       4.901  -0.368  10.960  0.00  0.00    +0.015 A 
ENDBRANCH  21  22
ENDBRANCH  20  21
ENDBRANCH  11  15
BRANCH   1  29
ATOM     28  N   UNL     1       1.491  -3.518   1.095  0.00  0.00    -0.312 N 
ATOM     29  C   UNL     1       1.981  -2.368   1.599  0.00  0.00    +0.218 C 
ATOM     30  O   UNL     1       1.755  -1.316   1.040  0.00  0.00    -0.275 OA
ATOM     31  H   UNL     1       1.672  -4.359   1.543  0.00  0.00    +0.149 HD
BRANCH  28  33
ATOM     32  C   UNL     1      -0.773  -3.202   0.227  0.00  0.00    +0.028 C 
ATOM     33  C   UNL     1       0.685  -3.497  -0.128  0.00  0.00    +0.074 C 
BRANCH  33  34
ATOM     34  C   UNL     1       0.776  -4.858  -0.822  0.00  0.00    +0.060 C 
BRANCH  34  35
ATOM     35  C   UNL     1       2.192  -5.094  -1.281  0.00  0.00    -0.010 A 
ATOM     36  C   UNL     1       2.562  -4.774  -2.574  0.00  0.00    +0.006 A 
ATOM     37  C   UNL     1       3.861  -4.990  -2.995  0.00  0.00    +0.000 A 
ATOM     38  C   UNL     1       4.791  -5.527  -2.124  0.00  0.00    +0.003 A 
ATOM     39  C   UNL     1       4.423  -5.848  -0.831  0.00  0.00    +0.038 A 
ATOM     40  C   UNL     1       3.124  -5.626  -0.406  0.00  0.00    +0.127 A 
ATOM     41  F   UNL     1       2.765  -5.935   0.859  0.00  0.00    -0.205 F 
ENDBRANCH  34  35
ENDBRANCH  33  34
ENDBRANCH  28  33
ENDBRANCH   1  29
TORSDOF 7
