REMARK  Name = ZINC36346087
REMARK  13 active torsions:
REMARK  status: ('A' for Active; 'I' for Inactive)
REMARK    1  A    between atoms: C_1  and  C_2
REMARK    2  A    between atoms: C_3  and  C_21
REMARK    3  A    between atoms: C_4  and  O_13
REMARK    4  A    between atoms: N_5  and  C_7
REMARK    5  A    between atoms: O_13  and  C_14
REMARK    6  A    between atoms: C_21  and  N_22
REMARK    7  A    between atoms: N_22  and  C_23
REMARK    8  A    between atoms: N_22  and  C_27
REMARK    9  A    between atoms: C_23  and  C_24
REMARK   10  A    between atoms: C_27  and  C_28
REMARK   11  A    between atoms: C_28  and  C_30
REMARK   12  A    between atoms: C_28  and  O_37
REMARK   13  A    between atoms: C_30  and  C_31
REMARK                            x       y       z     vdW  Elec       q    Type
REMARK                         _______ _______ _______ _____ _____    ______ ____
ROOT
ATOM      1  C   UNL     1       1.386   1.083   0.650  0.00  0.00    +0.068 C 
ATOM      2  C   UNL     1       0.804  -0.301   0.518  0.00  0.00    +0.065 A 
ATOM      3  C   UNL     1       0.289  -0.863  -0.654  0.00  0.00    +0.021 A 
ATOM      4  C   UNL     1      -0.138  -2.120  -0.362  0.00  0.00    +0.225 A 
ATOM      5  N   UNL     1       0.105  -2.338   0.958  0.00  0.00    -0.200 N 
ATOM      6  N   UNL     1       0.700  -1.182   1.480  0.00  0.00    -0.168 NA
ENDROOT
BRANCH   5   7
ATOM      7  C   UNL     1      -0.184  -3.511   1.669  0.00  0.00    +0.069 A 
ATOM      8  C   UNL     1      -1.391  -4.167   1.467  0.00  0.00    +0.028 A 
ATOM      9  C   UNL     1      -1.672  -5.323   2.169  0.00  0.00    +0.002 A 
ATOM     10  C   UNL     1      -0.753  -5.827   3.071  0.00  0.00    +0.000 A 
ATOM     11  C   UNL     1       0.450  -5.176   3.273  0.00  0.00    +0.002 A 
ATOM     12  C   UNL     1       0.739  -4.023   2.571  0.00  0.00    +0.028 A 
ENDBRANCH   5   7
BRANCH   4  13
ATOM     13  O   UNL     1      -0.703  -2.998  -1.230  0.00  0.00    -0.435 OA
BRANCH  13  14
ATOM     14  C   UNL     1      -2.045  -2.925  -1.428  0.00  0.00    +0.165 A 
ATOM     15  C   UNL     1      -2.780  -1.907  -0.839  0.00  0.00    +0.049 A 
ATOM     16  C   UNL     1      -4.145  -1.834  -1.042  0.00  0.00    +0.004 A 
ATOM     17  C   UNL     1      -4.780  -2.776  -1.831  0.00  0.00    +0.003 A 
ATOM     18  C   UNL     1      -4.051  -3.793  -2.420  0.00  0.00    +0.042 A 
ATOM     19  C   UNL     1      -2.684  -3.867  -2.225  0.00  0.00    +0.165 A 
ATOM     20  F   UNL     1      -1.971  -4.858  -2.804  0.00  0.00    -0.202 F 
ENDBRANCH  13  14
ENDBRANCH   4  13
BRANCH   3  21
ATOM     21  C   UNL     1       0.218  -0.192  -2.002  0.00  0.00    -0.036 C 
BRANCH  21  22
ATOM     22  N   UNL     1       1.507  -0.342  -2.691  0.00  0.00    +0.384 N 
ATOM     23  H   UNL     1       2.244   0.034  -2.113  0.00  0.00    -0.081 HD
BRANCH  22  24
ATOM     24  C   UNL     1       1.468   0.385  -3.967  0.00  0.00    -0.075 C 
BRANCH  24  25
ATOM     25  C   UNL     1       1.258   1.876  -3.699  0.00  0.00    -0.028 C 
ATOM     26  C   UNL     1       2.413   2.823  -4.031  0.00  0.00    +0.002 C 
ATOM     27  C   UNL     1       1.161   2.806  -4.910  0.00  0.00    +0.002 C 
ENDBRANCH  24  25
ENDBRANCH  22  24
BRANCH  22  28
ATOM     28  C   UNL     1       1.764  -1.766  -2.946  0.00  0.00    -0.046 C 
BRANCH  28  29
ATOM     29  C   UNL     1       3.185  -1.939  -3.486  0.00  0.00    +0.102 C 
BRANCH  29  30
ATOM     30  O   UNL     1       3.269  -1.375  -4.796  0.00  0.00    -0.393 OA
ATOM     31  H   UNL     1       2.669  -1.780  -5.438  0.00  0.00    +0.210 HD
ENDBRANCH  29  30
BRANCH  29  32
ATOM     32  C   UNL     1       3.528  -3.429  -3.549  0.00  0.00    +0.064 C 
BRANCH  32  33
ATOM     33  C   UNL     1       4.968  -3.596  -3.963  0.00  0.00    -0.045 A 
ATOM     34  C   UNL     1       5.294  -3.695  -5.302  0.00  0.00    +0.004 A 
ATOM     35  C   UNL     1       6.615  -3.848  -5.682  0.00  0.00    +0.000 A 
ATOM     36  C   UNL     1       7.608  -3.901  -4.722  0.00  0.00    +0.000 A 
ATOM     37  C   UNL     1       7.281  -3.801  -3.383  0.00  0.00    +0.000 A 
ATOM     38  C   UNL     1       5.962  -3.644  -3.003  0.00  0.00    +0.004 A 
ENDBRANCH  32  33
ENDBRANCH  29  32
ENDBRANCH  28  29
ENDBRANCH  22  28
ENDBRANCH  21  22
ENDBRANCH   3  21
TORSDOF 12
