REMARK  Name = ZINC58550428
REMARK  8 active torsions:
REMARK  status: ('A' for Active; 'I' for Inactive)
REMARK    1  A    between atoms: C_1  and  C_2
REMARK    2  A    between atoms: C_4  and  C_35
REMARK    3  A    between atoms: C_9  and  C_10
REMARK    4  A    between atoms: C_10  and  N_11
REMARK    5  A    between atoms: C_12  and  C_14
REMARK    6  A    between atoms: C_16  and  C_29
REMARK    7  A    between atoms: N_22  and  C_23
REMARK    8  A    between atoms: C_23  and  C_24
REMARK                            x       y       z     vdW  Elec       q    Type
REMARK                         _______ _______ _______ _____ _____    ______ ____
ROOT
ATOM      1  C   UNL     1      -2.978   0.875   4.667  0.00  0.00    +0.051 A 
ATOM      2  C   UNL     1      -4.045   0.345   3.951  0.00  0.00    +0.042 A 
ATOM      3  C   UNL     1      -5.341   0.472   4.460  0.00  0.00    +0.076 A 
ATOM      4  N   UNL     1      -5.572   1.086   5.609  0.00  0.00    -0.227 NA
ATOM      5  C   UNL     1      -4.595   1.610   6.332  0.00  0.00    +0.160 A 
ATOM      6  C   UNL     1      -3.257   1.520   5.893  0.00  0.00    +0.051 A 
ATOM      7  C   UNL     1      -2.458   2.155   6.866  0.00  0.00    +0.145 A 
ATOM      8  N   UNL     1      -3.231   2.591   7.820  0.00  0.00    -0.177 NA
ATOM      9  N   UNL     1      -4.564   2.283   7.526  0.00  0.00    -0.239 N 
ENDROOT
BRANCH   3  10
ATOM     10  C   UNL     1      -6.479  -0.093   3.697  0.00  0.00    +0.019 A 
ATOM     11  C   UNL     1      -7.794   0.114   4.126  0.00  0.00    +0.013 A 
ATOM     12  C   UNL     1      -8.822  -0.435   3.378  0.00  0.00    +0.020 A 
ATOM     13  C   UNL     1      -8.518  -1.163   2.242  0.00  0.00    +0.111 A 
ATOM     14  N   UNL     1      -7.268  -1.342   1.863  0.00  0.00    -0.263 NA
ATOM     15  C   UNL     1      -6.257  -0.835   2.539  0.00  0.00    +0.120 A 
ENDBRANCH   3  10
BRANCH   1  17
ATOM     16  N   UNL     1      -1.348   0.142   2.992  0.00  0.00    -0.307 N 
ATOM     17  C   UNL     1      -1.592   0.762   4.163  0.00  0.00    +0.245 C 
ATOM     18  O   UNL     1      -0.672   1.228   4.807  0.00  0.00    -0.270 OA
ATOM     19  H   UNL     1      -2.083  -0.230   2.478  0.00  0.00    +0.149 HD
BRANCH  16  20
ATOM     20  C   UNL     1       0.025   0.030   2.493  0.00  0.00    +0.145 C 
BRANCH  20  29
ATOM     21  C   UNL     1      -0.018   1.503   0.010  0.00  0.00    +0.044 C 
ATOM     22  C   UNL     1       0.002  -0.004   0.002  0.00  0.00    -0.039 A 
ATOM     23  C   UNL     1       0.006  -0.706  -1.212  0.00  0.00    +0.024 A 
ATOM     24  C   UNL     1       0.025  -2.059  -1.209  0.00  0.00    +0.016 A 
ATOM     25  N   UNL     1       0.040  -2.750  -0.040  0.00  0.00    -0.326 N 
ATOM     26  H   UNL     1       0.054  -3.720  -0.057  0.00  0.00    +0.169 HD
ATOM     27  C   UNL     1       0.037  -2.105   1.141  0.00  0.00    +0.254 A 
ATOM     28  O   UNL     1       0.051  -2.740   2.183  0.00  0.00    -0.268 OA
ATOM     29  C   UNL     1       0.023  -0.700   1.175  0.00  0.00    +0.037 A 
ATOM     30  C   UNL     1       0.029  -2.807  -2.517  0.00  0.00    +0.063 C 
ENDBRANCH  20  29
ENDBRANCH  16  20
ENDBRANCH   1  17
BRANCH   9  31
ATOM     31  C   UNL     1      -5.725   2.608   8.359  0.00  0.00    +0.220 C 
BRANCH  31  32
ATOM     32  C   UNL     1      -5.973   1.487   9.335  0.00  0.00    +0.126 A 
ATOM     33  C   UNL     1      -5.451   1.390  10.571  0.00  0.00    +0.046 A 
ATOM     34  C   UNL     1      -5.946   0.190  11.131  0.00  0.00    +0.041 A 
ATOM     35  C   UNL     1      -6.741  -0.374  10.204  0.00  0.00    +0.195 A 
ATOM     36  O   UNL     1      -6.758   0.419   9.121  0.00  0.00    -0.466 OA
ENDBRANCH  31  32
ENDBRANCH   9  31
TORSDOF 6
