REMARK  Name = ZINC36589840
REMARK  6 active torsions:
REMARK  status: ('A' for Active; 'I' for Inactive)
REMARK    1  A    between atoms: C_1  and  C_2
REMARK    2  A    between atoms: C_2  and  C_4
REMARK    3  A    between atoms: C_2  and  N_8
REMARK    4  A    between atoms: C_4  and  O_6
REMARK    5  A    between atoms: O_6  and  C_7
REMARK    6  A    between atoms: C_20  and  C_22
REMARK                            x       y       z     vdW  Elec       q    Type
REMARK                         _______ _______ _______ _____ _____    ______ ____
ROOT
ATOM      1  N   UNL     1      -1.435  -0.290   2.476  0.00  0.00    -0.286 N 
ATOM      2  C   UNL     1      -1.976  -0.623   1.286  0.00  0.00    +0.304 C 
ATOM      3  O   UNL     1      -1.366  -0.400   0.258  0.00  0.00    -0.253 OA
ATOM      4  N   UNL     1      -3.191  -1.202   1.237  0.00  0.00    -0.273 N 
ATOM      5  C   UNL     1      -3.749  -1.674  -0.039  0.00  0.00    +0.116 C 
ATOM      6  C   UNL     1      -5.008  -0.861  -0.368  0.00  0.00    +0.074 C 
ATOM      7  C   UNL     1      -5.853  -0.751   0.873  0.00  0.00    +0.040 A 
ATOM      8  C   UNL     1      -5.411  -0.974   2.130  0.00  0.00    +0.062 A 
ATOM      9  N   UNL     1      -6.430  -0.779   2.969  0.00  0.00    -0.348 N 
ATOM     10  C   UNL     1      -7.492  -0.446   2.283  0.00  0.00    +0.171 A 
ATOM     11  N   UNL     1      -7.171  -0.419   0.969  0.00  0.00    -0.349 N 
ATOM     12  H   UNL     1      -7.766  -0.204   0.234  0.00  0.00    +0.166 HD
ATOM     13  C   UNL     1      -3.992  -1.384   2.461  0.00  0.00    +0.159 C 
ATOM     14  H   UNL     1      -1.951  -0.401   3.290  0.00  0.00    +0.151 HD
ATOM     15  H   UNL     1      -6.390  -0.870   3.934  0.00  0.00    +0.167 HD
ENDROOT
BRANCH  13  16
ATOM     16  C   UNL     1      -3.957  -2.829   2.887  0.00  0.00    +0.014 A 
ATOM     17  C   UNL     1      -5.045  -3.647   2.646  0.00  0.00    +0.010 A 
ATOM     18  C   UNL     1      -5.014  -4.972   3.036  0.00  0.00    +0.016 A 
ATOM     19  C   UNL     1      -3.893  -5.482   3.668  0.00  0.00    +0.021 A 
ATOM     20  C   UNL     1      -2.804  -4.665   3.910  0.00  0.00    +0.054 A 
ATOM     21  C   UNL     1      -2.833  -3.339   3.514  0.00  0.00    +0.130 A 
ATOM     22  F   UNL     1      -1.768  -2.541   3.746  0.00  0.00    -0.205 F 
ATOM     23 BR   UNL     1      -3.852  -7.296   4.202  0.00  0.00    -0.050 Br
ENDBRANCH  13  16
BRANCH   1  25
ATOM     24  C   UNL     1       0.925  -0.924   2.577  0.00  0.00    +0.040 C 
ATOM     25  C   UNL     1      -0.070   0.238   2.538  0.00  0.00    +0.180 C 
BRANCH  25  26
ATOM     26  C   UNL     1       0.087   1.075   3.781  0.00  0.00    +0.327 C 
ATOM     27  O   UNL     1      -0.845   1.217   4.537  0.00  0.00    -0.249 OA
BRANCH  26  28
ATOM     28  O   UNL     1       1.264   1.665   4.048  0.00  0.00    -0.467 OA
ATOM     29  C   UNL     1       1.342   2.444   5.243  0.00  0.00    +0.280 C 
ENDBRANCH  26  28
ENDBRANCH  25  26
ENDBRANCH   1  25
TORSDOF 4
