REMARK  Name = ZINC40741854
REMARK  12 active torsions:
REMARK  status: ('A' for Active; 'I' for Inactive)
REMARK    1  A    between atoms: C_1  and  C_2
REMARK    2  A    between atoms: C_2  and  O_3
REMARK    3  A    between atoms: O_3  and  C_4
REMARK    4  A    between atoms: C_6  and  C_20
REMARK    5  A    between atoms: C_9  and  O_10
REMARK    6  A    between atoms: O_10  and  C_11
REMARK    7  A    between atoms: C_11  and  C_12
REMARK    8  A    between atoms: C_16  and  C_18
REMARK    9  A    between atoms: C_20  and  N_21
REMARK   10  A    between atoms: N_21  and  C_22
REMARK   11  A    between atoms: C_22  and  C_23
REMARK   12  A    between atoms: C_23  and  C_24
REMARK                            x       y       z     vdW  Elec       q    Type
REMARK                         _______ _______ _______ _____ _____    ______ ____
ROOT
ATOM      1  C   UNL     1      -1.498  -1.849   0.006  0.00  0.00    +0.164 A 
ATOM      2  C   UNL     1      -0.389  -2.680  -0.003  0.00  0.00    +0.051 A 
ATOM      3  C   UNL     1      -0.552  -4.052  -0.009  0.00  0.00    -0.059 A 
ATOM      4  C   UNL     1      -1.822  -4.600  -0.006  0.00  0.00    +0.025 A 
ATOM      5  C   UNL     1      -2.934  -3.777   0.003  0.00  0.00    +0.086 A 
ATOM      6  C   UNL     1      -2.776  -2.400   0.016  0.00  0.00    +0.181 A 
ATOM      7 CL   UNL     1      -4.526  -4.469   0.006  0.00  0.00    -0.080 Cl
ENDROOT
BRANCH   1   8
ATOM      8  O   UNL     1      -1.339  -0.499   0.012  0.00  0.00    -0.489 OA
BRANCH   8  10
ATOM      9  C   UNL     1      -0.019   1.526   0.010  0.00  0.00    +0.048 C 
ATOM     10  C   UNL     1       0.002  -0.004   0.002  0.00  0.00    +0.226 C 
ENDBRANCH   8  10
ENDBRANCH   1   8
BRANCH   6  11
ATOM     11  O   UNL     1      -3.868  -1.589   0.031  0.00  0.00    -0.482 OA
BRANCH  11  12
ATOM     12  C   UNL     1      -4.401  -1.195  -1.235  0.00  0.00    +0.264 C 
BRANCH  12  13
ATOM     13  C   UNL     1      -5.598  -0.305  -1.021  0.00  0.00    -0.010 A 
ATOM     14  C   UNL     1      -6.861  -0.858  -0.916  0.00  0.00    +0.007 A 
ATOM     15  C   UNL     1      -7.959  -0.042  -0.719  0.00  0.00    +0.001 A 
ATOM     16  C   UNL     1      -7.795   1.327  -0.627  0.00  0.00    +0.003 A 
ATOM     17  C   UNL     1      -6.532   1.881  -0.732  0.00  0.00    -0.050 A 
ATOM     18  C   UNL     1      -5.433   1.064  -0.924  0.00  0.00    +0.010 A 
ATOM     19  C   UNL     1      -6.353   3.374  -0.632  0.00  0.00    +0.044 C 
ENDBRANCH  12  13
ENDBRANCH  11  12
ENDBRANCH   6  11
BRANCH   3  20
ATOM     20  C   UNL     1       0.655  -4.953  -0.019  0.00  0.00    -0.047 C 
BRANCH  20  21
ATOM     21  N   UNL     1       1.054  -5.253   1.363  0.00  0.00    +0.382 N 
ATOM     22  H   UNL     1       1.280  -4.394   1.841  0.00  0.00    -0.085 HD
ATOM     23  H   UNL     1       0.295  -5.714   1.840  0.00  0.00    -0.085 HD
BRANCH  21  24
ATOM     24  C   UNL     1       2.232  -6.131   1.353  0.00  0.00    -0.077 C 
BRANCH  24  25
ATOM     25  C   UNL     1       2.648  -6.443   2.792  0.00  0.00    +0.018 C 
BRANCH  25  26
ATOM     26  C   UNL     1       3.856  -7.344   2.782  0.00  0.00    -0.024 A 
ATOM     27  C   UNL     1       3.853  -8.684   2.864  0.00  0.00    +0.087 A 
ATOM     28  N   UNL     1       5.137  -9.156   2.823  0.00  0.00    -0.360 N 
ATOM     29  H   UNL     1       5.388 -10.092   2.867  0.00  0.00    +0.165 HD
ATOM     30  C   UNL     1       6.019  -8.105   2.712  0.00  0.00    +0.047 A 
ATOM     31  C   UNL     1       5.255  -6.924   2.675  0.00  0.00    +0.003 A 
ATOM     32  C   UNL     1       5.891  -5.687   2.558  0.00  0.00    +0.010 A 
ATOM     33  C   UNL     1       7.253  -5.629   2.477  0.00  0.00    +0.001 A 
ATOM     34  C   UNL     1       8.011  -6.792   2.509  0.00  0.00    +0.002 A 
ATOM     35  C   UNL     1       7.405  -8.023   2.633  0.00  0.00    +0.026 A 
ENDBRANCH  25  26
ENDBRANCH  24  25
ENDBRANCH  21  24
ENDBRANCH  20  21
ENDBRANCH   3  20
TORSDOF 10
