REMARK  Name = ZINC06825060
REMARK  8 active torsions:
REMARK  status: ('A' for Active; 'I' for Inactive)
REMARK    1  A    between atoms: C_1  and  C_2
REMARK    2  A    between atoms: C_3  and  C_12
REMARK    3  A    between atoms: N_13  and  N_14
REMARK    4  A    between atoms: N_14  and  C_15
REMARK    5  A    between atoms: C_16  and  C_23
REMARK    6  A    between atoms: C_18  and  C_20
REMARK    7  A    between atoms: C_20  and  C_21
REMARK    8  A    between atoms: C_20  and  C_22
REMARK                            x       y       z     vdW  Elec       q    Type
REMARK                         _______ _______ _______ _____ _____    ______ ____
ROOT
ATOM      1  C   UNL     1      -1.078  -2.052   6.859  0.00  0.00    +0.140 C 
ATOM      2  N   UNL     1      -0.948  -1.332   5.786  0.00  0.00    -0.187 NA
ENDROOT
BRANCH   1   5
ATOM      3  C   UNL     1      -3.648  -1.878   5.119  0.00  0.00    +0.064 C 
ATOM      4  C   UNL     1      -3.499  -2.643   6.410  0.00  0.00    +0.023 A 
ATOM      5  C   UNL     1      -2.364  -2.706   7.156  0.00  0.00    +0.023 A 
ATOM      6  C   UNL     1      -2.674  -3.550   8.323  0.00  0.00    +0.009 A 
ATOM      7  C   UNL     1      -1.942  -3.978   9.429  0.00  0.00    +0.010 A 
ATOM      8  C   UNL     1      -2.532  -4.780  10.365  0.00  0.00    +0.001 A 
ATOM      9  C   UNL     1      -3.856  -5.171  10.223  0.00  0.00    +0.002 A 
ATOM     10  C   UNL     1      -4.597  -4.759   9.137  0.00  0.00    +0.026 A 
ATOM     11  C   UNL     1      -4.014  -3.943   8.172  0.00  0.00    +0.047 A 
ATOM     12  N   UNL     1      -4.481  -3.380   7.004  0.00  0.00    -0.358 N 
ATOM     13  H   UNL     1      -5.380  -3.488   6.657  0.00  0.00    +0.166 HD
ENDBRANCH   1   5
BRANCH   2  14
ATOM     14  N   UNL     1       0.275  -0.710   5.503  0.00  0.00    -0.205 N 
ATOM     15  H   UNL     1       1.025  -0.818   6.109  0.00  0.00    +0.177 HD
BRANCH  14  16
ATOM     16  C   UNL     1       0.413   0.053   4.366  0.00  0.00    +0.244 A 
ATOM     17  C   UNL     1       1.551   0.727   3.952  0.00  0.00    +0.202 A 
ATOM     18  N   UNL     1       1.238   1.342   2.777  0.00  0.00    -0.200 NA
ATOM     19  C   UNL     1       0.000   1.080   2.488  0.00  0.00    +0.202 A 
ATOM     20  O   UNL     1      -0.532   0.292   3.436  0.00  0.00    -0.423 OA
BRANCH  19  21
ATOM     21  C   UNL     1      -0.729   1.579   1.267  0.00  0.00    +0.069 C 
ATOM     22  C   UNL     1      -0.013   1.086   0.008  0.00  0.00    +0.017 C 
ATOM     23  C   UNL     1      -0.750   3.109   1.275  0.00  0.00    +0.017 C 
ENDBRANCH  19  21
BRANCH  17  24
ATOM     24  C   UNL     1       2.815   0.763   4.625  0.00  0.00    +0.124 C 
ATOM     25  N   UNL     1       3.817   0.792   5.159  0.00  0.00    -0.189 NA
ENDBRANCH  17  24
ENDBRANCH  14  16
ENDBRANCH   2  14
TORSDOF 5
