REMARK  Name = ZINC08648601
REMARK  7 active torsions:
REMARK  status: ('A' for Active; 'I' for Inactive)
REMARK    1  A    between atoms: C_1  and  C_2
REMARK    2  A    between atoms: C_3  and  C_15
REMARK    3  A    between atoms: C_4  and  C_7
REMARK    4  A    between atoms: C_15  and  O_17
REMARK    5  A    between atoms: O_17  and  N_18
REMARK    6  A    between atoms: C_20  and  C_28
REMARK    7  A    between atoms: N_23  and  C_27
REMARK                            x       y       z     vdW  Elec       q    Type
REMARK                         _______ _______ _______ _____ _____    ______ ____
ROOT
ATOM      1  O   UNL     1      -0.692   4.917   0.367  0.00  0.00    -0.311 OA
ENDROOT
BRANCH   1   2
ATOM      2  N   UNL     1       0.357   4.397   0.703  0.00  0.00    -0.070 NA
ATOM      3  C   UNL     1       1.052   3.731  -0.160  0.00  0.00    +0.143 C 
ATOM      4  C   UNL     1       0.604   3.570  -1.602  0.00  0.00    +0.161 C 
ATOM      5  N   UNL     1       1.605   4.183  -2.474  0.00  0.00    -0.226 NA
ATOM      6  N   UNL     1       2.873   3.765  -2.301  0.00  0.00    -0.257 N 
ATOM      7  C   UNL     1       3.476   3.314  -1.207  0.00  0.00    +0.129 C 
ATOM      8  S   UNL     1       5.171   3.074  -1.234  0.00  0.00    -0.026 S 
ATOM      9  S   UNL     1       2.585   2.953   0.272  0.00  0.00    -0.045 S 
ATOM     10  C   UNL     1       3.712   3.814  -3.501  0.00  0.00    +0.151 C 
ATOM     11  H   UNL     1       1.327   4.121  -3.442  0.00  0.00    +0.146 HD
BRANCH   4  12
ATOM     12  C   UNL     1       0.474   2.105  -1.931  0.00  0.00    -0.023 A 
ATOM     13  C   UNL     1      -0.741   1.465  -1.771  0.00  0.00    +0.005 A 
ATOM     14  C   UNL     1      -0.860   0.121  -2.073  0.00  0.00    +0.000 A 
ATOM     15  C   UNL     1       0.236  -0.583  -2.536  0.00  0.00    +0.000 A 
ATOM     16  C   UNL     1       1.451   0.057  -2.696  0.00  0.00    +0.000 A 
ATOM     17  C   UNL     1       1.570   1.401  -2.394  0.00  0.00    +0.005 A 
ENDBRANCH   4  12
ENDBRANCH   1   2
BRANCH   1  18
ATOM     18  C   UNL     1      -1.368   5.596   1.314  0.00  0.00    +0.372 C 
ATOM     19  O   UNL     1      -0.925   5.668   2.444  0.00  0.00    -0.242 OA
BRANCH  18  22
ATOM     20  C   UNL     1      -4.315   4.439   1.726  0.00  0.00    +0.090 C 
ATOM     21  C   UNL     1      -3.920   5.774   1.149  0.00  0.00    +0.149 A 
ATOM     22  C   UNL     1      -2.643   6.251   0.981  0.00  0.00    +0.131 A 
ATOM     23  C   UNL     1      -2.866   7.582   0.377  0.00  0.00    +0.130 A 
ATOM     24  N   UNL     1      -4.167   7.700   0.284  0.00  0.00    -0.077 NA
ATOM     25  O   UNL     1      -4.742   6.726   0.703  0.00  0.00    -0.358 OA
BRANCH  23  26
ATOM     26  C   UNL     1      -1.839   8.569  -0.034  0.00  0.00    +0.041 A 
ATOM     27  C   UNL     1      -0.916   9.047   0.896  0.00  0.00    +0.052 A 
ATOM     28  C   UNL     1       0.041   9.964   0.506  0.00  0.00    +0.021 A 
ATOM     29  C   UNL     1       0.079  10.415  -0.801  0.00  0.00    +0.003 A 
ATOM     30  C   UNL     1      -0.837   9.948  -1.727  0.00  0.00    +0.021 A 
ATOM     31  C   UNL     1      -1.796   9.028  -1.350  0.00  0.00    +0.052 A 
ATOM     32 CL   UNL     1      -2.946   8.444  -2.513  0.00  0.00    -0.083 Cl
ATOM     33 CL   UNL     1      -0.966   8.487   2.539  0.00  0.00    -0.083 Cl
ENDBRANCH  23  26
ENDBRANCH  18  22
ENDBRANCH   1  18
TORSDOF 5
