REMARK  Name = ZINC35427024
REMARK  5 active torsions:
REMARK  status: ('A' for Active; 'I' for Inactive)
REMARK    1  A    between atoms: C_1  and  C_2
REMARK    2  A    between atoms: C_2  and  C_3
REMARK    3  A    between atoms: C_3  and  N_4
REMARK    4  A    between atoms: C_19  and  C_21
REMARK    5  A    between atoms: N_29  and  C_32
REMARK                            x       y       z     vdW  Elec       q    Type
REMARK                         _______ _______ _______ _____ _____    ______ ____
ROOT
ATOM      1  N   UNL     1      -1.833  -1.692   0.022  0.00  0.00    -0.299 N 
ATOM      2  C   UNL     1      -2.883  -2.537   0.000  0.00  0.00    +0.303 C 
ATOM      3  O   UNL     1      -4.015  -2.098  -0.052  0.00  0.00    -0.253 OA
ATOM      4  N   UNL     1      -2.677  -3.868   0.035  0.00  0.00    -0.269 N 
ATOM      5  C   UNL     1      -1.319  -4.438   0.104  0.00  0.00    +0.148 C 
ATOM      6  C   UNL     1      -1.234  -5.637   1.022  0.00  0.00    +0.004 A 
ATOM      7  C   UNL     1      -0.551  -5.619   2.252  0.00  0.00    -0.034 A 
ATOM      8  C   UNL     1      -0.524  -6.768   2.982  0.00  0.00    -0.021 A 
ATOM      9  S   UNL     1      -1.452  -7.914   1.999  0.00  0.00    -0.077 S 
ATOM     10  C   UNL     1      -1.837  -6.808   0.676  0.00  0.00    +0.090 A 
ATOM     11  N   UNL     1      -2.588  -6.985  -0.479  0.00  0.00    -0.312 N 
ATOM     12  C   UNL     1      -2.597  -7.976  -1.400  0.00  0.00    +0.092 A 
ATOM     13  C   UNL     1      -3.470  -7.635  -2.374  0.00  0.00    +0.020 A 
ATOM     14  C   UNL     1      -4.034  -6.389  -2.023  0.00  0.00    +0.025 A 
ATOM     15  C   UNL     1      -3.499  -6.023  -0.849  0.00  0.00    +0.049 A 
ATOM     16  C   UNL     1      -3.805  -4.830   0.013  0.00  0.00    +0.155 C 
ATOM     17  C   UNL     1       0.145  -6.977   4.300  0.00  0.00    -0.036 C 
ATOM     18  N   UNL     1       1.080  -5.860   4.529  0.00  0.00    +0.381 N 
ATOM     19  C   UNL     1       0.386  -4.586   4.295  0.00  0.00    -0.074 C 
ATOM     20  C   UNL     1       0.151  -4.376   2.796  0.00  0.00    +0.018 C 
ATOM     21  C   UNL     1       1.568  -5.905   5.913  0.00  0.00    -0.096 C 
ATOM     22  H   UNL     1      -0.929  -2.042   0.064  0.00  0.00    +0.150 HD
ATOM     23  H   UNL     1       1.861  -5.939   3.894  0.00  0.00    -0.082 HD
ENDROOT
BRANCH  16  24
ATOM     24  C   UNL     1      -4.084  -5.293   1.419  0.00  0.00    -0.021 A 
ATOM     25  C   UNL     1      -3.673  -4.526   2.493  0.00  0.00    +0.007 A 
ATOM     26  C   UNL     1      -3.929  -4.949   3.784  0.00  0.00    +0.020 A 
ATOM     27  C   UNL     1      -4.596  -6.142   4.000  0.00  0.00    +0.041 A 
ATOM     28  C   UNL     1      -5.008  -6.909   2.925  0.00  0.00    +0.020 A 
ATOM     29  C   UNL     1      -4.757  -6.481   1.635  0.00  0.00    +0.007 A 
ATOM     30 CL   UNL     1      -4.918  -6.675   5.621  0.00  0.00    -0.084 Cl
ENDBRANCH  16  24
BRANCH   1  31
ATOM     31  C   UNL     1      -2.057  -0.244  -0.016  0.00  0.00    +0.105 C 
BRANCH  31  33
ATOM     32  C   UNL     1      -0.944   1.992  -0.020  0.00  0.00    +0.005 C 
ATOM     33  C   UNL     1      -0.710   0.481   0.020  0.00  0.00    +0.015 C 
ENDBRANCH  31  33
ENDBRANCH   1  31
TORSDOF 3
