REMARK  Name = ZINC20389003
REMARK  5 active torsions:
REMARK  status: ('A' for Active; 'I' for Inactive)
REMARK    1  A    between atoms: C_1  and  C_2
REMARK    2  A    between atoms: C_7  and  C_8
REMARK    3  A    between atoms: C_8  and  N_9
REMARK    4  A    between atoms: C_21  and  C_24
REMARK    5  A    between atoms: C_32  and  C_34
REMARK                            x       y       z     vdW  Elec       q    Type
REMARK                         _______ _______ _______ _____ _____    ______ ____
ROOT
ATOM      1  N   UNL     1       2.030   3.727  -0.312  0.00  0.00    -0.309 N 
ATOM      2  C   UNL     1       1.287   2.583  -0.068  0.00  0.00    +0.068 A 
ATOM      3  C   UNL     1       1.573   1.227  -0.096  0.00  0.00    +0.028 A 
ATOM      4  C   UNL     1       0.586   0.311   0.206  0.00  0.00    +0.002 A 
ATOM      5  C   UNL     1      -0.692   0.737   0.533  0.00  0.00    +0.002 A 
ATOM      6  C   UNL     1      -0.992   2.081   0.572  0.00  0.00    +0.028 A 
ATOM      7  C   UNL     1      -0.005   3.021   0.268  0.00  0.00    +0.065 A 
ATOM      8  N   UNL     1       0.007   4.379   0.216  0.00  0.00    -0.327 N 
ATOM      9  C   UNL     1       1.201   4.796  -0.125  0.00  0.00    +0.177 A 
ATOM     10  N   UNL     1       1.567   6.117  -0.272  0.00  0.00    -0.302 N 
ATOM     11  C   UNL     1       2.446   6.545   0.823  0.00  0.00    +0.108 C 
ATOM     12  C   UNL     1       2.948   7.965   0.551  0.00  0.00    +0.032 C 
ATOM     13  C   UNL     1       1.749   8.911   0.435  0.00  0.00    +0.078 C 
ATOM     14  C   UNL     1       0.824   8.416  -0.680  0.00  0.00    +0.032 C 
ATOM     15  C   UNL     1       0.385   6.982  -0.373  0.00  0.00    +0.108 C 
ATOM     16  H   UNL     1      -0.907   4.946   0.444  0.00  0.00    +0.169 HD
ENDROOT
BRANCH  13  17
ATOM     17  C   UNL     1       2.232  10.301   0.109  0.00  0.00    +0.219 C 
ATOM     18  O   UNL     1       2.260  10.678  -1.043  0.00  0.00    -0.275 OA
ATOM     19  N   UNL     1       2.633  11.124   1.098  0.00  0.00    -0.298 N 
ATOM     20  C   UNL     1       2.500  10.723   2.506  0.00  0.00    +0.127 C 
ATOM     21  C   UNL     1       3.882  10.826   3.172  0.00  0.00    +0.127 C 
ATOM     22  N   UNL     1       4.454  12.144   2.862  0.00  0.00    -0.292 N 
ATOM     23  C   UNL     1       4.582  12.548   1.455  0.00  0.00    +0.127 C 
ATOM     24  C   UNL     1       3.204  12.442   0.788  0.00  0.00    +0.127 C 
ATOM     25  C   UNL     1       4.854  12.968   3.851  0.00  0.00    +0.282 C 
ATOM     26  O   UNL     1       4.857  12.579   5.004  0.00  0.00    -0.267 OA
BRANCH  25  27
ATOM     27  C   UNL     1       5.285  14.334   3.538  0.00  0.00    +0.189 A 
ATOM     28  C   UNL     1       5.855  15.216   4.411  0.00  0.00    +0.054 A 
ATOM     29  C   UNL     1       6.106  16.394   3.690  0.00  0.00    +0.042 A 
ATOM     30  C   UNL     1       5.683  16.182   2.424  0.00  0.00    +0.196 A 
ATOM     31  O   UNL     1       5.195  14.938   2.335  0.00  0.00    -0.458 OA
ENDBRANCH  25  27
ENDBRANCH  13  17
BRANCH   1  32
ATOM     32  C   UNL     1       3.442   3.780  -0.699  0.00  0.00    +0.160 C 
BRANCH  32  39
ATOM     33  C   UNL     1       3.664   6.086  -2.424  0.00  0.00    +0.044 C 
ATOM     34  C   UNL     1       3.668   4.700  -3.015  0.00  0.00    -0.046 A 
ATOM     35  C   UNL     1       3.781   4.532  -4.383  0.00  0.00    +0.004 A 
ATOM     36  C   UNL     1       3.780   3.261  -4.925  0.00  0.00    +0.000 A 
ATOM     37  C   UNL     1       3.668   2.157  -4.100  0.00  0.00    +0.000 A 
ATOM     38  C   UNL     1       3.559   2.325  -2.733  0.00  0.00    +0.005 A 
ATOM     39  C   UNL     1       3.561   3.596  -2.190  0.00  0.00    -0.025 A 
ENDBRANCH  32  39
ENDBRANCH   1  32
TORSDOF 4
