REMARK  Name = ZINC14888312
REMARK  7 active torsions:
REMARK  status: ('A' for Active; 'I' for Inactive)
REMARK    1  A    between atoms: C_5  and  C_7
REMARK    2  A    between atoms: C_7  and  C_21
REMARK    3  A    between atoms: N_10  and  C_14
REMARK    4  A    between atoms: C_14  and  C_15
REMARK    5  A    between atoms: C_15  and  C_16
REMARK    6  A    between atoms: C_26  and  C_27
REMARK    7  A    between atoms: C_26  and  N_61
REMARK                            x       y       z     vdW  Elec       q    Type
REMARK                         _______ _______ _______ _____ _____    ______ ____
ROOT
ATOM      1  C   UNL     1       2.906   8.880   1.463  0.00  0.00    +0.157 C 
ATOM      2  C   UNL     1       2.885   7.365   1.460  0.00  0.00    +0.253 C 
ATOM      3  O   UNL     1       3.841   6.619   1.453  0.00  0.00    -0.272 OA
ATOM      4  N   UNL     1       1.583   7.018   1.465  0.00  0.00    -0.224 N 
ATOM      5  C   UNL     1       0.786   8.092   1.478  0.00  0.00    +0.310 C 
ATOM      6  O   UNL     1      -0.428   8.033   1.488  0.00  0.00    -0.252 OA
ATOM      7  N   UNL     1       1.479   9.246   1.478  0.00  0.00    -0.280 N 
ATOM      8  H   UNL     1       1.110  10.143   1.486  0.00  0.00    +0.152 HD
ENDROOT
BRANCH   1   9
ATOM      9  C   UNL     1       3.609   9.406   2.716  0.00  0.00    +0.024 C 
ATOM     10  C   UNL     1       2.928   8.835   3.962  0.00  0.00    -0.012 C 
ATOM     11  C   UNL     1       3.596   9.412   5.212  0.00  0.00    -0.078 C 
ATOM     12  C   UNL     1       4.172  11.450   4.034  0.00  0.00    -0.078 C 
ATOM     13  C   UNL     1       3.520  10.934   2.749  0.00  0.00    -0.012 C 
ATOM     14  N   UNL     1       3.455  10.884   5.196  0.00  0.00    +0.382 N 
ATOM     15  H   UNL     1       2.459  11.122   5.122  0.00  0.00    -0.081 HD
BRANCH  14  16
ATOM     16  C   UNL     1       3.992  11.456   6.448  0.00  0.00    -0.040 C 
BRANCH  16  17
ATOM     17  C   UNL     1       3.107  11.034   7.593  0.00  0.00    -0.029 A 
ATOM     18  C   UNL     1       3.539  10.066   8.480  0.00  0.00    +0.007 A 
ATOM     19  C   UNL     1       2.730   9.679   9.531  0.00  0.00    +0.039 A 
ATOM     20  C   UNL     1       1.484  10.261   9.696  0.00  0.00    +0.126 A 
ATOM     21  C   UNL     1       1.050  11.230   8.809  0.00  0.00    +0.076 A 
ATOM     22  C   UNL     1       1.865  11.621   7.760  0.00  0.00    +0.127 A 
ATOM     23  F   UNL     1       1.444  12.571   6.896  0.00  0.00    -0.205 F 
ATOM     24  F   UNL     1       0.692   9.882  10.723  0.00  0.00    -0.205 F 
ENDBRANCH  16  17
ENDBRANCH  14  16
ENDBRANCH   1   9
BRANCH   1  29
ATOM     25  C   UNL     1       3.676   9.588  -2.159  0.00  0.00    +0.003 A 
ATOM     26  C   UNL     1       4.806  10.377  -2.003  0.00  0.00    +0.020 A 
ATOM     27  C   UNL     1       5.271  10.645  -0.730  0.00  0.00    +0.111 A 
ATOM     28  N   UNL     1       4.649  10.165   0.330  0.00  0.00    -0.257 NA
ATOM     29  C   UNL     1       3.575   9.408   0.220  0.00  0.00    +0.074 A 
ATOM     30  C   UNL     1       3.053   9.097  -1.022  0.00  0.00    +0.026 A 
ENDBRANCH   1  29
BRANCH   4  31
ATOM     31  C   UNL     1       1.099   5.635   1.463  0.00  0.00    +0.123 C 
BRANCH  31  32
ATOM     32  C   UNL     1       0.918   5.160   0.020  0.00  0.00    +0.062 C 
BRANCH  32  33
ATOM     33  C   UNL     1       0.421   3.738   0.017  0.00  0.00    -0.009 A 
ATOM     34  C   UNL     1      -0.855   3.279   0.027  0.00  0.00    +0.011 A 
ATOM     35  C   UNL     1      -1.077   1.915   0.017  0.00  0.00    +0.008 A 
ATOM     36  C   UNL     1      -0.013   1.076   0.008  0.00  0.00    +0.045 A 
ATOM     37  S   UNL     1       1.359   2.219   0.001  0.00  0.00    -0.102 S 
ENDBRANCH  32  33
ENDBRANCH  31  32
ENDBRANCH   4  31
TORSDOF 7
