REMARK  Name = ZINC10232114
REMARK  9 active torsions:
REMARK  status: ('A' for Active; 'I' for Inactive)
REMARK    1  A    between atoms: C_1  and  C_2
REMARK    2  A    between atoms: C_2  and  O_3
REMARK    3  A    between atoms: O_3  and  C_4
REMARK    4  A    between atoms: C_7  and  C_10
REMARK    5  A    between atoms: C_10  and  C_12
REMARK    6  A    between atoms: C_13  and  C_29
REMARK    7  A    between atoms: C_20  and  C_22
REMARK    8  A    between atoms: C_29  and  O_31
REMARK    9  A    between atoms: O_31  and  C_32
REMARK                            x       y       z     vdW  Elec       q    Type
REMARK                         _______ _______ _______ _____ _____    ______ ____
ROOT
ATOM      1  C   UNL     1      -0.730   5.885  -1.276  0.00  0.00    +0.057 C 
ATOM      2  C   UNL     1      -2.021   6.272  -1.358  0.00  0.00    +0.128 C 
ATOM      3  N   UNL     1      -2.818   6.408  -0.235  0.00  0.00    -0.277 N 
ATOM      4  C   UNL     1      -2.187   6.387   0.999  0.00  0.00    +0.240 A 
ATOM      5  N   UNL     1      -2.625   6.700   2.185  0.00  0.00    -0.092 NA
ATOM      6  N   UNL     1      -1.694   6.538   3.062  0.00  0.00    -0.021 NA
ATOM      7  N   UNL     1      -0.610   6.113   2.497  0.00  0.00    -0.042 NA
ATOM      8  N   UNL     1      -0.893   5.996   1.137  0.00  0.00    -0.201 N 
ATOM      9  C   UNL     1      -0.053   5.558   0.029  0.00  0.00    +0.178 C 
ATOM     10  H   UNL     1      -3.779   6.515  -0.308  0.00  0.00    +0.155 HD
ENDROOT
BRANCH   9  11
ATOM     11  C   UNL     1       0.165   4.069   0.122  0.00  0.00    -0.016 A 
ATOM     12  C   UNL     1      -0.921   3.215   0.188  0.00  0.00    +0.006 A 
ATOM     13  C   UNL     1      -0.723   1.849   0.268  0.00  0.00    +0.003 A 
ATOM     14  C   UNL     1       0.560   1.337   0.295  0.00  0.00    +0.038 A 
ATOM     15  C   UNL     1       1.648   2.191   0.229  0.00  0.00    +0.124 A 
ATOM     16  C   UNL     1       1.448   3.559   0.143  0.00  0.00    +0.044 A 
ATOM     17  F   UNL     1       2.903   1.691   0.250  0.00  0.00    -0.205 F 
ENDBRANCH   9  11
BRANCH   1  18
ATOM     18  C   UNL     1       0.047   5.777  -2.512  0.00  0.00    +0.194 C 
ATOM     19  O   UNL     1       0.121   4.711  -3.094  0.00  0.00    -0.287 OA
BRANCH  18  23
ATOM     20  C   UNL     1       2.041   9.189  -4.070  0.00  0.00    +0.121 A 
ATOM     21  C   UNL     1       2.014   8.007  -4.802  0.00  0.00    +0.046 A 
ATOM     22  C   UNL     1       1.369   6.899  -4.300  0.00  0.00    +0.015 A 
ATOM     23  C   UNL     1       0.740   6.963  -3.053  0.00  0.00    +0.022 A 
ATOM     24  C   UNL     1       0.765   8.155  -2.323  0.00  0.00    +0.015 A 
ATOM     25  C   UNL     1       1.417   9.257  -2.829  0.00  0.00    +0.046 A 
BRANCH  20  26
ATOM     26  O   UNL     1       2.678  10.279  -4.568  0.00  0.00    -0.492 OA
BRANCH  26  28
ATOM     27  C   UNL     1       3.428  12.575  -4.485  0.00  0.00    +0.048 C 
ATOM     28  C   UNL     1       2.667  11.460  -3.764  0.00  0.00    +0.225 C 
ENDBRANCH  26  28
ENDBRANCH  20  26
ENDBRANCH  18  23
ENDBRANCH   1  18
BRANCH   2  29
ATOM     29  C   UNL     1      -2.602   6.560  -2.690  0.00  0.00    +0.354 C 
ATOM     30  O   UNL     1      -1.901   6.514  -3.680  0.00  0.00    -0.244 OA
BRANCH  29  31
ATOM     31  O   UNL     1      -3.907   6.873  -2.803  0.00  0.00    -0.464 OA
ATOM     32  C   UNL     1      -4.407   7.143  -4.139  0.00  0.00    +0.280 C 
ENDBRANCH  29  31
ENDBRANCH   2  29
TORSDOF 7
