REMARK  Name = ZINC13064806
REMARK  11 active torsions:
REMARK  status: ('A' for Active; 'I' for Inactive)
REMARK    1  A    between atoms: C_1  and  C_2
REMARK    2  A    between atoms: C_2  and  C_3
REMARK    3  A    between atoms: C_3  and  C_5
REMARK    4  A    between atoms: C_3  and  N_69
REMARK    5  A    between atoms: N_9  and  C_10
REMARK    6  A    between atoms: C_15  and  C_16
REMARK    7  A    between atoms: C_15  and  N_69
REMARK    8  A    between atoms: C_22  and  C_23
REMARK    9  A    between atoms: C_22  and  N_69
REMARK   10  A    between atoms: C_26  and  C_36
REMARK   11  A    between atoms: C_28  and  C_35
REMARK                            x       y       z     vdW  Elec       q    Type
REMARK                         _______ _______ _______ _____ _____    ______ ____
ROOT
ATOM      1  N   UNL     1       5.295   4.536  -1.491  0.00  0.00    +0.392 N 
ATOM      2  H   UNL     1       5.397   3.662  -2.019  0.00  0.00    -0.080 HD
ENDROOT
BRANCH   1   3
ATOM      3  C   UNL     1       6.578   5.268  -1.521  0.00  0.00    +0.003 C 
BRANCH   3   4
ATOM      4  C   UNL     1       6.551   6.422  -0.552  0.00  0.00    +0.138 A 
ATOM      5  N   UNL     1       6.173   6.382   0.703  0.00  0.00    -0.115 NA
ATOM      6  N   UNL     1       6.294   7.567   1.193  0.00  0.00    -0.023 NA
ATOM      7  N   UNL     1       6.740   8.362   0.284  0.00  0.00    -0.044 NA
ATOM      8  N   UNL     1       6.916   7.693  -0.805  0.00  0.00    -0.228 N 
BRANCH   8   9
ATOM      9  C   UNL     1       7.416   8.218  -2.078  0.00  0.00    +0.111 C 
ATOM     10  C   UNL     1       8.811   8.845  -1.880  0.00  0.00    +0.027 C 
ATOM     11  C   UNL     1       8.808  10.080  -2.816  0.00  0.00    +0.002 C 
ATOM     12  C   UNL     1       7.362  10.615  -2.673  0.00  0.00    +0.002 C 
ATOM     13  C   UNL     1       6.495   9.342  -2.583  0.00  0.00    +0.027 C 
ENDBRANCH   8   9
ENDBRANCH   3   4
BRANCH   3  15
ATOM     14  C   UNL     1       7.826   3.213  -2.200  0.00  0.00    +0.002 C 
ATOM     15  C   UNL     1       7.704   4.306  -1.136  0.00  0.00    -0.011 C 
ENDBRANCH   3  15
ENDBRANCH   1   3
BRANCH   1  16
ATOM     16  C   UNL     1       4.233   5.353  -2.116  0.00  0.00    -0.042 C 
BRANCH  16  17
ATOM     17  C   UNL     1       4.473   5.405  -3.602  0.00  0.00    -0.064 A 
ATOM     18  C   UNL     1       5.120   6.492  -4.160  0.00  0.00    +0.002 A 
ATOM     19  C   UNL     1       5.345   6.537  -5.524  0.00  0.00    +0.000 A 
ATOM     20  C   UNL     1       4.913   5.500  -6.330  0.00  0.00    +0.000 A 
ATOM     21  C   UNL     1       4.261   4.416  -5.773  0.00  0.00    +0.000 A 
ATOM     22  C   UNL     1       4.041   4.369  -4.409  0.00  0.00    +0.002 A 
ENDBRANCH  16  17
ENDBRANCH   1  16
BRANCH   1  23
ATOM     23  C   UNL     1       4.929   4.215  -0.095  0.00  0.00    -0.036 C 
BRANCH  23  24
ATOM     24  C   UNL     1       3.933   3.084  -0.106  0.00  0.00    +0.001 A 
ATOM     25  C   UNL     1       4.362   1.805   0.028  0.00  0.00    +0.017 A 
ATOM     26  C   UNL     1       3.369   0.729   0.014  0.00  0.00    +0.002 A 
ATOM     27  C   UNL     1       3.750  -0.610   0.148  0.00  0.00    -0.041 A 
ATOM     28  C   UNL     1       2.799  -1.590   0.131  0.00  0.00    +0.007 A 
ATOM     29  C   UNL     1       1.457  -1.270  -0.019  0.00  0.00    -0.048 A 
ATOM     30  C   UNL     1       1.058   0.043  -0.152  0.00  0.00    +0.029 A 
ATOM     31  C   UNL     1       2.008   1.058  -0.137  0.00  0.00    +0.050 A 
ATOM     32  N   UNL     1       1.638   2.380  -0.269  0.00  0.00    -0.322 N 
ATOM     33  H   UNL     1       0.700   2.605  -0.374  0.00  0.00    +0.169 HD
ATOM     34  C   UNL     1       2.557   3.361  -0.255  0.00  0.00    +0.251 A 
ATOM     35  O   UNL     1       2.193   4.518  -0.375  0.00  0.00    -0.268 OA
ATOM     36  C   UNL     1       0.425  -2.368  -0.035  0.00  0.00    +0.044 C 
ATOM     37  C   UNL     1       5.205  -0.970   0.311  0.00  0.00    +0.044 C 
ENDBRANCH  23  24
ENDBRANCH   1  23
TORSDOF 8
