REMARK  Name = ZINC35031509
REMARK  13 active torsions:
REMARK  status: ('A' for Active; 'I' for Inactive)
REMARK    1  A    between atoms: C_1  and  C_2
REMARK    2  A    between atoms: C_6  and  C_36
REMARK    3  A    between atoms: C_8  and  O_11
REMARK    4  A    between atoms: O_11  and  C_12
REMARK    5  A    between atoms: C_12  and  C_13
REMARK    6  A    between atoms: C_13  and  C_15
REMARK    7  A    between atoms: C_13  and  O_35
REMARK    8  A    between atoms: C_15  and  N_16
REMARK    9  A    between atoms: N_19  and  C_22
REMARK   10  A    between atoms: C_22  and  C_23
REMARK   11  A    between atoms: C_22  and  C_29
REMARK   12  A    between atoms: C_36  and  C_37
REMARK   13  A    between atoms: C_36  and  C_38
REMARK                            x       y       z     vdW  Elec       q    Type
REMARK                         _______ _______ _______ _____ _____    ______ ____
ROOT
ATOM      1  N   UNL     1       4.721  -5.051   4.216  0.00  0.00    -0.303 NA
ATOM      2  C   UNL     1       6.179  -5.172   4.362  0.00  0.00    +0.066 C 
ATOM      3  C   UNL     1       6.496  -6.093   5.542  0.00  0.00    -0.062 C 
ATOM      4  N   UNL     1       5.900  -7.415   5.306  0.00  0.00    +0.389 N 
ATOM      5  C   UNL     1       4.442  -7.282   5.186  0.00  0.00    -0.062 C 
ATOM      6  C   UNL     1       4.108  -6.370   4.004  0.00  0.00    +0.066 C 
ATOM      7  H   UNL     1       6.273  -7.804   4.452  0.00  0.00    -0.080 HD
ENDROOT
BRANCH   1   8
ATOM      8  C   UNL     1       4.376  -4.128   3.128  0.00  0.00    +0.117 C 
BRANCH   8   9
ATOM      9  C   UNL     1       2.933  -3.649   3.303  0.00  0.00    +0.154 C 
BRANCH   9  10
ATOM     10  O   UNL     1       2.815  -2.936   4.536  0.00  0.00    -0.388 OA
ATOM     11  H   UNL     1       3.384  -2.156   4.595  0.00  0.00    +0.210 HD
ENDBRANCH   9  10
BRANCH   9  12
ATOM     12  C   UNL     1       2.557  -2.727   2.142  0.00  0.00    +0.192 C 
BRANCH  12  13
ATOM     13  O   UNL     1       1.176  -2.373   2.243  0.00  0.00    -0.374 OA
BRANCH  13  19
ATOM     14  C   UNL     1       0.611   2.331   0.937  0.00  0.00    +0.007 C 
ATOM     15  C   UNL     1       0.422   0.874   0.511  0.00  0.00    -0.012 C 
ATOM     16  C   UNL     1      -1.061   0.611   0.242  0.00  0.00    +0.004 C 
ATOM     17  C   UNL     1      -1.251  -0.847  -0.184  0.00  0.00    +0.006 C 
ATOM     18  C   UNL     1      -0.763  -1.772   0.932  0.00  0.00    +0.020 C 
ATOM     19  C   UNL     1       0.720  -1.508   1.200  0.00  0.00    +0.122 C 
ATOM     20  C   UNL     1       0.910  -0.051   1.627  0.00  0.00    +0.035 C 
BRANCH  18  21
ATOM     21  C   UNL     1      -0.952  -3.229   0.505  0.00  0.00    -0.012 C 
ATOM     22  C   UNL     1      -2.446  -3.532   0.373  0.00  0.00    +0.007 C 
ATOM     23  C   UNL     1      -0.264  -3.460  -0.842  0.00  0.00    +0.007 C 
ENDBRANCH  18  21
ENDBRANCH  13  19
ENDBRANCH  12  13
ENDBRANCH   9  12
ENDBRANCH   8   9
ENDBRANCH   1   8
BRANCH   4  24
ATOM     24  C   UNL     1       6.220  -8.304   6.430  0.00  0.00    -0.007 C 
BRANCH  24  25
ATOM     25  C   UNL     1       5.608  -9.660   6.187  0.00  0.00    -0.057 A 
ATOM     26  C   UNL     1       5.630 -10.212   4.920  0.00  0.00    +0.002 A 
ATOM     27  C   UNL     1       5.069 -11.455   4.697  0.00  0.00    +0.000 A 
ATOM     28  C   UNL     1       4.486 -12.148   5.742  0.00  0.00    +0.000 A 
ATOM     29  C   UNL     1       4.464 -11.596   7.010  0.00  0.00    +0.000 A 
ATOM     30  C   UNL     1       5.029 -10.354   7.233  0.00  0.00    +0.002 A 
ENDBRANCH  24  25
BRANCH  24  31
ATOM     31  C   UNL     1       7.715  -8.443   6.551  0.00  0.00    -0.057 A 
ATOM     32  C   UNL     1       8.494  -8.547   5.414  0.00  0.00    +0.002 A 
ATOM     33  C   UNL     1       9.867  -8.673   5.525  0.00  0.00    +0.000 A 
ATOM     34  C   UNL     1      10.460  -8.696   6.774  0.00  0.00    +0.000 A 
ATOM     35  C   UNL     1       9.681  -8.591   7.911  0.00  0.00    +0.000 A 
ATOM     36  C   UNL     1       8.309  -8.460   7.800  0.00  0.00    +0.002 A 
ENDBRANCH  24  31
ENDBRANCH   4  24
TORSDOF 10
