REMARK  Name = ZINC40812175
REMARK  6 active torsions:
REMARK  status: ('A' for Active; 'I' for Inactive)
REMARK    1  A    between atoms: C_1  and  C_2
REMARK    2  A    between atoms: C_6  and  C_7
REMARK    3  A    between atoms: C_18  and  C_20
REMARK    4  A    between atoms: N_26  and  N_27
REMARK    5  A    between atoms: C_28  and  C_30
REMARK    6  A    between atoms: C_33  and  N_36
REMARK                            x       y       z     vdW  Elec       q    Type
REMARK                         _______ _______ _______ _____ _____    ______ ____
ROOT
ATOM      1  C   UNL     1      -1.051   0.450  -0.168  0.00  0.00    +0.048 C 
ATOM      2  C   UNL     1       0.073  -0.540  -0.001  0.00  0.00    +0.009 A 
ATOM      3  C   UNL     1       0.740  -1.234  -1.018  0.00  0.00    +0.042 A 
ATOM      4  C   UNL     1       1.690  -2.028  -0.422  0.00  0.00    +0.115 A 
ATOM      5  O   UNL     1       1.620  -1.837   0.893  0.00  0.00    -0.454 OA
ATOM      6  C   UNL     1       0.650  -0.936   1.173  0.00  0.00    +0.193 A 
ATOM      7  C   UNL     1       2.610  -2.933  -1.202  0.00  0.00    +0.075 C 
ATOM      8  C   UNL     1       2.002  -3.211  -2.579  0.00  0.00    +0.014 C 
ATOM      9  C   UNL     1       1.648  -1.899  -3.288  0.00  0.00    +0.058 C 
ATOM     10  C   UNL     1       0.556  -1.205  -2.486  0.00  0.00    +0.070 C 
ATOM     11  N   UNL     1      -0.462  -0.630  -3.050  0.00  0.00    -0.184 NA
ENDROOT
BRANCH   6  12
ATOM     12  C   UNL     1       0.277  -0.467   2.512  0.00  0.00    +0.287 C 
ATOM     13  O   UNL     1       0.138   0.724   2.723  0.00  0.00    -0.266 OA
ATOM     14  N   UNL     1       0.089  -1.354   3.509  0.00  0.00    -0.262 N 
ATOM     15  C   UNL     1       0.126  -2.732   3.254  0.00  0.00    +0.040 A 
ATOM     16  C   UNL     1       0.076  -3.177   1.938  0.00  0.00    +0.026 A 
ATOM     17  C   UNL     1       0.115  -4.529   1.663  0.00  0.00    +0.040 A 
ATOM     18  C   UNL     1       0.205  -5.442   2.701  0.00  0.00    +0.124 A 
ATOM     19  C   UNL     1       0.254  -5.000   4.011  0.00  0.00    +0.043 A 
ATOM     20  C   UNL     1       0.212  -3.644   4.293  0.00  0.00    -0.023 A 
ATOM     21  C   UNL     1       0.257  -3.198   5.731  0.00  0.00    +0.039 C 
ATOM     22  C   UNL     1       0.706  -1.740   5.824  0.00  0.00    +0.027 C 
ATOM     23  C   UNL     1      -0.153  -0.893   4.883  0.00  0.00    +0.079 C 
ATOM     24  C   UNL     1       0.238   0.581   5.012  0.00  0.00    +0.028 C 
ATOM     25  F   UNL     1       0.246  -6.766   2.434  0.00  0.00    -0.205 F 
ENDBRANCH   6  12
BRANCH  11  26
ATOM     26  N   UNL     1      -0.585  -0.634  -4.445  0.00  0.00    -0.203 N 
ATOM     27  C   UNL     1      -1.643  -0.037  -5.030  0.00  0.00    +0.263 C 
ATOM     28  O   UNL     1      -2.490   0.504  -4.346  0.00  0.00    -0.268 OA
ATOM     29  H   UNL     1       0.091  -1.066  -4.990  0.00  0.00    +0.178 HD
BRANCH  27  30
ATOM     30  C   UNL     1      -1.772  -0.041  -6.502  0.00  0.00    +0.038 A 
ATOM     31  C   UNL     1      -0.805  -0.667  -7.290  0.00  0.00    +0.015 A 
ATOM     32  C   UNL     1      -0.932  -0.667  -8.663  0.00  0.00    +0.033 A 
ATOM     33  C   UNL     1      -2.016  -0.048  -9.261  0.00  0.00    +0.126 A 
ATOM     34  C   UNL     1      -2.978   0.575  -8.486  0.00  0.00    +0.033 A 
ATOM     35  C   UNL     1      -2.866   0.576  -7.111  0.00  0.00    +0.015 A 
BRANCH  33  36
ATOM     36  N   UNL     1      -2.145  -0.052 -10.735  0.00  0.00    +0.056 N 
ATOM     37  O   UNL     1      -1.306  -0.595 -11.415  0.00  0.00    -0.126 OA
ATOM     38  O   UNL     1      -3.091   0.488 -11.260  0.00  0.00    -0.126 OA
ENDBRANCH  33  36
ENDBRANCH  27  30
ENDBRANCH  11  26
TORSDOF 4
