REMARK  Name = ZINC48475138
REMARK  6 active torsions:
REMARK  status: ('A' for Active; 'I' for Inactive)
REMARK    1  A    between atoms: C_1  and  C_2
REMARK    2  A    between atoms: C_2  and  C_4
REMARK    3  A    between atoms: C_2  and  N_7
REMARK    4  A    between atoms: C_4  and  C_5
REMARK    5  A    between atoms: C_4  and  C_6
REMARK    6  A    between atoms: N_10  and  C_11
REMARK                            x       y       z     vdW  Elec       q    Type
REMARK                         _______ _______ _______ _____ _____    ______ ____
ROOT
ATOM      1  N   UNL     1       0.737  -0.335   1.233  0.00  0.00    -0.296 N 
ATOM      2  C   UNL     1       2.080  -0.445   1.234  0.00  0.00    +0.304 C 
ATOM      3  O   UNL     1       2.727  -0.002   0.305  0.00  0.00    -0.253 OA
ATOM      4  N   UNL     1       2.706  -1.046   2.266  0.00  0.00    -0.269 N 
ATOM      5  H   UNL     1       0.220  -0.688   1.974  0.00  0.00    +0.151 HD
ATOM      6  H   UNL     1       2.198  -1.331   3.042  0.00  0.00    +0.156 HD
ENDROOT
BRANCH   4   7
ATOM      7  C   UNL     1       4.090  -1.261   2.216  0.00  0.00    +0.038 A 
ATOM      8  C   UNL     1       4.840  -1.214   3.383  0.00  0.00    +0.027 A 
ATOM      9  C   UNL     1       6.206  -1.425   3.339  0.00  0.00    +0.051 A 
ATOM     10  C   UNL     1       6.824  -1.685   2.127  0.00  0.00    +0.162 A 
ATOM     11  C   UNL     1       6.076  -1.733   0.960  0.00  0.00    +0.164 A 
ATOM     12  C   UNL     1       4.708  -1.526   1.001  0.00  0.00    +0.072 A 
ATOM     13  O   UNL     1       6.696  -1.991  -0.228  0.00  0.00    -0.488 OA
ATOM     14  C   UNL     1       7.575  -0.972  -0.709  0.00  0.00    +0.232 C 
ATOM     15  C   UNL     1       8.955  -1.112  -0.086  0.00  0.00    +0.082 C 
ATOM     16  C   UNL     1       8.938  -0.884   1.417  0.00  0.00    +0.232 C 
ATOM     17  O   UNL     1       8.172  -1.896   2.074  0.00  0.00    -0.488 OA
ENDBRANCH   4   7
BRANCH   1  19
ATOM     18  C   UNL     1       0.034   1.832   0.341  0.00  0.00    +0.028 C 
ATOM     19  C   UNL     1       0.057   0.319   0.112  0.00  0.00    +0.074 C 
BRANCH  19  20
ATOM     20  C   UNL     1      -1.378  -0.203   0.012  0.00  0.00    +0.003 C 
ATOM     21  C   UNL     1      -2.161   0.214   1.258  0.00  0.00    +0.009 C 
ATOM     22  C   UNL     1      -2.049   0.385  -1.232  0.00  0.00    +0.009 C 
ENDBRANCH  19  20
ENDBRANCH   1  19
TORSDOF 3
