REMARK  Name = ZINC00752591
REMARK  4 active torsions:
REMARK  status: ('A' for Active; 'I' for Inactive)
REMARK    1  A    between atoms: C_4  and  C_7
REMARK    2  A    between atoms: C_12  and  C_20
REMARK    3  A    between atoms: C_14  and  C_18
REMARK    4  A    between atoms: C_15  and  N_17
REMARK                            x       y       z     vdW  Elec       q    Type
REMARK                         _______ _______ _______ _____ _____    ______ ____
ROOT
ATOM      1  C   UNL     1      -2.368  -0.012   0.752  0.00  0.00    +0.034 C 
ATOM      2  C   UNL     1      -1.287  -0.792   0.001  0.00  0.00    +0.083 C 
ATOM      3  C   UNL     1       0.002  -0.004   0.002  0.00  0.00    +0.115 C 
ATOM      4  C   UNL     1      -0.016   1.341   0.009  0.00  0.00    +0.046 C 
ATOM      5  C   UNL     1       1.273   2.127   0.001  0.00  0.00    +0.102 C 
ATOM      6  C   UNL     1       2.414   1.251   0.436  0.00  0.00    +0.098 C 
ATOM      7  C   UNL     1       2.291  -0.099   0.408  0.00  0.00    +0.198 C 
ATOM      8  O   UNL     1       1.161  -0.689  -0.009  0.00  0.00    -0.445 OA
ATOM      9  C   UNL     1      -1.229   2.057   0.031  0.00  0.00    +0.164 C 
ATOM     10  O   UNL     1      -1.205   3.272   0.018  0.00  0.00    -0.292 OA
ATOM     11  C   UNL     1      -2.554   1.345   0.065  0.00  0.00    +0.088 C 
ENDROOT
BRANCH   5  12
ATOM     12  C   UNL     1       1.538   2.639  -1.391  0.00  0.00    -0.016 A 
ATOM     13  C   UNL     1       1.687   1.749  -2.438  0.00  0.00    +0.006 A 
ATOM     14  C   UNL     1       1.925   2.218  -3.716  0.00  0.00    +0.000 A 
ATOM     15  C   UNL     1       2.024   3.578  -3.947  0.00  0.00    +0.001 A 
ATOM     16  C   UNL     1       1.881   4.468  -2.900  0.00  0.00    +0.020 A 
ATOM     17  C   UNL     1       1.637   3.999  -1.621  0.00  0.00    +0.045 A 
ATOM     18 CL   UNL     1       1.456   5.118  -0.306  0.00  0.00    -0.083 Cl
ENDBRANCH   5  12
BRANCH   1  22
ATOM     19  C   UNL     1      -6.043  -2.188   0.649  0.00  0.00    +0.000 A 
ATOM     20  C   UNL     1      -5.451  -1.887   1.862  0.00  0.00    +0.000 A 
ATOM     21  C   UNL     1      -4.262  -1.183   1.895  0.00  0.00    +0.004 A 
ATOM     22  C   UNL     1      -3.664  -0.780   0.716  0.00  0.00    -0.043 A 
ATOM     23  C   UNL     1      -4.258  -1.076  -0.497  0.00  0.00    +0.004 A 
ATOM     24  C   UNL     1      -5.445  -1.783  -0.530  0.00  0.00    +0.000 A 
ENDBRANCH   1  22
BRANCH   7  25
ATOM     25  N   UNL     1       3.345  -0.878   0.815  0.00  0.00    -0.328 N 
ATOM     26  H   UNL     1       3.268  -1.845   0.800  0.00  0.00    +0.145 HD
ATOM     27  H   UNL     1       4.167  -0.461   1.119  0.00  0.00    +0.145 HD
ENDBRANCH   7  25
BRANCH   6  28
ATOM     28  C   UNL     1       3.638   1.845   0.881  0.00  0.00    +0.101 C 
ATOM     29  N   UNL     1       4.610   2.316   1.235  0.00  0.00    -0.191 NA
ENDBRANCH   6  28
TORSDOF 4
