REMARK  Name = ZINC61564012
REMARK  5 active torsions:
REMARK  status: ('A' for Active; 'I' for Inactive)
REMARK    1  A    between atoms: C_1  and  C_2
REMARK    2  A    between atoms: C_2  and  C_3
REMARK    3  A    between atoms: C_3  and  C_4
REMARK    4  A    between atoms: C_6  and  C_9
REMARK    5  A    between atoms: C_14  and  N_15
REMARK                            x       y       z     vdW  Elec       q    Type
REMARK                         _______ _______ _______ _____ _____    ______ ____
ROOT
ATOM      1  C   UNL     1      -1.518  -5.364  -1.532  0.00  0.00    +0.063 A 
ATOM      2  C   UNL     1      -2.444  -5.432  -2.576  0.00  0.00    +0.056 A 
ATOM      3  C   UNL     1      -2.289  -6.373  -3.573  0.00  0.00    +0.159 A 
ATOM      4  C   UNL     1      -1.215  -7.255  -3.542  0.00  0.00    +0.160 A 
ATOM      5  C   UNL     1      -0.293  -7.197  -2.514  0.00  0.00    +0.064 A 
ATOM      6  C   UNL     1      -0.432  -6.252  -1.507  0.00  0.00    +0.040 A 
ATOM      7  F   UNL     1      -1.072  -8.173  -4.522  0.00  0.00    -0.202 F 
ATOM      8  F   UNL     1      -3.185  -6.438  -4.582  0.00  0.00    -0.202 F 
ENDROOT
BRANCH   1  11
ATOM      9  C   UNL     1      -2.023  -2.470   0.547  0.00  0.00    +0.172 A 
ATOM     10  N   UNL     1      -1.946  -3.083  -0.636  0.00  0.00    -0.192 NA
ATOM     11  C   UNL     1      -1.679  -4.360  -0.464  0.00  0.00    +0.260 A 
ATOM     12  O   UNL     1      -1.578  -4.588   0.858  0.00  0.00    -0.333 OA
ATOM     13  N   UNL     1      -1.802  -3.338   1.493  0.00  0.00    -0.061 NA
BRANCH   9  14
ATOM     14  C   UNL     1      -2.312  -1.006   0.755  0.00  0.00    +0.079 C 
BRANCH  14  16
ATOM     15  C   UNL     1      -1.291   1.264   0.973  0.00  0.00    +0.004 C 
ATOM     16  C   UNL     1      -0.998  -0.222   0.761  0.00  0.00    +0.004 C 
ENDBRANCH  14  16
ENDBRANCH   9  14
ENDBRANCH   1  11
BRANCH   6  17
ATOM     17  N   UNL     1       0.499  -6.189  -0.474  0.00  0.00    -0.357 N 
ATOM     18  H   UNL     1       0.450  -5.473   0.180  0.00  0.00    +0.142 HD
ATOM     19  H   UNL     1       1.196  -6.859  -0.408  0.00  0.00    +0.142 HD
ENDBRANCH   6  17
TORSDOF 4
