REMARK  Name = ZINC06445383
REMARK  8 active torsions:
REMARK  status: ('A' for Active; 'I' for Inactive)
REMARK    1  A    between atoms: C_6  and  N_7
REMARK    2  A    between atoms: N_7  and  C_8
REMARK    3  A    between atoms: C_8  and  C_10
REMARK    4  A    between atoms: C_8  and  C_16
REMARK    5  A    between atoms: N_18  and  C_19
REMARK    6  A    between atoms: C_24  and  C_26
REMARK    7  A    between atoms: C_27  and  N_34
REMARK    8  A    between atoms: C_28  and  C_31
REMARK                            x       y       z     vdW  Elec       q    Type
REMARK                         _______ _______ _______ _____ _____    ______ ____
ROOT
ATOM      1  N   UNL     1       2.845  -0.517  -0.269  0.00  0.00    -0.251 N 
ATOM      2  C   UNL     1       3.754   0.244  -0.911  0.00  0.00    +0.262 C 
ATOM      3  O   UNL     1       3.414   0.927  -1.859  0.00  0.00    -0.269 OA
ENDROOT
BRANCH   1   9
ATOM      4  C   UNL     1       0.541  -1.154   0.076  0.00  0.00    +0.027 A 
ATOM      5  C   UNL     1      -0.777  -1.155  -0.339  0.00  0.00    +0.051 A 
ATOM      6  C   UNL     1      -1.137  -0.519  -1.517  0.00  0.00    +0.162 A 
ATOM      7  C   UNL     1      -0.171   0.124  -2.282  0.00  0.00    +0.164 A 
ATOM      8  C   UNL     1       1.152   0.124  -1.867  0.00  0.00    +0.073 A 
ATOM      9  C   UNL     1       1.509  -0.515  -0.688  0.00  0.00    +0.041 A 
ATOM     10  O   UNL     1      -0.507   0.761  -3.437  0.00  0.00    -0.485 OA
ATOM     11  C   UNL     1      -1.773   0.423  -4.014  0.00  0.00    +0.270 C 
ATOM     12  C   UNL     1      -2.826   0.429  -2.898  0.00  0.00    +0.270 C 
ATOM     13  O   UNL     1      -2.440  -0.537  -1.914  0.00  0.00    -0.485 OA
ENDBRANCH   1   9
BRANCH   2  14
ATOM     14  C   UNL     1       5.149   0.249  -0.468  0.00  0.00    +0.116 A 
ATOM     15  C   UNL     1       6.050   1.313  -0.391  0.00  0.00    +0.076 A 
ATOM     16  C   UNL     1       7.301   0.920   0.085  0.00  0.00    +0.155 A 
ATOM     17  N   UNL     1       7.504  -0.341   0.396  0.00  0.00    -0.203 NA
ATOM     18  S   UNL     1       6.150  -1.100   0.123  0.00  0.00    +0.019 S 
BRANCH  16  19
ATOM     19  C   UNL     1       8.384   1.909   0.235  0.00  0.00    +0.262 C 
ATOM     20  O   UNL     1       8.190   3.074  -0.056  0.00  0.00    -0.269 OA
ATOM     21  N   UNL     1       9.591   1.522   0.694  0.00  0.00    -0.324 N 
ATOM     22  H   UNL     1       9.746   0.593   0.926  0.00  0.00    +0.145 HD
ATOM     23  H   UNL     1      10.304   2.172   0.793  0.00  0.00    +0.145 HD
ENDBRANCH  16  19
BRANCH  15  24
ATOM     24  N   UNL     1       5.734   2.618  -0.746  0.00  0.00    -0.355 N 
ATOM     25  H   UNL     1       4.845   2.831  -1.070  0.00  0.00    +0.142 HD
ATOM     26  H   UNL     1       6.403   3.316  -0.670  0.00  0.00    +0.142 HD
ENDBRANCH  15  24
ENDBRANCH   2  14
BRANCH   1  27
ATOM     27  C   UNL     1       3.256  -1.345   0.868  0.00  0.00    +0.198 C 
BRANCH  27  28
ATOM     28  C   UNL     1       2.452  -0.964   2.084  0.00  0.00    -0.015 A 
ATOM     29  C   UNL     1       1.516   0.057   2.024  0.00  0.00    +0.025 A 
ATOM     30  C   UNL     1       0.794   0.376   3.158  0.00  0.00    +0.111 A 
ATOM     31  N   UNL     1       0.994  -0.271   4.290  0.00  0.00    -0.263 NA
ATOM     32  C   UNL     1       1.879  -1.244   4.384  0.00  0.00    +0.111 A 
ATOM     33  C   UNL     1       2.634  -1.622   3.290  0.00  0.00    +0.025 A 
ENDBRANCH  27  28
BRANCH  27  34
ATOM     34  C   UNL     1       3.018  -2.797   0.543  0.00  0.00    +0.239 C 
ATOM     35  O   UNL     1       2.276  -3.101  -0.367  0.00  0.00    -0.273 OA
ATOM     36  N   UNL     1       3.629  -3.758   1.264  0.00  0.00    -0.311 N 
ATOM     37  H   UNL     1       4.222  -3.515   1.991  0.00  0.00    +0.149 HD
BRANCH  36  38
ATOM     38  C   UNL     1       3.397  -5.170   0.948  0.00  0.00    +0.073 C 
ATOM     39  C   UNL     1       2.161  -5.686   1.713  0.00  0.00    +0.022 C 
ATOM     40  C   UNL     1       2.535  -7.138   2.103  0.00  0.00    +0.002 C 
ATOM     41  C   UNL     1       4.040  -7.021   2.453  0.00  0.00    +0.002 C 
ATOM     42  C   UNL     1       4.592  -6.018   1.419  0.00  0.00    +0.022 C 
ENDBRANCH  36  38
ENDBRANCH  27  34
ENDBRANCH   1  27
TORSDOF 8
