REMARK  Name = ZINC01476594
REMARK  6 active torsions:
REMARK  status: ('A' for Active; 'I' for Inactive)
REMARK    1  A    between atoms: C_1  and  C_2
REMARK    2  A    between atoms: C_5  and  N_8
REMARK    3  A    between atoms: C_18  and  S_19
REMARK    4  A    between atoms: S_19  and  C_20
REMARK    5  A    between atoms: C_20  and  C_21
REMARK    6  A    between atoms: N_23  and  C_24
REMARK                            x       y       z     vdW  Elec       q    Type
REMARK                         _______ _______ _______ _____ _____    ______ ____
ROOT
ATOM      1  N   UNL     1       0.170  -2.807   0.503  0.00  0.00    -0.255 N 
ATOM      2  C   UNL     1       1.325  -2.156   0.778  0.00  0.00    +0.267 A 
ATOM      3  O   UNL     1       2.314  -2.758   1.153  0.00  0.00    -0.267 OA
ATOM      4  C   UNL     1       1.340  -0.698   0.606  0.00  0.00    +0.065 A 
ATOM      5  C   UNL     1       2.481   0.062   0.862  0.00  0.00    +0.015 A 
ATOM      6  C   UNL     1       2.440   1.418   0.687  0.00  0.00    +0.001 A 
ATOM      7  C   UNL     1       1.278   2.044   0.254  0.00  0.00    +0.002 A 
ATOM      8  C   UNL     1       0.146   1.323  -0.004  0.00  0.00    +0.028 A 
ATOM      9  C   UNL     1       0.155  -0.064   0.167  0.00  0.00    +0.079 A 
ATOM     10  N   UNL     1      -0.943  -0.816  -0.077  0.00  0.00    -0.223 NA
ATOM     11  C   UNL     1      -0.933  -2.117   0.083  0.00  0.00    +0.177 A 
ENDROOT
BRANCH   1  16
ATOM     12  C   UNL     1      -0.094  -8.444   1.105  0.00  0.00    +0.044 C 
ATOM     13  C   UNL     1      -0.024  -6.947   0.945  0.00  0.00    -0.050 A 
ATOM     14  C   UNL     1       0.724  -6.396  -0.080  0.00  0.00    +0.005 A 
ATOM     15  C   UNL     1       0.790  -5.025  -0.229  0.00  0.00    +0.026 A 
ATOM     16  C   UNL     1       0.105  -4.199   0.652  0.00  0.00    +0.052 A 
ATOM     17  C   UNL     1      -0.641  -4.754   1.683  0.00  0.00    +0.026 A 
ATOM     18  C   UNL     1      -0.708  -6.126   1.823  0.00  0.00    +0.005 A 
ENDBRANCH   1  16
BRANCH  11  19
ATOM     19  S   UNL     1      -2.408  -3.018  -0.259  0.00  0.00    -0.078 S 
BRANCH  19  20
ATOM     20  C   UNL     1      -3.497  -1.660  -0.756  0.00  0.00    +0.173 C 
BRANCH  20  21
ATOM     21  C   UNL     1      -4.856  -2.209  -1.106  0.00  0.00    +0.228 C 
ATOM     22  O   UNL     1      -5.068  -3.401  -1.026  0.00  0.00    -0.275 OA
ATOM     23  N   UNL     1      -5.837  -1.376  -1.506  0.00  0.00    -0.284 N 
ATOM     24  H   UNL     1      -5.689  -0.417  -1.506  0.00  0.00    +0.155 HD
BRANCH  23  25
ATOM     25  C   UNL     1      -7.069  -1.893  -1.923  0.00  0.00    +0.047 A 
ATOM     26  C   UNL     1      -7.524  -3.102  -1.413  0.00  0.00    +0.024 A 
ATOM     27  C   UNL     1      -8.742  -3.609  -1.823  0.00  0.00    +0.002 A 
ATOM     28  C   UNL     1      -9.504  -2.918  -2.747  0.00  0.00    +0.001 A 
ATOM     29  C   UNL     1      -9.052  -1.717  -3.261  0.00  0.00    +0.017 A 
ATOM     30  C   UNL     1      -7.836  -1.202  -2.852  0.00  0.00    +0.039 A 
ATOM     31 BR   UNL     1      -7.218   0.441  -3.556  0.00  0.00    -0.048 Br
ENDBRANCH  23  25
ENDBRANCH  20  21
ENDBRANCH  19  20
ENDBRANCH  11  19
TORSDOF 5
