REMARK  Name = ZINC40811829
REMARK  7 active torsions:
REMARK  status: ('A' for Active; 'I' for Inactive)
REMARK    1  A    between atoms: C_1  and  C_2
REMARK    2  A    between atoms: C_4  and  O_9
REMARK    3  A    between atoms: O_9  and  C_10
REMARK    4  A    between atoms: C_10  and  C_12
REMARK    5  A    between atoms: C_13  and  C_32
REMARK    6  A    between atoms: N_21  and  N_22
REMARK    7  A    between atoms: C_23  and  C_25
REMARK                            x       y       z     vdW  Elec       q    Type
REMARK                         _______ _______ _______ _____ _____    ______ ____
ROOT
ATOM      1  C   UNL     1       0.270  -4.853  -3.594  0.00  0.00    +0.215 A 
ATOM      2  C   UNL     1       0.394  -6.212  -3.692  0.00  0.00    +0.011 A 
ATOM      3  C   UNL     1       0.476  -6.499  -5.060  0.00  0.00    +0.042 A 
ATOM      4  C   UNL     1       0.401  -5.305  -5.738  0.00  0.00    +0.115 A 
ATOM      5  O   UNL     1       0.270  -4.330  -4.842  0.00  0.00    -0.452 OA
ATOM      6  C   UNL     1       0.461  -5.211  -7.242  0.00  0.00    +0.075 C 
ATOM      7  C   UNL     1       1.110  -6.478  -7.805  0.00  0.00    +0.014 C 
ATOM      8  C   UNL     1       0.405  -7.729  -7.273  0.00  0.00    +0.058 C 
ATOM      9  C   UNL     1       0.616  -7.792  -5.767  0.00  0.00    +0.070 C 
ATOM     10  N   UNL     1       0.898  -8.897  -5.149  0.00  0.00    -0.184 NA
ATOM     11  C   UNL     1       0.434  -7.201  -2.556  0.00  0.00    +0.048 C 
ENDROOT
BRANCH  10  12
ATOM     12  N   UNL     1       1.018 -10.092  -5.870  0.00  0.00    -0.203 N 
ATOM     13  C   UNL     1       1.311 -11.240  -5.228  0.00  0.00    +0.263 C 
ATOM     14  O   UNL     1       1.470 -11.239  -4.022  0.00  0.00    -0.268 OA
ATOM     15  H   UNL     1       0.891 -10.093  -6.832  0.00  0.00    +0.178 HD
BRANCH  13  16
ATOM     16  C   UNL     1       1.438 -12.500  -5.988  0.00  0.00    +0.038 A 
ATOM     17  C   UNL     1       1.261 -12.504  -7.373  0.00  0.00    +0.014 A 
ATOM     18  C   UNL     1       1.381 -13.684  -8.077  0.00  0.00    +0.016 A 
ATOM     19  C   UNL     1       1.676 -14.863  -7.414  0.00  0.00    +0.018 A 
ATOM     20  C   UNL     1       1.852 -14.866  -6.040  0.00  0.00    +0.016 A 
ATOM     21  C   UNL     1       1.741 -13.691  -5.325  0.00  0.00    +0.014 A 
ATOM     22 BR   UNL     1       1.837 -16.476  -8.387  0.00  0.00    -0.050 Br
ENDBRANCH  13  16
ENDBRANCH  10  12
BRANCH   1  23
ATOM     23  C   UNL     1       0.151  -4.092  -2.347  0.00  0.00    +0.380 C 
ATOM     24  O   UNL     1       0.163  -4.671  -1.278  0.00  0.00    -0.241 OA
BRANCH  23  25
ATOM     25  O   UNL     1       0.028  -2.749  -2.386  0.00  0.00    -0.420 OA
BRANCH  25  29
ATOM     26  C   UNL     1       2.490  -1.220   1.542  0.00  0.00    +0.045 C 
ATOM     27  C   UNL     1       1.220  -1.306   0.735  0.00  0.00    -0.029 A 
ATOM     28  C   UNL     1       1.210  -1.994  -0.464  0.00  0.00    +0.051 A 
ATOM     29  C   UNL     1       0.041  -2.073  -1.206  0.00  0.00    +0.132 A 
ATOM     30  C   UNL     1      -1.116  -1.462  -0.744  0.00  0.00    +0.048 A 
ATOM     31  C   UNL     1      -1.101  -0.775   0.454  0.00  0.00    +0.024 A 
ATOM     32  C   UNL     1       0.065  -0.701   1.196  0.00  0.00    +0.044 A 
ATOM     33 CL   UNL     1       0.079   0.157   2.705  0.00  0.00    -0.083 Cl
ENDBRANCH  25  29
ENDBRANCH  23  25
ENDBRANCH   1  23
TORSDOF 5
