REMARK  Name = ZINC12037877
REMARK  13 active torsions:
REMARK  status: ('A' for Active; 'I' for Inactive)
REMARK    1  A    between atoms: C_1  and  C_2
REMARK    2  A    between atoms: C_4  and  C_8
REMARK    3  A    between atoms: N_5  and  C_7
REMARK    4  A    between atoms: N_10  and  C_11
REMARK    5  A    between atoms: C_11  and  C_12
REMARK    6  A    between atoms: C_22  and  C_23
REMARK    7  A    between atoms: C_22  and  N_70
REMARK    8  A    between atoms: C_25  and  O_33
REMARK    9  A    between atoms: C_26  and  O_31
REMARK   10  A    between atoms: C_28  and  O_29
REMARK   11  A    between atoms: O_29  and  C_30
REMARK   12  A    between atoms: O_31  and  C_32
REMARK   13  A    between atoms: O_33  and  C_34
REMARK                            x       y       z     vdW  Elec       q    Type
REMARK                         _______ _______ _______ _____ _____    ______ ____
ROOT
ATOM      1  C   UNL     1      -9.411  -0.253  -2.676  0.00  0.00    +0.136 C 
ATOM      2  C   UNL     1      -9.134   0.429  -4.040  0.00  0.00    +0.036 C 
ATOM      3  C   UNL     1      -7.649   0.844  -3.900  0.00  0.00    +0.037 C 
ATOM      4  C   UNL     1      -7.108  -0.071  -2.788  0.00  0.00    +0.067 C 
ATOM      5  O   UNL     1      -8.175  -0.942  -2.386  0.00  0.00    -0.369 OA
ATOM      6  C   UNL     1      -5.936  -0.895  -3.322  0.00  0.00    +0.016 C 
ATOM      7  C   UNL     1      -5.370  -1.759  -2.192  0.00  0.00    -0.076 C 
ATOM      8  C   UNL     1      -6.062  -0.141  -0.524  0.00  0.00    -0.076 C 
ATOM      9  C   UNL     1      -6.651   0.775  -1.600  0.00  0.00    +0.016 C 
ATOM     10  N   UNL     1      -4.914  -0.876  -1.097  0.00  0.00    +0.383 N 
ATOM     11  H   UNL     1      -4.240  -0.199  -1.474  0.00  0.00    -0.081 HD
ENDROOT
BRANCH   1  12
ATOM     12  C   UNL     1     -10.569  -1.246  -2.796  0.00  0.00    +0.136 C 
BRANCH  12  15
ATOM     13  C   UNL     1     -11.881  -2.687  -1.333  0.00  0.00    +0.262 C 
ATOM     14  O   UNL     1     -12.574  -2.980  -2.289  0.00  0.00    -0.269 OA
ATOM     15  N   UNL     1     -10.887  -1.787  -1.472  0.00  0.00    -0.308 N 
ATOM     16  H   UNL     1     -10.383  -1.498  -0.696  0.00  0.00    +0.149 HD
BRANCH  13  20
ATOM     17  C   UNL     1     -11.687  -3.978   3.567  0.00  0.00    +0.067 C 
ATOM     18  C   UNL     1     -12.056  -3.890   2.109  0.00  0.00    +0.061 A 
ATOM     19  C   UNL     1     -11.466  -3.050   1.161  0.00  0.00    +0.057 A 
ATOM     20  C   UNL     1     -12.127  -3.315  -0.025  0.00  0.00    +0.123 A 
ATOM     21  N   UNL     1     -13.051  -4.280   0.260  0.00  0.00    -0.262 N 
ATOM     22  N   UNL     1     -12.982  -4.589   1.504  0.00  0.00    -0.176 NA
ATOM     23  C   UNL     1     -13.979  -4.873  -0.707  0.00  0.00    +0.173 C 
ENDBRANCH  13  20
ENDBRANCH  12  15
ENDBRANCH   1  12
BRANCH  10  24
ATOM     24  C   UNL     1      -4.253  -1.677  -0.045  0.00  0.00    -0.039 C 
BRANCH  24  25
ATOM     25  C   UNL     1      -3.609  -0.740   0.944  0.00  0.00    -0.019 A 
ATOM     26  C   UNL     1      -2.256  -0.466   0.857  0.00  0.00    +0.054 A 
ATOM     27  C   UNL     1      -1.662   0.390   1.769  0.00  0.00    +0.162 A 
ATOM     28  C   UNL     1      -2.429   0.984   2.767  0.00  0.00    +0.165 A 
ATOM     29  C   UNL     1      -3.784   0.713   2.849  0.00  0.00    +0.095 A 
ATOM     30  C   UNL     1      -4.375  -0.149   1.938  0.00  0.00    +0.125 A 
BRANCH  30  31
ATOM     31  O   UNL     1      -5.706  -0.416   2.018  0.00  0.00    -0.495 OA
ATOM     32  C   UNL     1      -6.434   0.228   3.066  0.00  0.00    +0.277 C 
ENDBRANCH  30  31
BRANCH  28  33
ATOM     33  O   UNL     1      -1.848   1.829   3.660  0.00  0.00    -0.491 OA
ATOM     34  C   UNL     1      -2.696   2.402   4.657  0.00  0.00    +0.277 C 
ENDBRANCH  28  33
BRANCH  27  35
ATOM     35  O   UNL     1      -0.330   0.655   1.685  0.00  0.00    -0.491 OA
ATOM     36  C   UNL     1       0.395   0.011   0.636  0.00  0.00    +0.277 C 
ENDBRANCH  27  35
ENDBRANCH  24  25
ENDBRANCH  10  24
TORSDOF 8
