REMARK  Name = ZINC08425080
REMARK  7 active torsions:
REMARK  status: ('A' for Active; 'I' for Inactive)
REMARK    1  A    between atoms: C_1  and  C_2
REMARK    2  A    between atoms: C_2  and  O_3
REMARK    3  A    between atoms: O_3  and  C_4
REMARK    4  A    between atoms: C_12  and  S_14
REMARK    5  A    between atoms: S_14  and  C_15
REMARK    6  A    between atoms: C_15  and  C_16
REMARK    7  A    between atoms: C_29  and  C_31
REMARK                            x       y       z     vdW  Elec       q    Type
REMARK                         _______ _______ _______ _____ _____    ______ ____
ROOT
ATOM      1  C   UNL     1       2.246  -9.906  -3.777  0.00  0.00    +0.230 C 
ATOM      2  O   UNL     1       2.846  -9.884  -4.830  0.00  0.00    -0.274 OA
ATOM      3  N   UNL     1       1.931 -11.085  -3.205  0.00  0.00    -0.266 N 
ATOM      4  C   UNL     1       1.232 -11.125  -1.991  0.00  0.00    +0.058 A 
ATOM      5  C   UNL     1      -0.111 -10.789  -1.937  0.00  0.00    +0.025 A 
ATOM      6  C   UNL     1      -0.789 -10.857  -0.734  0.00  0.00    +0.002 A 
ATOM      7  C   UNL     1      -0.133 -11.260   0.415  0.00  0.00    +0.002 A 
ATOM      8  C   UNL     1       1.209 -11.589   0.371  0.00  0.00    +0.025 A 
ATOM      9  C   UNL     1       1.898 -11.513  -0.828  0.00  0.00    +0.055 A 
ATOM     10  N   UNL     1       3.270 -11.787  -0.886  0.00  0.00    -0.284 N 
ATOM     11  C   UNL     1       3.765 -12.608  -1.838  0.00  0.00    +0.219 C 
ATOM     12  O   UNL     1       4.963 -12.771  -1.928  0.00  0.00    -0.275 OA
ATOM     13  C   UNL     1       2.838 -13.322  -2.786  0.00  0.00    +0.118 C 
ATOM     14  C   UNL     1       2.307 -12.348  -3.844  0.00  0.00    +0.087 C 
ATOM     15  C   UNL     1       1.082 -12.954  -4.532  0.00  0.00    +0.029 C 
ATOM     16  H   UNL     1       3.869 -11.384  -0.238  0.00  0.00    +0.155 HD
ENDROOT
BRANCH   1  17
ATOM     17  C   UNL     1       1.852  -8.615  -3.107  0.00  0.00    +0.173 C 
BRANCH  17  18
ATOM     18  S   UNL     1       2.413  -7.215  -4.115  0.00  0.00    -0.079 S 
BRANCH  18  27
ATOM     19  C   UNL     1       0.777  -1.811  -1.336  0.00  0.00    +0.123 A 
ATOM     20  C   UNL     1       0.240  -2.668  -0.381  0.00  0.00    +0.048 A 
ATOM     21  C   UNL     1       0.340  -4.032  -0.533  0.00  0.00    +0.033 A 
ATOM     22  C   UNL     1       0.984  -4.562  -1.654  0.00  0.00    +0.090 A 
ATOM     23  C   UNL     1       1.525  -3.694  -2.616  0.00  0.00    +0.070 A 
ATOM     24  C   UNL     1       1.413  -2.322  -2.454  0.00  0.00    +0.073 A 
ATOM     25  N   UNL     1       2.088  -4.502  -3.591  0.00  0.00    -0.333 N 
ATOM     26  H   UNL     1       2.544  -4.203  -4.394  0.00  0.00    +0.168 HD
ATOM     27  C   UNL     1       1.884  -5.799  -3.211  0.00  0.00    +0.168 A 
ATOM     28  N   UNL     1       1.235  -5.831  -2.073  0.00  0.00    -0.222 NA
BRANCH  19  29
ATOM     29  O   UNL     1       0.671  -0.465  -1.174  0.00  0.00    -0.492 OA
BRANCH  29  31
ATOM     30  C   UNL     1      -0.019   1.526   0.010  0.00  0.00    +0.048 C 
ATOM     31  C   UNL     1       0.002  -0.004   0.002  0.00  0.00    +0.225 C 
ENDBRANCH  29  31
ENDBRANCH  19  29
ENDBRANCH  18  27
ENDBRANCH  17  18
ENDBRANCH   1  17
TORSDOF 5
