REMARK  Name = ZINC09881612
REMARK  9 active torsions:
REMARK  status: ('A' for Active; 'I' for Inactive)
REMARK    1  A    between atoms: C_1  and  C_2
REMARK    2  A    between atoms: C_2  and  C_4
REMARK    3  A    between atoms: C_2  and  S_16
REMARK    4  A    between atoms: N_6  and  C_7
REMARK    5  A    between atoms: C_12  and  N_13
REMARK    6  A    between atoms: S_16  and  C_17
REMARK    7  A    between atoms: C_20  and  C_29
REMARK    8  A    between atoms: N_21  and  C_22
REMARK    9  A    between atoms: C_29  and  N_59
REMARK                            x       y       z     vdW  Elec       q    Type
REMARK                         _______ _______ _______ _____ _____    ______ ____
ROOT
ATOM      1  C   UNL     1      -0.000   0.009  -0.015  0.00  0.00    +0.197 A 
ATOM      2  N   UNL     1      -0.023   1.321  -0.023  0.00  0.00    -0.122 NA
ATOM      3  N   UNL     1       1.178   1.780  -0.041  0.00  0.00    -0.135 NA
ATOM      4  C   UNL     1       2.033   0.797  -0.046  0.00  0.00    +0.122 A 
ATOM      5  N   UNL     1       1.315  -0.369  -0.029  0.00  0.00    -0.276 N 
ENDROOT
BRANCH   5   6
ATOM      6  C   UNL     1       1.821  -1.677  -0.028  0.00  0.00    +0.050 A 
ATOM      7  C   UNL     1       2.564  -2.133   1.053  0.00  0.00    +0.029 A 
ATOM      8  C   UNL     1       3.058  -3.423   1.055  0.00  0.00    +0.040 A 
ATOM      9  C   UNL     1       2.821  -4.258  -0.024  0.00  0.00    +0.124 A 
ATOM     10  C   UNL     1       2.084  -3.803  -1.105  0.00  0.00    +0.040 A 
ATOM     11  C   UNL     1       1.585  -2.516  -1.108  0.00  0.00    +0.029 A 
ATOM     12  F   UNL     1       3.310  -5.518  -0.023  0.00  0.00    -0.205 F 
ENDBRANCH   5   6
BRANCH   1  13
ATOM     13  S   UNL     1      -1.398  -1.063   0.009  0.00  0.00    -0.073 S 
BRANCH  13  15
ATOM     14  C   UNL     1      -2.712   0.946  -1.294  0.00  0.00    +0.029 C 
ATOM     15  C   UNL     1      -2.732   0.160   0.018  0.00  0.00    +0.137 C 
BRANCH  15  16
ATOM     16  C   UNL     1      -4.057  -0.543   0.163  0.00  0.00    +0.230 C 
ATOM     17  O   UNL     1      -4.152  -1.721  -0.108  0.00  0.00    -0.274 OA
ATOM     18  N   UNL     1      -5.138   0.138   0.594  0.00  0.00    -0.283 N 
ATOM     19  H   UNL     1      -5.046   1.058   0.887  0.00  0.00    +0.155 HD
BRANCH  18  20
ATOM     20  C   UNL     1      -6.392  -0.483   0.618  0.00  0.00    +0.064 A 
ATOM     21  C   UNL     1      -6.661  -1.542  -0.239  0.00  0.00    +0.025 A 
ATOM     22  C   UNL     1      -7.898  -2.155  -0.210  0.00  0.00    +0.002 A 
ATOM     23  C   UNL     1      -8.872  -1.708   0.665  0.00  0.00    +0.002 A 
ATOM     24  C   UNL     1      -8.609  -0.651   1.516  0.00  0.00    +0.034 A 
ATOM     25  C   UNL     1      -7.372  -0.037   1.495  0.00  0.00    +0.147 A 
BRANCH  25  26
ATOM     26  N   UNL     1      -7.091   1.096   2.405  0.00  0.00    +0.058 N 
ATOM     27  O   UNL     1      -7.918   1.428   3.236  0.00  0.00    -0.126 OA
ATOM     28  O   UNL     1      -6.034   1.695   2.324  0.00  0.00    -0.126 OA
ENDBRANCH  25  26
ENDBRANCH  18  20
ENDBRANCH  15  16
ENDBRANCH  13  15
ENDBRANCH   1  13
BRANCH   4  29
ATOM     29  C   UNL     1       3.535   0.920  -0.066  0.00  0.00    -0.001 C 
BRANCH  29  35
ATOM     30  C   UNL     1       3.745  -0.328  -2.130  0.00  0.00    -0.078 C 
ATOM     31  C   UNL     1       4.113  -0.212  -3.611  0.00  0.00    -0.019 C 
ATOM     32  C   UNL     1       5.593   0.161  -3.737  0.00  0.00    -0.004 C 
ATOM     33  C   UNL     1       5.847   1.472  -2.987  0.00  0.00    -0.019 C 
ATOM     34  C   UNL     1       5.429   1.306  -1.524  0.00  0.00    -0.078 C 
ATOM     35  N   UNL     1       3.990   0.973  -1.471  0.00  0.00    +0.384 N 
ATOM     36  H   UNL     1       3.461   1.701  -1.965  0.00  0.00    -0.081 HD
ENDBRANCH  29  35
ENDBRANCH   4  29
TORSDOF 8
