REMARK  Name = ZINC09673456
REMARK  4 active torsions:
REMARK  status: ('A' for Active; 'I' for Inactive)
REMARK    1  A    between atoms: C_1  and  C_2
REMARK    2  A    between atoms: C_5  and  N_8
REMARK    3  A    between atoms: C_13  and  C_30
REMARK    4  A    between atoms: C_21  and  C_23
REMARK                            x       y       z     vdW  Elec       q    Type
REMARK                         _______ _______ _______ _____ _____    ______ ____
ROOT
ATOM      1  N   UNL     1       0.088  -4.167  -0.017  0.00  0.00    -0.208 N 
ATOM      2  C   UNL     1       0.100  -4.934   1.121  0.00  0.00    +0.234 C 
ATOM      3  O   UNL     1      -0.116  -4.573   2.259  0.00  0.00    -0.274 OA
ATOM      4  C   UNL     1       0.425  -6.262   0.668  0.00  0.00    +0.130 C 
ATOM      5  C   UNL     1       0.316  -7.671   1.073  0.00  0.00    +0.117 C 
ATOM      6  N   UNL     1       0.384  -8.399  -0.238  0.00  0.00    -0.229 NA
ATOM      7  N   UNL     1       0.451  -7.455  -1.264  0.00  0.00    -0.220 N 
ATOM      8  C   UNL     1      -0.309  -6.307  -0.734  0.00  0.00    +0.194 C 
ATOM      9  C   UNL     1       0.082  -4.918  -1.157  0.00  0.00    +0.249 C 
ATOM     10  O   UNL     1       0.341  -4.543  -2.281  0.00  0.00    -0.273 OA
ATOM     11  C   UNL     1       1.056  -7.580  -2.462  0.00  0.00    +0.261 C 
ATOM     12  O   UNL     1       0.943  -6.701  -3.295  0.00  0.00    -0.269 OA
ATOM     13  H   UNL     1      -0.413  -9.006  -0.356  0.00  0.00    +0.145 HD
ENDROOT
BRANCH   1  18
ATOM     14  C   UNL     1       0.042   1.509   0.014  0.00  0.00    +0.044 C 
ATOM     15  C   UNL     1       0.054   0.002   0.006  0.00  0.00    -0.050 A 
ATOM     16  C   UNL     1       0.049  -0.682  -1.196  0.00  0.00    +0.005 A 
ATOM     17  C   UNL     1       0.060  -2.063  -1.207  0.00  0.00    +0.024 A 
ATOM     18  C   UNL     1       0.077  -2.765  -0.009  0.00  0.00    +0.044 A 
ATOM     19  C   UNL     1       0.083  -2.076   1.196  0.00  0.00    +0.024 A 
ATOM     20  C   UNL     1       0.076  -0.695   1.200  0.00  0.00    +0.005 A 
ENDBRANCH   1  18
BRANCH  11  21
ATOM     21  C   UNL     1       1.856  -8.786  -2.764  0.00  0.00    +0.039 A 
ATOM     22  C   UNL     1       2.579  -8.867  -3.956  0.00  0.00    +0.013 A 
ATOM     23  C   UNL     1       3.324  -9.995  -4.232  0.00  0.00    +0.002 A 
ATOM     24  C   UNL     1       3.355 -11.045  -3.332  0.00  0.00    +0.015 A 
ATOM     25  C   UNL     1       2.639 -10.972  -2.149  0.00  0.00    +0.019 A 
ATOM     26  C   UNL     1       1.896  -9.845  -1.857  0.00  0.00    +0.028 A 
ATOM     27 BR   UNL     1       2.688 -12.413  -0.926  0.00  0.00    -0.050 Br
ENDBRANCH  11  21
BRANCH   5  28
ATOM     28  C   UNL     1      -0.998  -7.928   1.764  0.00  0.00    -0.028 A 
ATOM     29  C   UNL     1      -2.146  -8.113   1.017  0.00  0.00    +0.008 A 
ATOM     30  C   UNL     1      -3.352  -8.349   1.649  0.00  0.00    +0.038 A 
ATOM     31  C   UNL     1      -3.410  -8.402   3.031  0.00  0.00    +0.123 A 
ATOM     32  C   UNL     1      -2.259  -8.217   3.779  0.00  0.00    +0.038 A 
ATOM     33  C   UNL     1      -1.054  -7.986   3.144  0.00  0.00    +0.008 A 
ATOM     34  F   UNL     1      -4.588  -8.632   3.650  0.00  0.00    -0.205 F 
ENDBRANCH   5  28
TORSDOF 3
