REMARK  Name = ZINC39621065
REMARK  4 active torsions:
REMARK  status: ('A' for Active; 'I' for Inactive)
REMARK    1  A    between atoms: C_1  and  C_2
REMARK    2  A    between atoms: C_6  and  C_10
REMARK    3  A    between atoms: C_11  and  C_12
REMARK    4  A    between atoms: C_24  and  C_26
REMARK                            x       y       z     vdW  Elec       q    Type
REMARK                         _______ _______ _______ _____ _____    ______ ____
ROOT
ATOM      1  C   UNL     1      -1.332   1.378  -0.056  0.00  0.00    +0.041 C 
ATOM      2  C   UNL     1      -1.060  -0.105  -0.051  0.00  0.00    -0.034 C 
ATOM      3  C   UNL     1      -0.819  -0.767  -1.190  0.00  0.00    +0.071 C 
ATOM      4  C   UNL     1      -0.561  -2.222  -1.096  0.00  0.00    +0.112 C 
ATOM      5  N   UNL     1      -0.320  -2.927  -2.171  0.00  0.00    -0.222 NA
ATOM      6  C   UNL     1      -0.298  -2.362  -3.382  0.00  0.00    +0.165 C 
ATOM      7  N   UNL     1      -0.515  -1.071  -3.581  0.00  0.00    -0.156 NA
ATOM      8  C   UNL     1      -0.774  -0.224  -2.586  0.00  0.00    +0.272 C 
ATOM      9  O   UNL     1      -0.970   0.961  -2.805  0.00  0.00    -0.268 OA
ATOM     10  S   UNL     1      -0.673  -2.588   0.637  0.00  0.00    -0.086 S 
ATOM     11  C   UNL     1      -1.044  -0.891   1.240  0.00  0.00    +0.192 C 
ENDROOT
BRANCH   6  12
ATOM     12  C   UNL     1      -0.021  -3.213  -4.546  0.00  0.00    +0.083 C 
ATOM     13  C   UNL     1       0.007  -2.675  -5.783  0.00  0.00    +0.031 C 
ATOM     14 CL   UNL     1       0.269  -4.911  -4.331  0.00  0.00    -0.080 Cl
BRANCH  13  15
ATOM     15  C   UNL     1       0.124  -3.547  -6.962  0.00  0.00    -0.023 A 
ATOM     16  C   UNL     1      -0.465  -4.827  -6.947  0.00  0.00    +0.010 A 
ATOM     17  C   UNL     1      -0.371  -5.648  -8.022  0.00  0.00    +0.029 A 
ATOM     18  C   UNL     1       0.321  -5.229  -9.175  0.00  0.00    +0.071 A 
ATOM     19  C   UNL     1       0.918  -3.943  -9.200  0.00  0.00    +0.001 A 
ATOM     20  C   UNL     1       0.809  -3.103  -8.085  0.00  0.00    +0.018 A 
ATOM     21  C   UNL     1       1.609  -3.534 -10.358  0.00  0.00    +0.011 A 
ATOM     22  C   UNL     1       1.673  -4.401 -11.411  0.00  0.00    +0.020 A 
ATOM     23  C   UNL     1       1.064  -5.650 -11.320  0.00  0.00    +0.111 A 
ATOM     24  N   UNL     1       0.422  -6.028 -10.241  0.00  0.00    -0.255 NA
ENDBRANCH  13  15
ENDBRANCH   6  12
BRANCH  11  25
ATOM     25  C   UNL     1       0.041  -0.395   2.160  0.00  0.00    +0.373 C 
ATOM     26  O   UNL     1      -0.197  -0.218   3.343  0.00  0.00    -0.245 OA
ATOM     27  O   UNL     1       1.157  -0.170   1.723  0.00  0.00    -0.245 OA
ENDBRANCH  11  25
TORSDOF 3
