REMARK  Name = ZINC13347074
REMARK  5 active torsions:
REMARK  status: ('A' for Active; 'I' for Inactive)
REMARK    1  A    between atoms: C_1  and  C_2
REMARK    2  A    between atoms: C_2  and  N_62
REMARK    3  A    between atoms: C_11  and  N_23
REMARK    4  A    between atoms: C_12  and  C_16
REMARK    5  A    between atoms: N_23  and  C_24
REMARK                            x       y       z     vdW  Elec       q    Type
REMARK                         _______ _______ _______ _____ _____    ______ ____
ROOT
ATOM      1  C   UNL     1      -0.013   1.086   0.008  0.00  0.00    -0.060 C 
ATOM      2  C   UNL     1      -0.754   1.593  -1.231  0.00  0.00    +0.088 C 
ATOM      3  N   UNL     1      -0.806   3.062  -1.200  0.00  0.00    -0.312 N 
ATOM      4  C   UNL     1      -1.495   3.536   0.008  0.00  0.00    +0.088 C 
ATOM      5  C   UNL     1      -0.754   3.029   1.247  0.00  0.00    -0.060 C 
ATOM      6  C   UNL     1      -1.408   3.561  -2.344  0.00  0.00    +0.184 A 
ATOM      7  N   UNL     1      -1.639   4.803  -2.674  0.00  0.00    -0.140 NA
ATOM      8  N   UNL     1      -2.257   5.129  -3.877  0.00  0.00    -0.190 N 
ATOM      9  C   UNL     1      -2.656   6.267  -4.562  0.00  0.00    +0.150 A 
ATOM     10  C   UNL     1      -3.229   5.865  -5.730  0.00  0.00    +0.114 A 
ATOM     11  N   UNL     1      -3.186   4.507  -5.769  0.00  0.00    -0.218 NA
ATOM     12  C   UNL     1      -2.617   4.077  -4.683  0.00  0.00    +0.199 A 
ATOM     13  S   UNL     1      -2.075   2.670  -3.741  0.00  0.00    -0.013 S 
ATOM     14  N   UNL     1      -0.728   1.551   1.215  0.00  0.00    +0.382 N 
ATOM     15  H   UNL     1      -1.692   1.200   1.187  0.00  0.00    -0.082 HD
ENDROOT
BRANCH  10  16
ATOM     16  C   UNL     1      -3.799   6.750  -6.773  0.00  0.00    +0.004 A 
ATOM     17  C   UNL     1      -4.451   7.928  -6.411  0.00  0.00    +0.013 A 
ATOM     18  C   UNL     1      -4.975   8.751  -7.387  0.00  0.00    +0.039 A 
ATOM     19  C   UNL     1      -4.863   8.404  -8.723  0.00  0.00    +0.123 A 
ATOM     20  C   UNL     1      -4.220   7.232  -9.088  0.00  0.00    +0.039 A 
ATOM     21  C   UNL     1      -3.688   6.404  -8.120  0.00  0.00    +0.013 A 
ATOM     22  F   UNL     1      -5.383   9.210  -9.674  0.00  0.00    -0.205 F 
ENDBRANCH  10  16
BRANCH  14  24
ATOM     23  C   UNL     1      -0.640   1.734   3.658  0.00  0.00    -0.017 C 
ATOM     24  C   UNL     1      -0.062   1.031   2.429  0.00  0.00    -0.082 C 
ENDBRANCH  14  24
BRANCH   9  25
ATOM     25  N   UNL     1      -2.497   7.588  -4.131  0.00  0.00    -0.324 N 
ATOM     26  H   UNL     1      -3.384   8.069  -4.107  0.00  0.00    +0.148 HD
BRANCH  25  27
ATOM     27  C   UNL     1      -1.836   7.639  -2.821  0.00  0.00    +0.072 C 
ATOM     28  C   UNL     1      -2.889   7.398  -1.720  0.00  0.00    +0.022 C 
ATOM     29  C   UNL     1      -2.180   6.946  -0.471  0.00  0.00    +0.002 C 
ATOM     30  C   UNL     1      -1.867   8.114   0.484  0.00  0.00    +0.000 C 
ATOM     31  C   UNL     1      -1.362   9.370  -0.253  0.00  0.00    +0.000 C 
ATOM     32  C   UNL     1      -0.389   9.040  -1.353  0.00  0.00    +0.002 C 
ATOM     33  C   UNL     1      -1.169   8.925  -2.679  0.00  0.00    +0.022 C 
ENDBRANCH  25  27
ENDBRANCH   9  25
TORSDOF 4
