REMARK  Name = ZINC40325205
REMARK  15 active torsions:
REMARK  status: ('A' for Active; 'I' for Inactive)
REMARK    1  A    between atoms: C_1  and  C_2
REMARK    2  A    between atoms: C_2  and  S_3
REMARK    3  A    between atoms: S_3  and  C_6
REMARK    4  A    between atoms: C_9  and  C_12
REMARK    5  A    between atoms: C_14  and  C_17
REMARK    6  A    between atoms: N_19  and  C_20
REMARK    7  A    between atoms: C_20  and  C_21
REMARK    8  A    between atoms: C_21  and  C_23
REMARK    9  A    between atoms: C_21  and  N_33
REMARK   10  A    between atoms: C_26  and  O_31
REMARK   11  A    between atoms: C_27  and  O_29
REMARK   12  A    between atoms: O_29  and  C_30
REMARK   13  A    between atoms: O_31  and  C_32
REMARK   14  A    between atoms: N_33  and  C_34
REMARK   15  A    between atoms: N_33  and  C_35
REMARK                            x       y       z     vdW  Elec       q    Type
REMARK                         _______ _______ _______ _____ _____    ______ ____
ROOT
ATOM      1  C   UNL     1       1.052 -10.033   0.070  0.00  0.00    +0.266 C 
ATOM      2  O   UNL     1       2.151  -9.688  -0.317  0.00  0.00    -0.268 OA
ATOM      3  N   UNL     1       0.750 -11.344   0.158  0.00  0.00    -0.311 N 
ATOM      4  H   UNL     1      -0.127 -11.620   0.467  0.00  0.00    +0.149 HD
ENDROOT
BRANCH   1   7
ATOM      5  C   UNL     1      -0.931  -7.031   0.824  0.00  0.00    +0.168 A 
ATOM      6  C   UNL     1       0.223  -7.613   0.403  0.00  0.00    +0.086 A 
ATOM      7  C   UNL     1       0.043  -9.013   0.446  0.00  0.00    +0.168 A 
ATOM      8  N   UNL     1      -1.173  -9.253   0.876  0.00  0.00    -0.073 NA
ATOM      9  O   UNL     1      -1.804  -8.010   1.126  0.00  0.00    -0.354 OA
BRANCH   5  13
ATOM     10  C   UNL     1      -1.650  -2.857   1.148  0.00  0.00    +0.088 A 
ATOM     11  C   UNL     1      -2.644  -3.756   1.494  0.00  0.00    +0.027 A 
ATOM     12  C   UNL     1      -2.417  -5.113   1.391  0.00  0.00    +0.013 A 
ATOM     13  C   UNL     1      -1.182  -5.578   0.936  0.00  0.00    +0.020 A 
ATOM     14  C   UNL     1      -0.184  -4.666   0.589  0.00  0.00    +0.013 A 
ATOM     15  C   UNL     1      -0.426  -3.312   0.692  0.00  0.00    +0.027 A 
BRANCH  10  16
ATOM     16  S   UNL     1      -1.948  -1.126   1.282  0.00  0.00    -0.003 S 
ATOM     17  O   UNL     1      -0.662  -0.549   1.460  0.00  0.00    -0.169 OA
ATOM     18  O   UNL     1      -2.942  -1.006   2.291  0.00  0.00    -0.169 OA
BRANCH  16  20
ATOM     19  C   UNL     1      -2.932   0.856  -0.326  0.00  0.00    +0.028 C 
ATOM     20  C   UNL     1      -2.632  -0.644  -0.328  0.00  0.00    +0.168 C 
ENDBRANCH  16  20
ENDBRANCH  10  16
ENDBRANCH   5  13
ENDBRANCH   1   7
BRANCH   3  21
ATOM     21  C   UNL     1       1.747 -12.352  -0.213  0.00  0.00    +0.094 C 
BRANCH  21  22
ATOM     22  C   UNL     1       1.202 -13.747   0.098  0.00  0.00    -0.021 C 
BRANCH  22  23
ATOM     23  C   UNL     1       1.024 -13.896   1.587  0.00  0.00    -0.056 A 
ATOM     24  C   UNL     1       2.116 -14.175   2.387  0.00  0.00    +0.006 A 
ATOM     25  C   UNL     1       1.959 -14.313   3.754  0.00  0.00    +0.049 A 
ATOM     26  C   UNL     1       0.704 -14.171   4.324  0.00  0.00    +0.161 A 
ATOM     27  C   UNL     1      -0.395 -13.889   3.519  0.00  0.00    +0.162 A 
ATOM     28  C   UNL     1      -0.229 -13.748   2.151  0.00  0.00    +0.051 A 
BRANCH  27  29
ATOM     29  O   UNL     1      -1.629 -13.749   4.074  0.00  0.00    -0.491 OA
ATOM     30  C   UNL     1      -2.711 -13.460   3.187  0.00  0.00    +0.277 C 
ENDBRANCH  27  29
BRANCH  26  31
ATOM     31  O   UNL     1       0.547 -14.307   5.668  0.00  0.00    -0.491 OA
ATOM     32  C   UNL     1       1.720 -14.596   6.432  0.00  0.00    +0.277 C 
ENDBRANCH  26  31
ENDBRANCH  22  23
BRANCH  22  33
ATOM     33  N   UNL     1       2.147 -14.761  -0.387  0.00  0.00    +0.382 N 
ATOM     34  C   UNL     1       1.648 -16.100  -0.043  0.00  0.00    -0.096 C 
ATOM     35  C   UNL     1       2.282 -14.649  -1.845  0.00  0.00    -0.096 C 
ATOM     36  H   UNL     1       3.047 -14.617   0.046  0.00  0.00    -0.082 HD
ENDBRANCH  22  33
ENDBRANCH  21  22
ENDBRANCH   3  21
TORSDOF 10
