REMARK  Name = ZINC38884184
REMARK  8 active torsions:
REMARK  status: ('A' for Active; 'I' for Inactive)
REMARK    1  A    between atoms: C_1  and  C_2
REMARK    2  A    between atoms: C_6  and  C_8
REMARK    3  A    between atoms: C_8  and  C_10
REMARK    4  A    between atoms: C_8  and  N_16
REMARK    5  A    between atoms: C_17  and  C_19
REMARK    6  A    between atoms: N_22  and  C_25
REMARK    7  A    between atoms: C_25  and  C_26
REMARK    8  A    between atoms: C_28  and  C_31
REMARK                            x       y       z     vdW  Elec       q    Type
REMARK                         _______ _______ _______ _____ _____    ______ ____
ROOT
ATOM      1  N   UNL     1      -0.820  -4.016   2.381  0.00  0.00    -0.304 N 
ATOM      2  C   UNL     1      -1.367  -4.553   3.489  0.00  0.00    +0.217 C 
ATOM      3  O   UNL     1      -1.136  -4.067   4.576  0.00  0.00    -0.275 OA
ATOM      4  H   UNL     1      -1.004  -4.405   1.511  0.00  0.00    +0.150 HD
ENDROOT
BRANCH   2   5
ATOM      5  C   UNL     1      -2.265  -5.758   3.378  0.00  0.00    +0.072 C 
ATOM      6  C   UNL     1      -3.477  -5.415   2.507  0.00  0.00    -0.006 C 
ATOM      7  C   UNL     1      -4.423  -6.616   2.463  0.00  0.00    -0.077 C 
ATOM      8  N   UNL     1      -4.872  -6.939   3.823  0.00  0.00    +0.386 N 
ATOM      9  C   UNL     1      -3.724  -7.339   4.645  0.00  0.00    -0.077 C 
ATOM     10  C   UNL     1      -2.750  -6.165   4.772  0.00  0.00    -0.006 C 
ATOM     11  H   UNL     1      -5.312  -6.128   4.233  0.00  0.00    -0.081 HD
BRANCH   8  12
ATOM     12  C   UNL     1      -5.841  -8.042   3.768  0.00  0.00    +0.022 C 
BRANCH  12  13
ATOM     13  C   UNL     1      -6.394  -8.294   5.147  0.00  0.00    +0.211 A 
ATOM     14  N   UNL     1      -7.454  -7.733   5.655  0.00  0.00    -0.192 NA
ATOM     15  C   UNL     1      -7.661  -8.187   6.906  0.00  0.00    +0.209 A 
ATOM     16  N   UNL     1      -6.717  -9.051   7.199  0.00  0.00    -0.056 NA
ATOM     17  O   UNL     1      -5.882  -9.136   6.053  0.00  0.00    -0.340 OA
BRANCH  15  18
ATOM     18  C   UNL     1      -8.765  -7.780   7.799  0.00  0.00    +0.060 A 
ATOM     19  C   UNL     1      -9.037  -8.190   9.077  0.00  0.00    +0.019 A 
ATOM     20  C   UNL     1     -10.136  -7.667   9.721  0.00  0.00    +0.008 A 
ATOM     21  C   UNL     1     -10.915  -6.763   9.072  0.00  0.00    +0.046 A 
ATOM     22  S   UNL     1     -10.089  -6.620   7.495  0.00  0.00    -0.093 S 
ENDBRANCH  15  18
ENDBRANCH  12  13
ENDBRANCH   8  12
ENDBRANCH   2   5
BRANCH   1  23
ATOM     23  C   UNL     1       0.054  -2.845   2.489  0.00  0.00    +0.134 C 
BRANCH  23  29
ATOM     24  C   UNL     1      -0.018   1.503   0.010  0.00  0.00    +0.044 C 
ATOM     25  C   UNL     1       0.002  -0.004   0.002  0.00  0.00    -0.050 A 
ATOM     26  C   UNL     1       0.006  -0.689  -1.199  0.00  0.00    +0.003 A 
ATOM     27  C   UNL     1       0.025  -2.071  -1.207  0.00  0.00    +0.001 A 
ATOM     28  C   UNL     1       0.040  -2.768  -0.013  0.00  0.00    +0.006 A 
ATOM     29  C   UNL     1       0.037  -2.084   1.188  0.00  0.00    -0.023 A 
ATOM     30  C   UNL     1       0.023  -0.702   1.195  0.00  0.00    +0.009 A 
ENDBRANCH  23  29
BRANCH  23  31
ATOM     31  C   UNL     1       1.460  -3.293   2.790  0.00  0.00    -0.023 A 
ATOM     32  C   UNL     1       1.979  -4.411   2.164  0.00  0.00    +0.006 A 
ATOM     33  C   UNL     1       3.269  -4.822   2.441  0.00  0.00    +0.000 A 
ATOM     34  C   UNL     1       4.041  -4.115   3.344  0.00  0.00    +0.000 A 
ATOM     35  C   UNL     1       3.523  -2.997   3.970  0.00  0.00    +0.000 A 
ATOM     36  C   UNL     1       2.234  -2.583   3.689  0.00  0.00    +0.006 A 
ENDBRANCH  23  31
ENDBRANCH   1  23
TORSDOF 7
