REMARK  Name = ZINC13213821
REMARK  10 active torsions:
REMARK  status: ('A' for Active; 'I' for Inactive)
REMARK    1  A    between atoms: C_1  and  C_2
REMARK    2  A    between atoms: C_6  and  C_8
REMARK    3  A    between atoms: C_10  and  C_25
REMARK    4  A    between atoms: N_14  and  C_15
REMARK    5  A    between atoms: C_19  and  C_21
REMARK    6  A    between atoms: C_25  and  C_27
REMARK    7  A    between atoms: C_30  and  O_35
REMARK    8  A    between atoms: C_31  and  O_33
REMARK    9  A    between atoms: O_33  and  C_34
REMARK   10  A    between atoms: O_35  and  C_36
REMARK                            x       y       z     vdW  Elec       q    Type
REMARK                         _______ _______ _______ _____ _____    ______ ____
ROOT
ATOM      1  C   UNL     1       0.058  -2.822   2.452  0.00  0.00    +0.150 C 
ATOM      2  C   UNL     1       1.412  -3.442   2.709  0.00  0.00    +0.077 C 
ATOM      3  C   UNL     1       1.221  -4.780   2.787  0.00  0.00    +0.250 C 
ATOM      4  C   UNL     1      -0.213  -5.077   2.591  0.00  0.00    +0.292 C 
ATOM      5  O   UNL     1      -0.703  -6.189   2.606  0.00  0.00    -0.266 OA
ATOM      6  N   UNL     1      -0.898  -3.934   2.396  0.00  0.00    -0.253 N 
ATOM      7  O   UNL     1       2.189  -5.699   3.008  0.00  0.00    -0.282 OA
ENDROOT
BRANCH   1  13
ATOM      8  C   UNL     1       0.064   1.490  -0.088  0.00  0.00    +0.044 C 
ATOM      9  C   UNL     1       0.070  -0.017  -0.074  0.00  0.00    -0.050 A 
ATOM     10  C   UNL     1       0.085  -0.719  -1.266  0.00  0.00    +0.003 A 
ATOM     11  C   UNL     1       0.091  -2.101  -1.253  0.00  0.00    +0.001 A 
ATOM     12  C   UNL     1       0.082  -2.782  -0.050  0.00  0.00    +0.006 A 
ATOM     13  C   UNL     1       0.068  -2.080   1.141  0.00  0.00    -0.022 A 
ATOM     14  C   UNL     1       0.067  -0.698   1.129  0.00  0.00    +0.009 A 
ENDBRANCH   1  13
BRANCH   6  15
ATOM     15  C   UNL     1      -2.274  -3.826   2.178  0.00  0.00    +0.038 A 
ATOM     16  C   UNL     1      -2.851  -2.575   1.984  0.00  0.00    +0.023 A 
ATOM     17  C   UNL     1      -4.212  -2.462   1.768  0.00  0.00    +0.003 A 
ATOM     18  C   UNL     1      -5.008  -3.589   1.742  0.00  0.00    +0.015 A 
ATOM     19  C   UNL     1      -4.439  -4.850   1.935  0.00  0.00    +0.065 A 
ATOM     20  C   UNL     1      -3.063  -4.965   2.149  0.00  0.00    +0.038 A 
BRANCH  19  21
ATOM     21  C   UNL     1      -5.287  -6.057   1.909  0.00  0.00    +0.387 C 
ATOM     22  O   UNL     1      -6.491  -5.954   1.718  0.00  0.00    -0.241 OA
ATOM     23  O   UNL     1      -4.787  -7.160   2.078  0.00  0.00    -0.241 OA
ENDBRANCH  19  21
ENDBRANCH   6  15
BRANCH   2  24
ATOM     24  C   UNL     1       2.687  -2.731   2.847  0.00  0.00    +0.195 C 
ATOM     25  O   UNL     1       3.564  -2.888   2.018  0.00  0.00    -0.287 OA
BRANCH  24  26
ATOM     26  C   UNL     1       2.907  -1.826   3.992  0.00  0.00    +0.026 A 
ATOM     27  C   UNL     1       1.953  -1.739   5.010  0.00  0.00    +0.015 A 
ATOM     28  C   UNL     1       2.160  -0.893   6.077  0.00  0.00    +0.050 A 
ATOM     29  C   UNL     1       3.315  -0.125   6.145  0.00  0.00    +0.162 A 
ATOM     30  C   UNL     1       4.271  -0.206   5.133  0.00  0.00    +0.162 A 
ATOM     31  C   UNL     1       4.073  -1.057   4.063  0.00  0.00    +0.061 A 
BRANCH  30  32
ATOM     32  O   UNL     1       5.400   0.548   5.202  0.00  0.00    -0.491 OA
ATOM     33  C   UNL     1       6.336   0.414   4.130  0.00  0.00    +0.277 C 
ENDBRANCH  30  32
BRANCH  29  34
ATOM     34  O   UNL     1       3.514   0.708   7.199  0.00  0.00    -0.491 OA
ATOM     35  C   UNL     1       2.495   0.742   8.200  0.00  0.00    +0.277 C 
ENDBRANCH  29  34
ENDBRANCH  24  26
ENDBRANCH   2  24
TORSDOF 7
