REMARK  Name = ZINC63825369
REMARK  4 active torsions:
REMARK  status: ('A' for Active; 'I' for Inactive)
REMARK    1  A    between atoms: C_1  and  C_2
REMARK    2  A    between atoms: C_4  and  C_21
REMARK    3  A    between atoms: N_12  and  C_14
REMARK    4  A    between atoms: C_24  and  C_26
REMARK                            x       y       z     vdW  Elec       q    Type
REMARK                         _______ _______ _______ _____ _____    ______ ____
ROOT
ATOM      1  C   UNL     1      -0.018   1.503   0.010  0.00  0.00    +0.062 C 
ATOM      2  C   UNL     1       0.002  -0.004   0.002  0.00  0.00    +0.022 C 
ATOM      3  C   UNL     1      -1.064  -0.752   0.003  0.00  0.00    -0.001 C 
ATOM      4  C   UNL     1      -2.521  -0.388   0.166  0.00  0.00    +0.095 C 
ATOM      5  C   UNL     1      -3.003  -1.102   1.437  0.00  0.00    +0.111 C 
ATOM      6  C   UNL     1      -2.404  -2.464   1.570  0.00  0.00    +0.216 C 
ATOM      7  O   UNL     1      -2.986  -3.238   2.301  0.00  0.00    -0.276 OA
ATOM      8  N   UNL     1      -1.302  -2.927   0.979  0.00  0.00    -0.292 N 
ATOM      9  C   UNL     1      -0.616  -2.202  -0.084  0.00  0.00    +0.210 C 
ATOM     10  N   UNL     1       0.834  -2.134   0.106  0.00  0.00    -0.210 N 
ATOM     11  N   UNL     1       1.158  -0.770  -0.014  0.00  0.00    -0.265 N 
ATOM     12  H   UNL     1      -0.943  -3.780   1.267  0.00  0.00    +0.151 HD
ATOM     13  H   UNL     1       2.058  -0.416  -0.093  0.00  0.00    +0.170 HD
ENDROOT
BRANCH  10  14
ATOM     14  C   UNL     1       1.706  -3.193   0.347  0.00  0.00    +0.162 A 
ATOM     15  C   UNL     1       3.071  -2.953   0.504  0.00  0.00    +0.052 A 
ATOM     16  C   UNL     1       3.898  -4.039   0.742  0.00  0.00    +0.077 A 
ATOM     17  C   UNL     1       3.314  -5.302   0.809  0.00  0.00    +0.289 A 
ATOM     18  O   UNL     1       4.085  -6.396   1.041  0.00  0.00    -0.264 OA
ATOM     19  N   UNL     1       2.010  -5.435   0.647  0.00  0.00    -0.105 NA
ATOM     20  N   UNL     1       1.241  -4.429   0.432  0.00  0.00    -0.129 NA
ENDBRANCH  10  14
BRANCH   4  21
ATOM     21  C   UNL     1      -3.309  -0.861  -1.028  0.00  0.00    +0.113 A 
ATOM     22  C   UNL     1      -4.014  -0.076  -1.865  0.00  0.00    +0.046 A 
ATOM     23  C   UNL     1      -4.592  -0.920  -2.834  0.00  0.00    +0.050 A 
ATOM     24  C   UNL     1      -4.204  -2.187  -2.532  0.00  0.00    +0.138 A 
ATOM     25  O   UNL     1      -3.421  -2.136  -1.437  0.00  0.00    -0.459 OA
BRANCH  24  26
ATOM     26  C   UNL     1      -4.571  -3.408  -3.279  0.00  0.00    +0.052 A 
ATOM     27  C   UNL     1      -5.906  -3.658  -3.601  0.00  0.00    +0.014 A 
ATOM     28  C   UNL     1      -6.242  -4.800  -4.298  0.00  0.00    +0.001 A 
ATOM     29  C   UNL     1      -5.261  -5.698  -4.679  0.00  0.00    +0.003 A 
ATOM     30  C   UNL     1      -3.936  -5.459  -4.363  0.00  0.00    +0.039 A 
ATOM     31  C   UNL     1      -3.583  -4.316  -3.671  0.00  0.00    +0.134 A 
ATOM     32  F   UNL     1      -2.288  -4.079  -3.368  0.00  0.00    -0.205 F 
ENDBRANCH  24  26
ENDBRANCH   4  21
TORSDOF 3
