REMARK  Name = ZINC36643366
REMARK  10 active torsions:
REMARK  status: ('A' for Active; 'I' for Inactive)
REMARK    1  A    between atoms: C_1  and  C_2
REMARK    2  A    between atoms: C_2  and  C_3
REMARK    3  A    between atoms: N_12  and  C_13
REMARK    4  A    between atoms: C_13  and  C_14
REMARK    5  A    between atoms: C_14  and  C_15
REMARK    6  A    between atoms: C_15  and  N_16
REMARK    7  A    between atoms: N_16  and  C_17
REMARK    8  A    between atoms: N_16  and  C_18
REMARK    9  A    between atoms: C_19  and  C_21
REMARK   10  A    between atoms: C_23  and  C_31
REMARK                            x       y       z     vdW  Elec       q    Type
REMARK                         _______ _______ _______ _____ _____    ______ ____
ROOT
ATOM      1  C   UNL     1       0.901  -0.425  -0.980  0.00  0.00    -0.046 A 
ATOM      2  C   UNL     1       0.137  -0.559  -2.131  0.00  0.00    +0.006 A 
ATOM      3  C   UNL     1       0.690  -0.974  -3.314  0.00  0.00    +0.029 A 
ATOM      4  C   UNL     1       2.069  -1.279  -3.399  0.00  0.00    +0.080 A 
ATOM      5  C   UNL     1       2.816  -1.131  -2.208  0.00  0.00    +0.041 A 
ATOM      6  C   UNL     1       2.253  -0.710  -1.028  0.00  0.00    +0.021 A 
ATOM      7  S   UNL     1       4.450  -1.598  -2.725  0.00  0.00    -0.052 S 
ATOM      8  C   UNL     1       4.053  -1.949  -4.432  0.00  0.00    +0.168 A 
ATOM      9  N   UNL     1       2.765  -1.696  -4.478  0.00  0.00    -0.224 NA
ATOM     10  N   UNL     1       4.890  -2.378  -5.448  0.00  0.00    -0.246 N 
ATOM     11  C   UNL     1       6.198  -2.584  -5.200  0.00  0.00    +0.253 C 
ATOM     12  O   UNL     1       6.628  -2.475  -4.069  0.00  0.00    -0.270 OA
ENDROOT
BRANCH  11  13
ATOM     13  C   UNL     1       7.112  -2.943  -6.306  0.00  0.00    +0.048 A 
ATOM     14  C   UNL     1       6.900  -4.076  -7.077  0.00  0.00    +0.042 A 
ATOM     15  C   UNL     1       7.795  -4.379  -8.118  0.00  0.00    +0.079 A 
ATOM     16  N   UNL     1       8.838  -3.620  -8.393  0.00  0.00    -0.246 NA
ATOM     17  C   UNL     1       9.115  -2.513  -7.701  0.00  0.00    +0.072 A 
ATOM     18  C   UNL     1       8.273  -2.114  -6.634  0.00  0.00    +0.013 A 
ATOM     19  C   UNL     1       8.564  -0.949  -5.915  0.00  0.00    +0.011 A 
ATOM     20  C   UNL     1       9.656  -0.205  -6.253  0.00  0.00    +0.001 A 
ATOM     21  C   UNL     1      10.485  -0.589  -7.305  0.00  0.00    +0.002 A 
ATOM     22  C   UNL     1      10.236  -1.722  -8.017  0.00  0.00    +0.028 A 
BRANCH  15  23
ATOM     23  C   UNL     1       7.559  -5.587  -8.931  0.00  0.00    +0.038 A 
ATOM     24  C   UNL     1       8.340  -6.130  -9.919  0.00  0.00    +0.017 A 
ATOM     25  C   UNL     1       7.911  -7.277 -10.547  0.00  0.00    +0.008 A 
ATOM     26  C   UNL     1       6.730  -7.835 -10.170  0.00  0.00    +0.046 A 
ATOM     27  S   UNL     1       6.186  -6.728  -8.880  0.00  0.00    -0.095 S 
ENDBRANCH  15  23
ENDBRANCH  11  13
BRANCH   1  29
ATOM     28  C   UNL     1       0.326   1.558   0.392  0.00  0.00    +0.009 C 
ATOM     29  C   UNL     1       0.265   0.032   0.307  0.00  0.00    +0.032 C 
ENDBRANCH   1  29
BRANCH  10  30
ATOM     30  C   UNL     1       4.353  -2.609  -6.791  0.00  0.00    +0.114 C 
BRANCH  30  31
ATOM     31  C   UNL     1       4.355  -1.294  -7.574  0.00  0.00    +0.001 C 
BRANCH  31  32
ATOM     32  C   UNL     1       3.682  -1.507  -8.931  0.00  0.00    -0.078 C 
BRANCH  32  33
ATOM     33  N   UNL     1       3.569  -0.220  -9.629  0.00  0.00    +0.376 N 
ATOM     34  C   UNL     1       4.912   0.290  -9.937  0.00  0.00    -0.097 C 
ATOM     35  C   UNL     1       2.817  -0.404 -10.877  0.00  0.00    -0.097 C 
ATOM     36  H   UNL     1       3.085   0.441  -9.040  0.00  0.00    -0.083 HD
ENDBRANCH  32  33
ENDBRANCH  31  32
ENDBRANCH  30  31
ENDBRANCH  10  30
TORSDOF 7
