REMARK  Name = ZINC33330735
REMARK  7 active torsions:
REMARK  status: ('A' for Active; 'I' for Inactive)
REMARK    1  A    between atoms: C_1  and  C_2
REMARK    2  A    between atoms: C_2  and  C_4
REMARK    3  A    between atoms: C_2  and  N_10
REMARK    4  A    between atoms: C_11  and  C_13
REMARK    5  A    between atoms: C_18  and  N_19
REMARK    6  A    between atoms: N_19  and  S_20
REMARK    7  A    between atoms: S_20  and  C_23
REMARK                            x       y       z     vdW  Elec       q    Type
REMARK                         _______ _______ _______ _____ _____    ______ ____
ROOT
ATOM      1  C   UNL     1      -2.452   3.601  -1.987  0.00  0.00    +0.061 A 
ATOM      2  C   UNL     1      -2.740   4.955  -2.179  0.00  0.00    +0.015 A 
ATOM      3  C   UNL     1      -1.786   5.908  -1.898  0.00  0.00    +0.001 A 
ATOM      4  C   UNL     1      -0.539   5.531  -1.425  0.00  0.00    +0.002 A 
ATOM      5  C   UNL     1      -0.240   4.199  -1.225  0.00  0.00    +0.027 A 
ATOM      6  C   UNL     1      -1.188   3.223  -1.508  0.00  0.00    +0.086 A 
ENDROOT
BRANCH   1   8
ATOM      7  N   UNL     1      -4.681   2.943  -2.746  0.00  0.00    -0.305 N 
ATOM      8  C   UNL     1      -3.468   2.576  -2.286  0.00  0.00    +0.246 C 
ATOM      9  O   UNL     1      -3.212   1.399  -2.119  0.00  0.00    -0.270 OA
ATOM     10  H   UNL     1      -4.912   4.008  -2.898  0.00  0.00    +0.150 HD
BRANCH   7  12
ATOM     11  C   UNL     1      -6.447   1.567  -1.762  0.00  0.00    +0.033 C 
ATOM     12  C   UNL     1      -5.691   1.925  -3.043  0.00  0.00    +0.100 C 
BRANCH  12  13
ATOM     13  C   UNL     1      -6.659   2.461  -4.066  0.00  0.00    -0.027 A 
ATOM     14  C   UNL     1      -7.090   3.772  -3.989  0.00  0.00    +0.005 A 
ATOM     15  C   UNL     1      -7.975   4.266  -4.929  0.00  0.00    +0.000 A 
ATOM     16  C   UNL     1      -8.437   3.445  -5.941  0.00  0.00    +0.000 A 
ATOM     17  C   UNL     1      -8.010   2.132  -6.015  0.00  0.00    +0.000 A 
ATOM     18  C   UNL     1      -7.122   1.640  -5.077  0.00  0.00    +0.005 A 
ENDBRANCH  12  13
ENDBRANCH   7  12
ENDBRANCH   1   8
BRANCH   6  19
ATOM     19  N   UNL     1      -0.887   1.882  -1.313  0.00  0.00    -0.097 NA
BRANCH  19  20
ATOM     20  S   UNL     1       0.071   1.424  -0.042  0.00  0.00    +0.098 S 
ATOM     21  O   UNL     1       0.079   0.003  -0.030  0.00  0.00    -0.148 OA
ATOM     22  O   UNL     1       1.262   2.192  -0.134  0.00  0.00    -0.148 OA
BRANCH  20  23
ATOM     23  C   UNL     1      -0.744   1.935   1.435  0.00  0.00    +0.190 A 
ATOM     24  C   UNL     1      -0.298   3.017   2.134  0.00  0.00    +0.121 A 
ATOM     25  N   UNL     1      -0.919   3.391   3.252  0.00  0.00    -0.312 N 
ATOM     26  C   UNL     1      -1.965   2.736   3.707  0.00  0.00    +0.327 A 
ATOM     27  N   UNL     1      -2.454   1.650   3.054  0.00  0.00    -0.273 N 
ATOM     28  H   UNL     1      -3.327   1.114   3.455  0.00  0.00    +0.173 HD
ATOM     29  C   UNL     1      -1.866   1.232   1.913  0.00  0.00    +0.281 A 
ATOM     30  O   UNL     1      -2.296   0.263   1.311  0.00  0.00    -0.266 OA
ATOM     31  O   UNL     1      -2.562   3.150   4.843  0.00  0.00    -0.247 OA
ATOM     32  H   UNL     1      -0.540   4.268   3.797  0.00  0.00    +0.170 HD
ENDBRANCH  20  23
ENDBRANCH  19  20
ENDBRANCH   6  19
TORSDOF 6
