REMARK  Name = ZINC63731508
REMARK  8 active torsions:
REMARK  status: ('A' for Active; 'I' for Inactive)
REMARK    1  A    between atoms: C_1  and  O_2
REMARK    2  A    between atoms: O_2  and  C_3
REMARK    3  A    between atoms: C_8  and  S_13
REMARK    4  A    between atoms: S_13  and  C_14
REMARK    5  A    between atoms: C_14  and  C_15
REMARK    6  A    between atoms: N_17  and  C_18
REMARK    7  A    between atoms: C_18  and  C_19
REMARK    8  A    between atoms: C_18  and  C_25
REMARK                            x       y       z     vdW  Elec       q    Type
REMARK                         _______ _______ _______ _____ _____    ______ ____
ROOT
ATOM      1  C   UNL     1       6.043  -4.387   1.894  0.00  0.00    +0.224 C 
ATOM      2  O   UNL     1       6.414  -5.389   2.468  0.00  0.00    -0.275 OA
ATOM      3  N   UNL     1       6.840  -3.800   0.980  0.00  0.00    -0.304 N 
ATOM      4  H   UNL     1       6.543  -2.998   0.521  0.00  0.00    +0.150 HD
ENDROOT
BRANCH   1   5
ATOM      5  C   UNL     1       4.691  -3.798   2.205  0.00  0.00    +0.168 C 
BRANCH   5   6
ATOM      6  S   UNL     1       3.867  -4.808   3.467  0.00  0.00    -0.106 S 
BRANCH   6  12
ATOM      7  C   UNL     1       0.625  -0.617   1.039  0.00  0.00    +0.122 A 
ATOM      8  C   UNL     1       1.223   0.198   2.088  0.00  0.00    +0.048 A 
ATOM      9  C   UNL     1       1.855  -0.351   3.143  0.00  0.00    +0.031 A 
ATOM     10  C   UNL     1       1.952  -1.814   3.255  0.00  0.00    +0.061 A 
ATOM     11  N   UNL     1       2.495  -2.589   4.149  0.00  0.00    -0.355 N 
ATOM     12  C   UNL     1       2.276  -3.976   3.724  0.00  0.00    +0.236 C 
ATOM     13  N   UNL     1       1.531  -3.910   2.460  0.00  0.00    -0.355 N 
ATOM     14  C   UNL     1       1.341  -2.648   2.185  0.00  0.00    +0.064 A 
ATOM     15  C   UNL     1       0.668  -1.971   1.074  0.00  0.00    +0.073 A 
ATOM     16  H   UNL     1       2.961  -2.302   4.950  0.00  0.00    +0.162 HD
ATOM     17  H   UNL     1       1.234  -4.664   1.928  0.00  0.00    +0.162 HD
BRANCH   7  19
ATOM     18  C   UNL     1      -0.017   1.425   0.010  0.00  0.00    +0.277 C 
ATOM     19  O   UNL     1       0.002  -0.004   0.002  0.00  0.00    -0.495 OA
ENDBRANCH   7  19
ENDBRANCH   6  12
ENDBRANCH   5   6
ENDBRANCH   1   5
BRANCH   3  20
ATOM     20  C   UNL     1       8.154  -4.372   0.678  0.00  0.00    +0.134 C 
BRANCH  20  21
ATOM     21  C   UNL     1       8.004  -5.455  -0.360  0.00  0.00    -0.023 A 
ATOM     22  C   UNL     1       7.134  -5.281  -1.419  0.00  0.00    +0.006 A 
ATOM     23  C   UNL     1       6.996  -6.275  -2.371  0.00  0.00    +0.000 A 
ATOM     24  C   UNL     1       7.730  -7.441  -2.263  0.00  0.00    +0.000 A 
ATOM     25  C   UNL     1       8.601  -7.614  -1.204  0.00  0.00    +0.000 A 
ATOM     26  C   UNL     1       8.742  -6.620  -0.255  0.00  0.00    +0.006 A 
ENDBRANCH  20  21
BRANCH  20  27
ATOM     27  C   UNL     1       9.063  -3.292   0.149  0.00  0.00    -0.023 A 
ATOM     28  C   UNL     1       8.569  -2.337  -0.719  0.00  0.00    +0.006 A 
ATOM     29  C   UNL     1       9.403  -1.347  -1.204  0.00  0.00    +0.000 A 
ATOM     30  C   UNL     1      10.730  -1.311  -0.820  0.00  0.00    +0.000 A 
ATOM     31  C   UNL     1      11.224  -2.266   0.049  0.00  0.00    +0.000 A 
ATOM     32  C   UNL     1      10.389  -3.254   0.537  0.00  0.00    +0.006 A 
ENDBRANCH  20  27
ENDBRANCH   3  20
TORSDOF 7
