REMARK  Name = ZINC63684298
REMARK  4 active torsions:
REMARK  status: ('A' for Active; 'I' for Inactive)
REMARK    1  A    between atoms: C_4  and  C_7
REMARK    2  A    between atoms: C_7  and  C_8
REMARK    3  A    between atoms: C_8  and  N_9
REMARK    4  A    between atoms: C_12  and  C_18
REMARK                            x       y       z     vdW  Elec       q    Type
REMARK                         _______ _______ _______ _____ _____    ______ ____
ROOT
ATOM      1  N   UNL     1       5.458  -1.679   1.513  0.00  0.00    -0.288 N 
ATOM      2  C   UNL     1       5.471  -3.027   1.503  0.00  0.00    +0.260 A 
ATOM      3  O   UNL     1       4.431  -3.651   1.622  0.00  0.00    -0.267 OA
ATOM      4  C   UNL     1       6.692  -3.708   1.353  0.00  0.00    +0.070 A 
ATOM      5  C   UNL     1       7.841  -2.986   1.221  0.00  0.00    +0.257 A 
ATOM      6  N   UNL     1       7.783  -1.616   1.237  0.00  0.00    -0.302 N 
ATOM      7  C   UNL     1       6.603  -0.985   1.375  0.00  0.00    +0.163 A 
ATOM      8  S   UNL     1       6.557   0.726   1.385  0.00  0.00    -0.013 S 
ATOM      9  O   UNL     1       9.027  -3.615   1.077  0.00  0.00    -0.267 OA
ATOM     10  H   UNL     1       8.598  -1.098   1.144  0.00  0.00    +0.171 HD
ENDROOT
BRANCH   4  11
ATOM     11  C   UNL     1       6.731  -5.214   1.340  0.00  0.00    -0.003 C 
ATOM     12  C   UNL     1       7.698  -5.715   2.414  0.00  0.00    +0.097 C 
ATOM     13  C   UNL     1       9.085  -5.245   1.989  0.00  0.00    -0.041 C 
ATOM     14  C   UNL     1       9.590  -4.585   3.022  0.00  0.00    -0.001 A 
ATOM     15  C   UNL     1      10.912  -3.979   3.249  0.00  0.00    +0.010 A 
ATOM     16  C   UNL     1      11.088  -3.354   4.443  0.00  0.00    +0.001 A 
ATOM     17  C   UNL     1      10.093  -3.271   5.422  0.00  0.00    +0.002 A 
ATOM     18  C   UNL     1       8.852  -3.804   5.301  0.00  0.00    +0.026 A 
ATOM     19  C   UNL     1       8.548  -4.492   4.090  0.00  0.00    +0.043 A 
ATOM     20  N   UNL     1       7.447  -5.119   3.725  0.00  0.00    -0.379 N 
ATOM     21  C   UNL     1       9.599  -5.473   0.589  0.00  0.00    +0.014 C 
ATOM     22  C   UNL     1       8.465  -5.043  -0.359  0.00  0.00    -0.077 C 
ATOM     23  N   UNL     1       7.207  -5.686   0.030  0.00  0.00    +0.386 N 
ATOM     24  H   UNL     1       7.348  -6.684   0.072  0.00  0.00    -0.085 HD
ATOM     25  H   UNL     1       6.617  -5.174   4.224  0.00  0.00    +0.160 HD
ATOM     26  H   UNL     1       6.505  -5.484  -0.666  0.00  0.00    -0.085 HD
ENDBRANCH   4  11
BRANCH   1  27
ATOM     27  C   UNL     1       4.189  -0.965   1.668  0.00  0.00    +0.132 C 
BRANCH  27  28
ATOM     28  C   UNL     1       3.573  -0.714   0.290  0.00  0.00    +0.057 C 
BRANCH  28  32
ATOM     29  C   UNL     1      -0.130   1.369   0.741  0.00  0.00    +0.000 A 
ATOM     30  C   UNL     1       1.049   2.077   0.601  0.00  0.00    +0.000 A 
ATOM     31  C   UNL     1       2.248   1.403   0.455  0.00  0.00    +0.004 A 
ATOM     32  C   UNL     1       2.267   0.021   0.450  0.00  0.00    -0.046 A 
ATOM     33  C   UNL     1       1.088  -0.687   0.591  0.00  0.00    +0.004 A 
ATOM     34  C   UNL     1      -0.110  -0.013   0.735  0.00  0.00    +0.000 A 
ENDBRANCH  28  32
ENDBRANCH  27  28
ENDBRANCH   1  27
TORSDOF 4
