REMARK  Name = ZINC13461759
REMARK  10 active torsions:
REMARK  status: ('A' for Active; 'I' for Inactive)
REMARK    1  A    between atoms: C_3  and  N_31
REMARK    2  A    between atoms: C_6  and  C_7
REMARK    3  A    between atoms: C_7  and  C_9
REMARK    4  A    between atoms: C_7  and  O_30
REMARK    5  A    between atoms: C_9  and  C_11
REMARK    6  A    between atoms: C_9  and  N_13
REMARK    7  A    between atoms: C_11  and  O_12
REMARK    8  A    between atoms: N_13  and  C_14
REMARK    9  A    between atoms: N_17  and  C_22
REMARK   10  A    between atoms: C_25  and  C_28
REMARK                            x       y       z     vdW  Elec       q    Type
REMARK                         _______ _______ _______ _____ _____    ______ ____
ROOT
ATOM      1  N   UNK A   1      -2.334   3.997   0.189  0.00  0.00    -0.334 N 
ATOM      2  H   UNK A   1      -3.130   3.454   0.080  0.00  0.00    +0.147 HD
ENDROOT
BRANCH   1   3
ATOM      3  C   UNK A   0      -1.085   3.399   0.203  0.00  0.00    +0.071 A 
ATOM      4  C   UNK A   0       0.078   4.183   0.361  0.00  0.00    +0.158 A 
ATOM      5  N   UNK A   0       1.255   3.622   0.375  0.00  0.00    -0.170 NA
ATOM      6  N   UNK A   0       1.396   2.237   0.234  0.00  0.00    -0.195 N 
ATOM      7  C   UNK A   0       0.312   1.451   0.082  0.00  0.00    +0.292 A 
ATOM      8  O   UNK A   0       0.443   0.242  -0.040  0.00  0.00    -0.264 OA
ATOM      9  C   UNK A   0      -0.965   2.028   0.059  0.00  0.00    +0.129 A 
ATOM     10 CL   UNK A   0      -2.376   1.037  -0.143  0.00  0.00    -0.076 Cl
BRANCH   6  11
ATOM     11  C   UNK A   0       2.669   1.666   0.253  0.00  0.00    +0.069 A 
ATOM     12  C   UNK A   0       2.924   0.566   1.065  0.00  0.00    +0.029 A 
ATOM     13  C   UNK A   0       4.178  -0.004   1.082  0.00  0.00    +0.017 A 
ATOM     14  C   UNK A   0       5.197   0.531   0.290  0.00  0.00    +0.063 A 
ATOM     15  C   UNK A   0       4.939   1.640  -0.521  0.00  0.00    +0.017 A 
ATOM     16  C   UNK A   0       3.682   2.201  -0.537  0.00  0.00    +0.029 A 
BRANCH  14  17
ATOM     17  C   UNK A   0       6.543  -0.072   0.310  0.00  0.00    +0.387 C 
ATOM     18  O   UNK A   0       7.429   0.394  -0.379  0.00  0.00    -0.241 OA
ATOM     19  O   UNK A   0       6.791  -1.141   1.092  0.00  0.00    -0.241 OA
ENDBRANCH  14  17
ENDBRANCH   6  11
ENDBRANCH   1   3
BRANCH   1  20
ATOM     20  C   UNK A   1      -2.453   5.449   0.338  0.00  0.00    +0.129 C 
BRANCH  20  21
ATOM     21  C   UNK A   1      -3.756   5.923  -0.308  0.00  0.00    +0.167 C 
BRANCH  21  27
ATOM     22  C   UNK A   1      -3.060   6.368  -2.671  0.00  0.00    +0.008 A 
ATOM     23  C   UNK A   1      -3.048   6.043  -4.014  0.00  0.00    +0.033 A 
ATOM     24  C   UNK A   1      -3.732   4.929  -4.462  0.00  0.00    +0.126 A 
ATOM     25  C   UNK A   1      -4.424   4.136  -3.566  0.00  0.00    +0.033 A 
ATOM     26  C   UNK A   1      -4.432   4.458  -2.221  0.00  0.00    +0.008 A 
ATOM     27  C   UNK A   1      -3.748   5.572  -1.774  0.00  0.00    -0.017 A 
BRANCH  24  28
ATOM     28  N   UNK A   1      -3.725   4.585  -5.902  0.00  0.00    +0.056 N 
ATOM     29  O   UNK A   1      -4.328   3.603  -6.296  0.00  0.00    -0.126 OA
ATOM     30  O   UNK A   1      -3.115   5.283  -6.692  0.00  0.00    -0.126 OA
ENDBRANCH  24  28
ENDBRANCH  21  27
BRANCH  21  31
ATOM     31  O   UNK A   1      -3.874   7.340  -0.158  0.00  0.00    -0.385 OA
ATOM     32  H   UNK A   1      -3.108   7.834  -0.480  0.00  0.00    +0.210 HD
ENDBRANCH  21  31
ENDBRANCH  20  21
BRANCH  20  33
ATOM     33  C   UNK A   1      -2.459   5.811   1.824  0.00  0.00    +0.180 C 
BRANCH  33  34
ATOM     34  O   UNK A   1      -3.634   5.278   2.439  0.00  0.00    -0.393 OA
ATOM     35  H   UNK A   1      -3.704   5.469   3.384  0.00  0.00    +0.209 HD
ENDBRANCH  33  34
ENDBRANCH  20  33
ENDBRANCH   1  20
TORSDOF 10
