REMARK  Name = ZINC38615821
REMARK  8 active torsions:
REMARK  status: ('A' for Active; 'I' for Inactive)
REMARK    1  A    between atoms: C_1  and  C_2
REMARK    2  A    between atoms: C_6  and  C_34
REMARK    3  A    between atoms: C_7  and  C_11
REMARK    4  A    between atoms: N_13  and  C_14
REMARK    5  A    between atoms: C_22  and  C_23
REMARK    6  A    between atoms: C_23  and  C_25
REMARK    7  A    between atoms: C_28  and  O_32
REMARK    8  A    between atoms: O_32  and  C_33
REMARK                            x       y       z     vdW  Elec       q    Type
REMARK                         _______ _______ _______ _____ _____    ______ ____
ROOT
ATOM      1  C   UNL     1       0.184  -6.610   4.520  0.00  0.00    +0.091 A 
ATOM      2  C   UNL     1      -0.122  -6.792   5.944  0.00  0.00    +0.042 A 
ATOM      3  C   UNL     1      -0.584  -5.944   6.952  0.00  0.00    +0.013 A 
ATOM      4  C   UNL     1      -0.772  -6.432   8.215  0.00  0.00    +0.001 A 
ATOM      5  C   UNL     1      -0.506  -7.764   8.500  0.00  0.00    +0.004 A 
ATOM      6  C   UNL     1      -0.049  -8.616   7.518  0.00  0.00    +0.047 A 
ATOM      7  C   UNL     1       0.149  -8.142   6.226  0.00  0.00    +0.138 A 
ATOM      8  O   UNL     1       0.578  -8.728   5.090  0.00  0.00    -0.450 OA
ATOM      9  C   UNL     1       0.602  -7.846   4.066  0.00  0.00    +0.197 A 
ENDROOT
BRANCH   1  12
ATOM     10  C   UNL     1       0.335  -4.252   4.359  0.00  0.00    +0.284 C 
ATOM     11  O   UNL     1       0.577  -4.193   5.550  0.00  0.00    -0.266 OA
ATOM     12  N   UNL     1       0.071  -5.441   3.782  0.00  0.00    -0.275 N 
ATOM     13  H   UNL     1      -0.197  -5.479   2.851  0.00  0.00    +0.155 HD
BRANCH  10  20
ATOM     14  C   UNL     1      -0.068   0.858  -0.991  0.00  0.00    +0.044 C 
ATOM     15  C   UNL     1       0.121   0.237   0.369  0.00  0.00    -0.047 A 
ATOM     16  C   UNL     1       0.436   1.044   1.454  0.00  0.00    +0.004 A 
ATOM     17  C   UNL     1       0.610   0.499   2.695  0.00  0.00    +0.012 A 
ATOM     18  C   UNL     1       0.470  -0.879   2.871  0.00  0.00    +0.024 A 
ATOM     19  C   UNL     1       0.582  -1.776   4.021  0.00  0.00    +0.008 A 
ATOM     20  C   UNL     1       0.331  -3.026   3.549  0.00  0.00    +0.194 A 
ATOM     21  O   UNL     1       0.078  -2.970   2.225  0.00  0.00    -0.450 OA
ATOM     22  C   UNL     1       0.151  -1.702   1.775  0.00  0.00    +0.136 A 
ATOM     23  C   UNL     1      -0.027  -1.124   0.523  0.00  0.00    +0.050 A 
ATOM     24  C   UNL     1       0.909  -1.393   5.441  0.00  0.00    +0.048 C 
ENDBRANCH  10  20
ENDBRANCH   1  12
BRANCH   9  25
ATOM     25  C   UNL     1       0.996  -8.141   2.738  0.00  0.00    +0.230 C 
ATOM     26  O   UNL     1       1.078  -7.248   1.914  0.00  0.00    -0.283 OA
BRANCH  25  27
ATOM     27  C   UNL     1       1.307  -9.533   2.352  0.00  0.00    +0.027 A 
ATOM     28  C   UNL     1       1.334 -10.539   3.322  0.00  0.00    +0.015 A 
ATOM     29  C   UNL     1       1.624 -11.835   2.958  0.00  0.00    +0.047 A 
ATOM     30  C   UNL     1       1.890 -12.144   1.629  0.00  0.00    +0.134 A 
ATOM     31  C   UNL     1       1.864 -11.146   0.662  0.00  0.00    +0.060 A 
ATOM     32  C   UNL     1       1.569  -9.848   1.016  0.00  0.00    +0.030 A 
ATOM     33 BR   UNL     1       2.227 -11.572  -1.145  0.00  0.00    -0.046 Br
BRANCH  30  34
ATOM     34  O   UNL     1       2.175 -13.423   1.276  0.00  0.00    -0.494 OA
ATOM     35  C   UNL     1       2.185 -14.399   2.320  0.00  0.00    +0.277 C 
ENDBRANCH  30  34
ENDBRANCH  25  27
ENDBRANCH   9  25
TORSDOF 5
