REMARK  Name = ZINC13283473
REMARK  6 active torsions:
REMARK  status: ('A' for Active; 'I' for Inactive)
REMARK    1  A    between atoms: C_3  and  O_9
REMARK    2  A    between atoms: C_6  and  C_7
REMARK    3  A    between atoms: O_9  and  C_10
REMARK    4  A    between atoms: C_10  and  C_11
REMARK    5  A    between atoms: C_12  and  C_19
REMARK    6  A    between atoms: C_13  and  N_18
REMARK                            x       y       z     vdW  Elec       q    Type
REMARK                         _______ _______ _______ _____ _____    ______ ____
ROOT
ATOM      1  C   UNL     1      -1.249   3.328   0.032  0.00  0.00    +0.093 A 
ATOM      2  C   UNL     1      -0.067   4.065   0.025  0.00  0.00    +0.046 A 
ATOM      3  C   UNL     1       1.154   3.366   0.009  0.00  0.00    +0.129 A 
ATOM      4  N   UNL     1       1.133   2.038   0.002  0.00  0.00    -0.199 NA
ATOM      5  C   UNL     1      -0.017   1.379   0.010  0.00  0.00    +0.215 A 
ATOM      6  N   UNL     1      -1.184   2.007   0.019  0.00  0.00    -0.215 NA
ATOM      7  N   UNL     1       0.002  -0.004   0.002  0.00  0.00    -0.327 N 
ATOM      8  H   UNL     1       0.849  -0.478  -0.009  0.00  0.00    +0.145 HD
ATOM      9  H   UNL     1      -0.831  -0.500   0.007  0.00  0.00    +0.145 HD
ENDROOT
BRANCH   2  10
ATOM     10  C   UNL     1      -0.094   5.548   0.033  0.00  0.00    -0.013 A 
ATOM     11  C   UNL     1      -0.612   6.231   1.132  0.00  0.00    +0.010 A 
ATOM     12  C   UNL     1      -0.630   7.611   1.137  0.00  0.00    +0.020 A 
ATOM     13  C   UNL     1      -0.146   8.316   0.049  0.00  0.00    +0.041 A 
ATOM     14  C   UNL     1       0.364   7.642  -1.047  0.00  0.00    +0.020 A 
ATOM     15  C   UNL     1       0.392   6.263  -1.060  0.00  0.00    +0.010 A 
ATOM     16 CL   UNL     1      -0.178  10.052   0.059  0.00  0.00    -0.084 Cl
ENDBRANCH   2  10
BRANCH   3  17
ATOM     17  N   UNL     1       2.357   4.050   0.002  0.00  0.00    -0.343 N 
ATOM     18  H   UNL     1       3.194   3.559  -0.009  0.00  0.00    +0.144 HD
ATOM     19  H   UNL     1       2.363   5.019   0.007  0.00  0.00    +0.144 HD
ENDBRANCH   3  17
BRANCH   1  20
ATOM     20  C   UNL     1      -2.584   4.027   0.048  0.00  0.00    +0.285 C 
BRANCH  20  21
ATOM     21  O   UNL     1      -3.019   4.255  -1.294  0.00  0.00    -0.486 OA
BRANCH  21  24
ATOM     22  C   UNL     1      -5.904   5.766  -2.908  0.00  0.00    +0.022 A 
ATOM     23  C   UNL     1      -4.693   5.131  -2.737  0.00  0.00    +0.047 A 
ATOM     24  C   UNL     1      -4.213   4.880  -1.458  0.00  0.00    +0.121 A 
ATOM     25  C   UNL     1      -4.953   5.261  -0.345  0.00  0.00    +0.047 A 
ATOM     26  C   UNL     1      -6.162   5.900  -0.507  0.00  0.00    +0.022 A 
ATOM     27  C   UNL     1      -6.649   6.156  -1.792  0.00  0.00    +0.052 A 
BRANCH  27  28
ATOM     28  C   UNL     1      -7.908   6.816  -1.964  0.00  0.00    +0.099 C 
ATOM     29  N   UNL     1      -8.907   7.339  -2.101  0.00  0.00    -0.191 NA
ENDBRANCH  27  28
ENDBRANCH  21  24
ENDBRANCH  20  21
ENDBRANCH   1  20
TORSDOF 6
