REMARK  Name = ZINC23538395
REMARK  10 active torsions:
REMARK  status: ('A' for Active; 'I' for Inactive)
REMARK    1  A    between atoms: C_1  and  N_2
REMARK    2  A    between atoms: N_2  and  C_3
REMARK    3  A    between atoms: N_2  and  C_4
REMARK    4  A    between atoms: C_4  and  C_6
REMARK    5  A    between atoms: C_4  and  C_29
REMARK    6  A    between atoms: C_6  and  N_7
REMARK    7  A    between atoms: C_8  and  C_10
REMARK    8  A    between atoms: C_17  and  C_19
REMARK    9  A    between atoms: C_34  and  O_35
REMARK   10  A    between atoms: O_35  and  C_36
REMARK                            x       y       z     vdW  Elec       q    Type
REMARK                         _______ _______ _______ _____ _____    ______ ____
ROOT
ATOM      1  N   UNL     1       0.343   0.871   3.568  0.00  0.00    -0.316 N 
ATOM      2  C   UNL     1       0.857   0.536   2.368  0.00  0.00    +0.218 C 
ATOM      3  O   UNL     1       1.777  -0.251   2.300  0.00  0.00    -0.275 OA
ATOM      4  H   UNL     1      -0.492   1.585   3.629  0.00  0.00    +0.149 HD
ENDROOT
BRANCH   2   5
ATOM      5  C   UNL     1       0.289   1.141   1.109  0.00  0.00    +0.092 C 
ATOM      6  C   UNL     1       1.046   0.599  -0.105  0.00  0.00    +0.016 C 
ATOM      7  C   UNL     1       0.449   1.188  -1.385  0.00  0.00    +0.020 C 
ATOM      8  C   UNL     1       0.602   2.712  -1.361  0.00  0.00    +0.108 C 
ATOM      9  N   UNL     1       0.003   3.228  -0.123  0.00  0.00    -0.297 N 
ATOM     10  C   UNL     1       0.441   2.665   1.162  0.00  0.00    +0.120 C 
ATOM     11  C   UNL     1      -0.930   4.199  -0.164  0.00  0.00    +0.247 C 
ATOM     12  O   UNL     1      -1.487   4.552   0.858  0.00  0.00    -0.270 OA
BRANCH  11  13
ATOM     13  C   UNL     1      -1.276   4.835  -1.449  0.00  0.00    +0.045 A 
ATOM     14  C   UNL     1      -0.285   5.377  -2.253  0.00  0.00    +0.014 A 
ATOM     15  C   UNL     1      -0.604   5.973  -3.467  0.00  0.00    +0.001 A 
ATOM     16  C   UNL     1      -1.895   6.050  -3.897  0.00  0.00    +0.008 A 
ATOM     17  C   UNL     1      -2.933   5.519  -3.112  0.00  0.00    -0.017 A 
ATOM     18  C   UNL     1      -2.627   4.903  -1.874  0.00  0.00    -0.006 A 
ATOM     19  C   UNL     1      -3.663   4.374  -1.093  0.00  0.00    +0.009 A 
ATOM     20  C   UNL     1      -4.950   4.457  -1.533  0.00  0.00    +0.001 A 
ATOM     21  C   UNL     1      -5.253   5.062  -2.750  0.00  0.00    +0.001 A 
ATOM     22  C   UNL     1      -4.272   5.587  -3.534  0.00  0.00    +0.008 A 
ENDBRANCH  11  13
ENDBRANCH   2   5
BRANCH   1  23
ATOM     23  C   UNL     1       0.894   0.282   4.791  0.00  0.00    +0.093 C 
BRANCH  23  24
ATOM     24  C   UNL     1       0.137   0.825   6.004  0.00  0.00    -0.017 C 
BRANCH  24  25
ATOM     25  C   UNL     1       0.782   0.316   7.268  0.00  0.00    -0.018 A 
ATOM     26  C   UNL     1       2.118  -0.036   7.268  0.00  0.00    +0.005 A 
ATOM     27  C   UNL     1       2.712  -0.498   8.428  0.00  0.00    +0.000 A 
ATOM     28  C   UNL     1       1.968  -0.619   9.588  0.00  0.00    +0.004 A 
ATOM     29  C   UNL     1       0.631  -0.273   9.591  0.00  0.00    +0.046 A 
ATOM     30  C   UNL     1       0.034   0.196   8.430  0.00  0.00    +0.122 A 
BRANCH  30  31
ATOM     31  O   UNL     1      -1.281   0.538   8.430  0.00  0.00    -0.495 OA
ATOM     32  C   UNL     1      -1.990   0.389   9.662  0.00  0.00    +0.277 C 
ENDBRANCH  30  31
ENDBRANCH  24  25
BRANCH  24  34
ATOM     33  C   UNL     1      -0.627   2.853   7.085  0.00  0.00    -0.096 C 
ATOM     34  N   UNL     1       0.178   2.293   5.990  0.00  0.00    +0.382 N 
ATOM     35  C   UNL     1       1.562   2.782   6.052  0.00  0.00    -0.096 C 
ATOM     36  H   UNL     1      -0.259   2.635   5.040  0.00  0.00    -0.082 HD
ENDBRANCH  24  34
ENDBRANCH  23  24
ENDBRANCH   1  23
TORSDOF 7
