REMARK  Name = ZINC13051995
REMARK  16 active torsions:
REMARK  status: ('A' for Active; 'I' for Inactive)
REMARK    1  A    between atoms: C_1  and  C_2
REMARK    2  A    between atoms: C_4  and  C_13
REMARK    3  A    between atoms: C_5  and  C_12
REMARK    4  A    between atoms: N_6  and  C_7
REMARK    5  A    between atoms: C_7  and  C_8
REMARK    6  A    between atoms: C_8  and  C_9
REMARK    7  A    between atoms: C_9  and  O_10
REMARK    8  A    between atoms: O_10  and  C_11
REMARK    9  A    between atoms: C_13  and  C_15
REMARK   10  A    between atoms: C_15  and  S_16
REMARK   11  A    between atoms: S_16  and  C_17
REMARK   12  A    between atoms: C_21  and  C_33
REMARK   13  A    between atoms: N_27  and  C_28
REMARK   14  A    between atoms: C_28  and  C_29
REMARK   15  A    between atoms: C_29  and  C_31
REMARK   16  A    between atoms: C_29  and  O_32
REMARK                            x       y       z     vdW  Elec       q    Type
REMARK                         _______ _______ _______ _____ _____    ______ ____
ROOT
ATOM      1  C   UNL     1      -1.327  -9.355  -1.364  0.00  0.00    +0.173 A 
ATOM      2  N   UNL     1      -1.317  -9.255  -0.058  0.00  0.00    -0.223 NA
ATOM      3  C   UNL     1      -1.296 -10.352   0.737  0.00  0.00    +0.080 A 
ATOM      4  C   UNL     1      -1.285 -10.242   2.130  0.00  0.00    +0.043 A 
ATOM      5  C   UNL     1      -1.264 -11.395   2.905  0.00  0.00    +0.065 A 
ATOM      6  C   UNL     1      -1.253 -12.659   2.299  0.00  0.00    +0.016 A 
ATOM      7  C   UNL     1      -1.263 -12.777   0.939  0.00  0.00    +0.016 A 
ATOM      8  C   UNL     1      -1.284 -11.633   0.142  0.00  0.00    +0.065 A 
ATOM      9  C   UNL     1      -1.296 -11.716  -1.327  0.00  0.00    +0.262 A 
ATOM     10  O   UNL     1      -1.286 -12.790  -1.899  0.00  0.00    -0.267 OA
ATOM     11  N   UNL     1      -1.322 -10.553  -2.019  0.00  0.00    -0.285 N 
ENDROOT
BRANCH   5  12
ATOM     12  C   UNL     1      -1.254 -11.288   4.381  0.00  0.00    +0.387 C 
ATOM     13  O   UNL     1      -1.264 -10.195   4.910  0.00  0.00    -0.241 OA
ATOM     14  O   UNL     1      -1.233 -12.403   5.137  0.00  0.00    -0.241 OA
ENDBRANCH   5  12
BRANCH   1  15
ATOM     15  S   UNL     1      -1.355  -7.875  -2.319  0.00  0.00    -0.080 S 
BRANCH  15  16
ATOM     16  C   UNL     1      -1.360  -6.644  -0.992  0.00  0.00    +0.157 C 
BRANCH  16  17
ATOM     17  C   UNL     1      -1.383  -5.261  -1.590  0.00  0.00    +0.175 C 
ATOM     18  O   UNL     1      -1.396  -5.121  -2.795  0.00  0.00    -0.291 OA
BRANCH  17  22
ATOM     19  C   UNL     1      -1.387  -2.280   2.542  0.00  0.00    +0.063 C 
ATOM     20  C   UNL     1      -1.393  -2.783   1.122  0.00  0.00    +0.017 A 
ATOM     21  C   UNL     1      -1.378  -4.075   0.753  0.00  0.00    +0.034 A 
ATOM     22  C   UNL     1      -1.391  -4.086  -0.716  0.00  0.00    +0.039 A 
ATOM     23  C   UNL     1      -1.419  -2.760  -1.104  0.00  0.00    +0.026 A 
ATOM     24  N   UNL     1      -1.413  -1.998   0.005  0.00  0.00    -0.347 N 
ATOM     25  C   UNL     1      -1.447  -2.254  -2.523  0.00  0.00    +0.064 C 
BRANCH  24  26
ATOM     26  C   UNL     1      -1.433  -0.534   0.013  0.00  0.00    +0.124 C 
BRANCH  26  27
ATOM     27  C   UNL     1       0.002  -0.004   0.002  0.00  0.00    +0.049 C 
BRANCH  27  28
ATOM     28  C   UNL     1      -0.019   1.526   0.010  0.00  0.00    +0.161 C 
BRANCH  28  29
ATOM     29  O   UNL     1       1.322   2.020   0.000  0.00  0.00    -0.383 OA
ATOM     30  C   UNL     1       1.415   3.446   0.007  0.00  0.00    +0.193 C 
ENDBRANCH  28  29
ENDBRANCH  27  28
ENDBRANCH  26  27
ENDBRANCH  24  26
ENDBRANCH  17  22
ENDBRANCH  16  17
ENDBRANCH  15  16
ENDBRANCH   1  15
BRANCH  11  31
ATOM     31  C   UNL     1      -1.340 -10.580  -3.484  0.00  0.00    +0.158 C 
BRANCH  31  32
ATOM     32  C   UNL     1       0.096 -10.574  -4.012  0.00  0.00    +0.131 C 
ATOM     33  C   UNL     1       0.077 -10.476  -5.539  0.00  0.00    +0.039 C 
BRANCH  32  34
ATOM     34  O   UNL     1       0.753 -11.781  -3.620  0.00  0.00    -0.390 OA
ATOM     35  H   UNL     1       1.669 -11.845  -3.921  0.00  0.00    +0.210 HD
ENDBRANCH  32  34
ENDBRANCH  31  32
ENDBRANCH  11  31
TORSDOF 12
