REMARK  Name = ZINC04123694
REMARK  2 active torsions:
REMARK  status: ('A' for Active; 'I' for Inactive)
REMARK    1  A    between atoms: C_5  and  C_7
REMARK    2  A    between atoms: C_20  and  N_23
REMARK                            x       y       z     vdW  Elec       q    Type
REMARK                         _______ _______ _______ _____ _____    ______ ____
ROOT
ATOM      1  C   UNL     1       0.409   2.702  -2.509  0.00  0.00    +0.108 C 
ATOM      2  C   UNL     1       0.428   2.465  -0.997  0.00  0.00    +0.029 C 
ATOM      3  C   UNL     1       0.673   0.949  -0.756  0.00  0.00    +0.033 C 
ATOM      4  C   UNL     1      -0.704   0.336  -0.913  0.00  0.00    -0.030 C 
ATOM      5  C   UNL     1      -1.633   1.244  -0.746  0.00  0.00    -0.023 C 
ATOM      6  C   UNL     1      -1.011   2.590  -0.452  0.00  0.00    +0.049 C 
ATOM      7  C   UNL     1      -1.770   3.682  -1.147  0.00  0.00    -0.017 A 
ATOM      8  C   UNL     1      -3.027   4.014  -0.659  0.00  0.00    +0.006 A 
ATOM      9  C   UNL     1      -3.775   5.006  -1.259  0.00  0.00    +0.003 A 
ATOM     10  C   UNL     1      -3.275   5.682  -2.357  0.00  0.00    +0.034 A 
ATOM     11  C   UNL     1      -2.027   5.361  -2.848  0.00  0.00    +0.147 A 
ATOM     12  C   UNL     1      -1.268   4.360  -2.244  0.00  0.00    +0.062 A 
ATOM     13  N   UNL     1      -0.012   4.077  -2.780  0.00  0.00    -0.335 N 
ATOM     14  H   UNL     1       0.012   4.274  -3.770  0.00  0.00    +0.147 HD
ENDROOT
BRANCH   1  19
ATOM     15  C   UNL     1      -2.753   1.252  -3.977  0.00  0.00    +0.000 A 
ATOM     16  C   UNL     1      -2.333  -0.014  -4.344  0.00  0.00    +0.003 A 
ATOM     17  C   UNL     1      -1.027  -0.402  -4.116  0.00  0.00    +0.039 A 
ATOM     18  C   UNL     1      -0.136   0.479  -3.527  0.00  0.00    +0.128 A 
ATOM     19  C   UNL     1      -0.558   1.744  -3.155  0.00  0.00    +0.008 A 
ATOM     20  C   UNL     1      -1.866   2.130  -3.383  0.00  0.00    +0.008 A 
ATOM     21  F   UNL     1       1.143   0.103  -3.309  0.00  0.00    -0.205 F 
ENDBRANCH   1  19
BRANCH  11  22
ATOM     22  N   UNL     1      -1.491   6.084  -4.023  0.00  0.00    +0.058 N 
ATOM     23  O   UNL     1      -0.304   6.353  -4.083  0.00  0.00    -0.126 OA
ATOM     24  O   UNL     1      -2.236   6.410  -4.930  0.00  0.00    -0.126 OA
ENDBRANCH  11  22
TORSDOF 2
