REMARK  Name = ZINC34829651
REMARK  7 active torsions:
REMARK  status: ('A' for Active; 'I' for Inactive)
REMARK    1  A    between atoms: C_1  and  C_2
REMARK    2  A    between atoms: C_9  and  C_11
REMARK    3  A    between atoms: C_17  and  C_19
REMARK    4  A    between atoms: C_19  and  N_20
REMARK    5  A    between atoms: C_28  and  C_30
REMARK    6  A    between atoms: C_33  and  O_36
REMARK    7  A    between atoms: O_36  and  C_37
REMARK                            x       y       z     vdW  Elec       q    Type
REMARK                         _______ _______ _______ _____ _____    ______ ____
ROOT
ATOM      1  C   UNL     1       1.607  -3.760  -2.553  0.00  0.00    +0.020 C 
ENDROOT
BRANCH   1  11
ATOM      2  C   UNL     1      -0.025   1.589   0.052  0.00  0.00    +0.029 C 
ATOM      3  C   UNL     1       0.223   0.092  -0.142  0.00  0.00    +0.090 C 
ATOM      4  C   UNL     1       0.998  -0.137  -1.446  0.00  0.00    +0.130 C 
ATOM      5  N   UNL     1       1.450  -1.534  -1.484  0.00  0.00    -0.300 N 
ATOM      6  C   UNL     1       2.251  -2.051  -0.366  0.00  0.00    +0.126 C 
ATOM      7  C   UNL     1       1.477  -1.822   0.938  0.00  0.00    +0.127 C 
ATOM      8  N   UNL     1       1.021  -0.425   0.979  0.00  0.00    -0.295 N 
ATOM      9  C   UNL     1       1.333   0.368   2.023  0.00  0.00    +0.219 C 
ATOM     10  O   UNL     1       0.866   1.485   2.096  0.00  0.00    -0.275 OA
ATOM     11  C   UNL     1       1.136  -2.329  -2.527  0.00  0.00    +0.199 C 
ATOM     12  O   UNL     1       0.474  -1.891  -3.445  0.00  0.00    -0.278 OA
BRANCH   9  13
ATOM     13  C   UNL     1       2.261  -0.133   3.099  0.00  0.00    +0.075 C 
ATOM     14  C   UNL     1       1.581  -1.263   3.874  0.00  0.00    +0.013 C 
ATOM     15  C   UNL     1       2.524  -1.771   4.967  0.00  0.00    +0.001 C 
ATOM     16  C   UNL     1       2.860  -0.626   5.924  0.00  0.00    +0.000 C 
ATOM     17  C   UNL     1       3.540   0.504   5.149  0.00  0.00    +0.001 C 
ATOM     18  C   UNL     1       2.597   1.013   4.056  0.00  0.00    +0.013 C 
ENDBRANCH   9  13
ENDBRANCH   1  11
BRANCH   1  19
ATOM     19  N   UNL     1       1.138  -4.407  -3.785  0.00  0.00    +0.393 N 
ATOM     20  C   UNL     1       1.750  -3.744  -4.944  0.00  0.00    -0.072 C 
ATOM     21  C   UNL     1       1.016  -4.192  -6.220  0.00  0.00    +0.024 C 
ATOM     22  C   UNL     1       0.886  -5.679  -6.165  0.00  0.00    -0.010 A 
ATOM     23  C   UNL     1       1.095  -6.470  -5.075  0.00  0.00    -0.047 A 
ATOM     24  C   UNL     1       0.921  -7.840  -5.258  0.00  0.00    +0.010 A 
ATOM     25  C   UNL     1       0.558  -8.319  -6.471  0.00  0.00    +0.045 A 
ATOM     26  S   UNL     1       0.442  -6.822  -7.441  0.00  0.00    -0.101 S 
ATOM     27  C   UNL     1       1.496  -5.830  -3.749  0.00  0.00    -0.005 C 
ATOM     28  H   UNL     1       0.134  -4.319  -3.845  0.00  0.00    -0.080 HD
BRANCH  27  29
ATOM     29  C   UNL     1       0.763  -6.508  -2.620  0.00  0.00    -0.056 A 
ATOM     30  C   UNL     1      -0.555  -6.184  -2.360  0.00  0.00    +0.006 A 
ATOM     31  C   UNL     1      -1.229  -6.803  -1.325  0.00  0.00    +0.046 A 
ATOM     32  C   UNL     1      -0.581  -7.750  -0.546  0.00  0.00    +0.120 A 
ATOM     33  C   UNL     1       0.742  -8.074  -0.809  0.00  0.00    +0.046 A 
ATOM     34  C   UNL     1       1.409  -7.456  -1.849  0.00  0.00    +0.006 A 
BRANCH  32  35
ATOM     35  O   UNL     1      -1.242  -8.361   0.473  0.00  0.00    -0.495 OA
ATOM     36  C   UNL     1      -0.512  -9.326   1.233  0.00  0.00    +0.277 C 
ENDBRANCH  32  35
ENDBRANCH  27  29
ENDBRANCH   1  19
TORSDOF 5
