REMARK  Name = ZINC20592988
REMARK  6 active torsions:
REMARK  status: ('A' for Active; 'I' for Inactive)
REMARK    1  A    between atoms: C_1  and  C_2
REMARK    2  A    between atoms: C_2  and  C_3
REMARK    3  A    between atoms: C_6  and  C_9
REMARK    4  A    between atoms: C_9  and  C_11
REMARK    5  A    between atoms: C_9  and  N_22
REMARK    6  A    between atoms: C_12  and  C_21
REMARK                            x       y       z     vdW  Elec       q    Type
REMARK                         _______ _______ _______ _____ _____    ______ ____
ROOT
ATOM      1  C   UNL     1       3.594  -3.473  -0.051  0.00  0.00    +0.024 C 
ENDROOT
BRANCH   1   2
ATOM      2  C   UNL     1       2.881  -2.145  -0.037  0.00  0.00    +0.099 A 
ATOM      3  C   UNL     1       3.486  -0.950  -0.036  0.00  0.00    -0.003 A 
ATOM      4  C   UNL     1       2.413   0.052  -0.021  0.00  0.00    +0.024 A 
ATOM      5  C   UNL     1       2.381   1.446  -0.012  0.00  0.00    +0.027 A 
ATOM      6  C   UNL     1       1.168   2.099   0.002  0.00  0.00    +0.019 A 
ATOM      7  C   UNL     1      -0.017   1.374   0.010  0.00  0.00    +0.019 A 
ATOM      8  C   UNL     1       0.002  -0.004   0.002  0.00  0.00    +0.048 A 
ATOM      9  C   UNL     1       1.215  -0.682  -0.013  0.00  0.00    +0.135 A 
ATOM     10  O   UNL     1       1.546  -1.989  -0.023  0.00  0.00    -0.461 OA
ATOM     11 BR   UNL     1       1.115   3.989   0.013  0.00  0.00    -0.050 Br
ATOM     12  C   UNL     1       4.970  -0.686  -0.050  0.00  0.00    +0.048 C 
ENDBRANCH   1   2
BRANCH   1  16
ATOM     13  C   UNL     1       3.388  -5.241   3.832  0.00  0.00    -0.048 A 
ATOM     14  C   UNL     1       4.535  -4.582   3.432  0.00  0.00    +0.004 A 
ATOM     15  C   UNL     1       4.602  -4.010   2.176  0.00  0.00    +0.002 A 
ATOM     16  C   UNL     1       3.521  -4.097   1.318  0.00  0.00    -0.055 A 
ATOM     17  C   UNL     1       2.372  -4.752   1.719  0.00  0.00    +0.002 A 
ATOM     18  C   UNL     1       2.307  -5.328   2.974  0.00  0.00    +0.004 A 
BRANCH  13  20
ATOM     19  C   UNL     1       2.767  -4.842   6.199  0.00  0.00    +0.009 C 
ATOM     20  C   UNL     1       3.315  -5.865   5.202  0.00  0.00    +0.032 C 
ENDBRANCH  13  20
ENDBRANCH   1  16
BRANCH   1  21
ATOM     21  N   UNL     1       2.953  -4.362  -1.030  0.00  0.00    +0.387 N 
ATOM     22  H   UNL     1       3.006  -3.907  -2.029  0.00  0.00    -0.089 HD
ATOM     23  H   UNL     1       1.900  -4.515  -0.751  0.00  0.00    -0.089 HD
ATOM     24  H   UNL     1       3.474  -5.331  -1.040  0.00  0.00    -0.089 HD
ENDBRANCH   1  21
TORSDOF 4
