REMARK  Name = ZINC58260395
REMARK  4 active torsions:
REMARK  status: ('A' for Active; 'I' for Inactive)
REMARK    1  A    between atoms: C_10  and  C_13
REMARK    2  A    between atoms: C_13  and  C_14
REMARK    3  A    between atoms: N_19  and  C_22
REMARK    4  A    between atoms: C_22  and  C_23
REMARK                            x       y       z     vdW  Elec       q    Type
REMARK                         _______ _______ _______ _____ _____    ______ ____
ROOT
ATOM      1  C   UNL     1       4.815  -1.711   2.839  0.00  0.00    +0.217 C 
ATOM      2  O   UNL     1       5.762  -1.647   2.085  0.00  0.00    -0.276 OA
ATOM      3  N   UNL     1       4.975  -1.431   4.148  0.00  0.00    -0.299 N 
ATOM      4  C   UNL     1       3.841  -1.509   5.081  0.00  0.00    +0.123 C 
ATOM      5  C   UNL     1       4.254  -2.373   6.278  0.00  0.00    +0.103 C 
ATOM      6  N   UNL     1       5.497  -1.844   6.854  0.00  0.00    -0.295 NA
ATOM      7  C   UNL     1       6.605  -1.922   5.893  0.00  0.00    +0.103 C 
ATOM      8  C   UNL     1       6.290  -1.046   4.682  0.00  0.00    +0.123 C 
ENDROOT
BRANCH   1   9
ATOM      9  C   UNL     1       3.458  -2.104   2.314  0.00  0.00    +0.119 C 
BRANCH   9  19
ATOM     10  C   UNL     1      -0.017   1.377   0.010  0.00  0.00    +0.002 A 
ATOM     11  C   UNL     1       1.166   2.094   0.002  0.00  0.00    +0.001 A 
ATOM     12  C   UNL     1       2.377   1.426  -0.018  0.00  0.00    +0.016 A 
ATOM     13  C   UNL     1       2.401   0.041  -0.027  0.00  0.00    +0.030 A 
ATOM     14  C   UNL     1       1.213  -0.690  -0.012  0.00  0.00    +0.047 A 
ATOM     15  C   UNL     1       0.002  -0.004   0.002  0.00  0.00    +0.024 A 
ATOM     16  N   UNL     1       1.206  -2.081   0.003  0.00  0.00    -0.284 N 
ATOM     17  C   UNL     1       2.227  -2.877   0.302  0.00  0.00    +0.231 C 
ATOM     18  O   UNL     1       2.087  -4.073   0.160  0.00  0.00    -0.274 OA
ATOM     19  C   UNL     1       3.550  -2.366   0.809  0.00  0.00    +0.146 C 
ATOM     20  S   UNL     1       3.943  -0.818  -0.063  0.00  0.00    -0.110 S 
ATOM     21  H   UNL     1       0.369  -2.514  -0.229  0.00  0.00    +0.155 HD
ENDBRANCH   9  19
ENDBRANCH   1   9
BRANCH   6  22
ATOM     22  C   UNL     1       5.835  -2.537   8.104  0.00  0.00    +0.120 C 
BRANCH  22  23
ATOM     23  C   UNL     1       6.965  -1.814   8.790  0.00  0.00    -0.026 A 
ATOM     24  C   UNL     1       8.279  -2.149   8.519  0.00  0.00    +0.012 A 
ATOM     25  C   UNL     1       9.272  -1.479   9.153  0.00  0.00    +0.045 A 
ATOM     26  S   UNL     1       8.355  -0.335  10.170  0.00  0.00    -0.105 S 
ATOM     27  C   UNL     1       6.710  -0.822   9.678  0.00  0.00    +0.050 A 
ENDBRANCH  22  23
ENDBRANCH   6  22
TORSDOF 4
