REMARK  Name = ZINC04171149
REMARK  4 active torsions:
REMARK  status: ('A' for Active; 'I' for Inactive)
REMARK    1  A    between atoms: C_6  and  C_7
REMARK    2  A    between atoms: C_10  and  C_21
REMARK    3  A    between atoms: C_16  and  N_20
REMARK    4  A    between atoms: C_17  and  C_18
REMARK                            x       y       z     vdW  Elec       q    Type
REMARK                         _______ _______ _______ _____ _____    ______ ____
ROOT
ATOM      1  C   UNL     1      -1.866  -0.853   0.025  0.00  0.00    +0.101 C 
ATOM      2  C   UNL     1      -1.546  -1.785   1.165  0.00  0.00    +0.050 A 
ATOM      3  C   UNL     1      -1.422  -1.506   2.519  0.00  0.00    +0.077 A 
ATOM      4  N   UNL     1      -1.133  -2.626   3.140  0.00  0.00    -0.175 NA
ATOM      5  N   UNL     1      -1.065  -3.656   2.189  0.00  0.00    -0.246 N 
ATOM      6  H   UNL     1      -0.869  -4.588   2.370  0.00  0.00    +0.192 HD
ATOM      7  C   UNL     1      -1.322  -3.121   0.985  0.00  0.00    +0.222 A 
ATOM      8  O   UNL     1      -1.373  -3.714  -0.234  0.00  0.00    -0.423 OA
ATOM      9  C   UNL     1      -1.920  -3.013  -1.248  0.00  0.00    +0.200 C 
ATOM     10  C   UNL     1      -2.177  -1.686  -1.193  0.00  0.00    +0.098 C 
ENDROOT
BRANCH   3  11
ATOM     11  C   UNL     1      -1.590  -0.155   3.164  0.00  0.00    +0.016 C 
ATOM     12  C   UNL     1      -0.447   0.764   2.727  0.00  0.00    +0.016 C 
ATOM     13  C   UNL     1      -0.617   2.136   3.381  0.00  0.00    -0.010 C 
ATOM     14  C   UNL     1      -1.954   2.744   2.951  0.00  0.00    +0.007 C 
ATOM     15  C   UNL     1      -3.096   1.826   3.389  0.00  0.00    -0.010 C 
ATOM     16  C   UNL     1      -2.926   0.453   2.734  0.00  0.00    +0.016 C 
ATOM     17  C   UNL     1      -3.073   1.671   4.910  0.00  0.00    +0.007 C 
ATOM     18  C   UNL     1      -1.736   1.063   5.341  0.00  0.00    -0.010 C 
ATOM     19  C   UNL     1      -0.594   1.982   4.903  0.00  0.00    +0.007 C 
ATOM     20  C   UNL     1      -1.566  -0.309   4.686  0.00  0.00    +0.016 C 
ENDBRANCH   3  11
BRANCH   1  26
ATOM     21  C   UNL     1      -0.871   1.371  -0.550  0.00  0.00    +0.007 A 
ATOM     22  C   UNL     1       0.215   2.185  -0.807  0.00  0.00    +0.038 A 
ATOM     23  C   UNL     1       1.497   1.661  -0.769  0.00  0.00    +0.123 A 
ATOM     24  C   UNL     1       1.687   0.322  -0.473  0.00  0.00    +0.038 A 
ATOM     25  C   UNL     1       0.599  -0.490  -0.217  0.00  0.00    +0.007 A 
ATOM     26  C   UNL     1      -0.680   0.034  -0.255  0.00  0.00    -0.034 A 
ATOM     27  F   UNL     1       2.560   2.456  -1.020  0.00  0.00    -0.205 F 
ENDBRANCH   1  26
BRANCH   9  28
ATOM     28  N   UNL     1      -2.234  -3.685  -2.403  0.00  0.00    -0.328 N 
ATOM     29  H   UNL     1      -2.061  -4.637  -2.473  0.00  0.00    +0.145 HD
ATOM     30  H   UNL     1      -2.629  -3.207  -3.149  0.00  0.00    +0.145 HD
ENDBRANCH   9  28
BRANCH  10  31
ATOM     31  C   UNL     1      -2.765  -1.049  -2.333  0.00  0.00    +0.101 C 
ATOM     32  N   UNL     1      -3.232  -0.544  -3.237  0.00  0.00    -0.191 NA
ENDBRANCH  10  31
TORSDOF 4
