REMARK  Name = ZINC20706025
REMARK  7 active torsions:
REMARK  status: ('A' for Active; 'I' for Inactive)
REMARK    1  A    between atoms: C_1  and  C_2
REMARK    2  A    between atoms: C_2  and  C_3
REMARK    3  A    between atoms: C_3  and  N_4
REMARK    4  A    between atoms: N_4  and  S_5
REMARK    5  A    between atoms: S_5  and  C_8
REMARK    6  A    between atoms: C_21  and  C_24
REMARK    7  A    between atoms: C_26  and  N_31
REMARK                            x       y       z     vdW  Elec       q    Type
REMARK                         _______ _______ _______ _____ _____    ______ ____
ROOT
ATOM      1  C   UNL     1      -3.457  -5.359   0.697  0.00  0.00    +0.106 A 
ATOM      2  C   UNL     1      -2.436  -5.546  -0.218  0.00  0.00    +0.030 A 
ATOM      3  C   UNL     1      -1.661  -4.478  -0.619  0.00  0.00    +0.025 A 
ATOM      4  C   UNL     1      -1.898  -3.207  -0.108  0.00  0.00    +0.031 A 
ATOM      5  C   UNL     1      -2.941  -3.023   0.807  0.00  0.00    -0.018 A 
ATOM      6  C   UNL     1      -3.706  -4.098   1.206  0.00  0.00    +0.034 A 
ATOM      7  C   UNL     1      -3.175  -1.651   1.308  0.00  0.00    +0.049 C 
ATOM      8  C   UNL     1      -3.812  -1.392   2.624  0.00  0.00    -0.023 C 
ATOM      9  C   UNL     1      -3.325  -0.260   3.115  0.00  0.00    -0.030 C 
ATOM     10  C   UNL     1      -2.278   0.318   2.159  0.00  0.00    +0.033 C 
ATOM     11  C   UNL     1      -1.792  -0.945   1.434  0.00  0.00    +0.029 C 
ATOM     12  C   UNL     1      -1.292  -0.775   0.011  0.00  0.00    +0.106 C 
ATOM     13  N   UNL     1      -1.074  -2.146  -0.501  0.00  0.00    -0.336 N 
ATOM     14  H   UNL     1      -0.252  -2.346  -1.204  0.00  0.00    +0.147 HD
ENDROOT
BRANCH  12  15
ATOM     15  C   UNL     1       0.002  -0.004   0.002  0.00  0.00    -0.007 A 
ATOM     16  C   UNL     1       0.732   0.135   1.168  0.00  0.00    +0.039 A 
ATOM     17  C   UNL     1       1.919   0.842   1.160  0.00  0.00    +0.127 A 
ATOM     18  C   UNL     1       2.378   1.412  -0.014  0.00  0.00    +0.034 A 
ATOM     19  C   UNL     1       1.649   1.274  -1.180  0.00  0.00    +0.022 A 
ATOM     20  C   UNL     1       0.460   0.565  -1.173  0.00  0.00    +0.046 A 
ATOM     21 CL   UNL     1      -0.452   0.385  -2.638  0.00  0.00    -0.083 Cl
BRANCH  17  22
ATOM     22  N   UNL     1       2.701   0.990   2.408  0.00  0.00    +0.056 N 
ATOM     23  O   UNL     1       2.297   0.488   3.442  0.00  0.00    -0.126 OA
ATOM     24  O   UNL     1       3.747   1.613   2.402  0.00  0.00    -0.126 OA
ENDBRANCH  17  22
ENDBRANCH  12  15
BRANCH   1  25
ATOM     25  S   UNL     1      -4.440  -6.727   1.213  0.00  0.00    +0.058 S 
ATOM     26  O   UNL     1      -3.655  -7.893   1.004  0.00  0.00    -0.153 OA
ATOM     27  O   UNL     1      -4.975  -6.387   2.484  0.00  0.00    -0.153 OA
BRANCH  25  28
ATOM     28  N   UNL     1      -5.723  -6.828   0.171  0.00  0.00    -0.190 NA
ATOM     29  H   UNL     1      -6.717  -6.499   0.509  0.00  0.00    +0.148 HD
BRANCH  28  30
ATOM     30  C   UNL     1      -5.497  -7.143  -1.242  0.00  0.00    +0.105 C 
BRANCH  30  32
ATOM     31  C   UNL     1      -6.585  -7.870  -3.370  0.00  0.00    +0.005 C 
ATOM     32  C   UNL     1      -6.822  -7.542  -1.894  0.00  0.00    +0.013 C 
ENDBRANCH  30  32
ENDBRANCH  28  30
ENDBRANCH  25  28
ENDBRANCH   1  25
TORSDOF 6
