REMARK  Name = ZINC35232000
REMARK  9 active torsions:
REMARK  status: ('A' for Active; 'I' for Inactive)
REMARK    1  A    between atoms: C_1  and  C_2
REMARK    2  A    between atoms: C_2  and  O_3
REMARK    3  A    between atoms: O_3  and  C_4
REMARK    4  A    between atoms: C_9  and  N_10
REMARK    5  A    between atoms: N_13  and  C_14
REMARK    6  A    between atoms: N_13  and  C_38
REMARK    7  A    between atoms: C_14  and  C_15
REMARK    8  A    between atoms: C_29  and  C_31
REMARK    9  A    between atoms: C_35  and  C_37
REMARK                            x       y       z     vdW  Elec       q    Type
REMARK                         _______ _______ _______ _____ _____    ______ ____
ROOT
ATOM      1  C   UNL     1       2.943  -1.698  -7.650  0.00  0.00    +0.238 C 
ATOM      2  O   UNL     1       1.829  -1.245  -7.491  0.00  0.00    -0.273 OA
ATOM      3  N   UNL     1       3.284  -2.248  -8.832  0.00  0.00    -0.255 N 
ATOM      4  C   UNL     1       2.403  -2.174  -9.919  0.00  0.00    +0.061 A 
ATOM      5  C   UNL     1       1.522  -1.110 -10.040  0.00  0.00    +0.025 A 
ATOM      6  C   UNL     1       0.651  -1.055 -11.112  0.00  0.00    +0.002 A 
ATOM      7  C   UNL     1       0.650  -2.056 -12.066  0.00  0.00    +0.002 A 
ATOM      8  C   UNL     1       1.528  -3.120 -11.957  0.00  0.00    +0.028 A 
ATOM      9  C   UNL     1       2.405  -3.178 -10.892  0.00  0.00    +0.068 A 
ATOM     10  N   UNL     1       3.332  -4.222 -10.753  0.00  0.00    -0.316 N 
ATOM     11  C   UNL     1       3.408  -5.414 -11.392  0.00  0.00    +0.092 A 
ATOM     12  C   UNL     1       4.477  -6.085 -10.907  0.00  0.00    +0.020 A 
ATOM     13  C   UNL     1       5.085  -5.267  -9.928  0.00  0.00    +0.025 A 
ATOM     14  C   UNL     1       4.372  -4.138  -9.853  0.00  0.00    +0.049 A 
ATOM     15  C   UNL     1       4.586  -2.920  -8.981  0.00  0.00    +0.159 C 
ENDROOT
BRANCH  15  16
ATOM     16  C   UNL     1       5.571  -1.985  -9.634  0.00  0.00    -0.021 A 
ATOM     17  C   UNL     1       5.163  -1.161 -10.667  0.00  0.00    +0.006 A 
ATOM     18  C   UNL     1       6.067  -0.304 -11.266  0.00  0.00    +0.001 A 
ATOM     19  C   UNL     1       7.379  -0.270 -10.832  0.00  0.00    +0.003 A 
ATOM     20  C   UNL     1       7.787  -1.093  -9.799  0.00  0.00    -0.050 A 
ATOM     21  C   UNL     1       6.882  -1.947  -9.197  0.00  0.00    +0.009 A 
ATOM     22  C   UNL     1       9.218  -1.056  -9.327  0.00  0.00    +0.044 C 
ENDBRANCH  15  16
BRANCH   1  23
ATOM     23  C   UNL     1       3.945  -1.645  -6.526  0.00  0.00    +0.205 C 
BRANCH  23  27
ATOM     24  N   UNL     1       2.028  -1.352  -3.404  0.00  0.00    -0.266 N 
ATOM     25  C   UNL     1       2.697  -1.883  -4.446  0.00  0.00    +0.307 C 
ATOM     26  O   UNL     1       2.746  -3.090  -4.587  0.00  0.00    -0.252 OA
ATOM     27  N   UNL     1       3.312  -1.076  -5.333  0.00  0.00    -0.274 N 
ATOM     28  H   UNL     1       1.923  -0.390  -3.333  0.00  0.00    +0.156 HD
BRANCH  24  34
ATOM     29  C   UNL     1       1.344  -1.732  -1.112  0.00  0.00    +0.142 A 
ATOM     30  C   UNL     1       0.800  -2.563  -0.146  0.00  0.00    +0.047 A 
ATOM     31  C   UNL     1       0.404  -3.845  -0.479  0.00  0.00    +0.004 A 
ATOM     32  C   UNL     1       0.548  -4.302  -1.776  0.00  0.00    +0.002 A 
ATOM     33  C   UNL     1       1.089  -3.479  -2.746  0.00  0.00    +0.027 A 
ATOM     34  C   UNL     1       1.484  -2.190  -2.420  0.00  0.00    +0.077 A 
BRANCH  29  35
ATOM     35  O   UNL     1       1.734  -0.471  -0.786  0.00  0.00    -0.490 OA
BRANCH  35  37
ATOM     36  C   UNL     1       2.053   1.368   0.749  0.00  0.00    +0.048 C 
ATOM     37  C   UNL     1       1.561  -0.070   0.575  0.00  0.00    +0.226 C 
ENDBRANCH  35  37
ENDBRANCH  29  35
ENDBRANCH  24  34
BRANCH  27  38
ATOM     38  C   UNL     1       3.348   0.371  -5.106  0.00  0.00    +0.078 C 
ATOM     39  C   UNL     1       3.991   1.241  -6.187  0.00  0.00    +0.024 C 
ATOM     40  C   UNL     1       4.714   1.014  -4.857  0.00  0.00    +0.024 C 
ENDBRANCH  27  38
ENDBRANCH  23  27
ENDBRANCH   1  23
TORSDOF 7
