REMARK  Name = ZINC59309618
REMARK  9 active torsions:
REMARK  status: ('A' for Active; 'I' for Inactive)
REMARK    1  A    between atoms: C_4  and  C_7
REMARK    2  A    between atoms: C_7  and  O_8
REMARK    3  A    between atoms: O_8  and  C_9
REMARK    4  A    between atoms: C_12  and  C_15
REMARK    5  A    between atoms: N_16  and  N_17
REMARK    6  A    between atoms: C_20  and  S_23
REMARK    7  A    between atoms: S_23  and  C_24
REMARK    8  A    between atoms: C_24  and  C_25
REMARK    9  A    between atoms: N_27  and  C_28
REMARK                            x       y       z     vdW  Elec       q    Type
REMARK                         _______ _______ _______ _____ _____    ______ ____
ROOT
ATOM      1  N   UNL     1      10.626  -4.640   3.336  0.00  0.00    -0.205 N 
ATOM      2  C   UNL     1      11.102  -4.902   4.607  0.00  0.00    +0.232 A 
ATOM      3  N   UNL     1      10.512  -4.574   5.738  0.00  0.00    -0.186 NA
ATOM      4  C   UNL     1      11.257  -4.985   6.769  0.00  0.00    +0.211 A 
ATOM      5  N   UNL     1      12.331  -5.581   6.309  0.00  0.00    -0.144 NA
ATOM      6  N   UNL     1      12.251  -5.545   4.908  0.00  0.00    -0.245 N 
ATOM      7  H   UNL     1      11.132  -4.927   2.560  0.00  0.00    +0.177 HD
ATOM      8  H   UNL     1      12.895  -5.908   4.279  0.00  0.00    +0.192 HD
ENDROOT
BRANCH   1  10
ATOM      9  C   UNL     1       8.965  -3.715   1.975  0.00  0.00    +0.138 C 
ATOM     10  N   UNL     1       9.412  -3.961   3.169  0.00  0.00    -0.188 NA
BRANCH   9  14
ATOM     11  C   UNL     1       5.287  -1.656   1.469  0.00  0.00    +0.121 A 
ATOM     12  C   UNL     1       6.010  -2.065   0.356  0.00  0.00    +0.046 A 
ATOM     13  C   UNL     1       7.205  -2.734   0.515  0.00  0.00    +0.013 A 
ATOM     14  C   UNL     1       7.688  -2.999   1.799  0.00  0.00    -0.005 A 
ATOM     15  C   UNL     1       6.957  -2.586   2.916  0.00  0.00    +0.013 A 
ATOM     16  C   UNL     1       5.766  -1.913   2.747  0.00  0.00    +0.046 A 
BRANCH  11  17
ATOM     17  O   UNL     1       4.110  -0.997   1.307  0.00  0.00    -0.487 OA
BRANCH  17  18
ATOM     18  C   UNL     1       3.675  -0.765  -0.035  0.00  0.00    +0.264 C 
BRANCH  18  22
ATOM     19  C   UNL     1      -0.050   1.325   0.013  0.00  0.00    +0.000 A 
ATOM     20  C   UNL     1       1.139   2.031  -0.003  0.00  0.00    +0.000 A 
ATOM     21  C   UNL     1       2.344   1.355  -0.018  0.00  0.00    +0.007 A 
ATOM     22  C   UNL     1       2.361  -0.028  -0.017  0.00  0.00    -0.010 A 
ATOM     23  C   UNL     1       1.173  -0.733   0.000  0.00  0.00    +0.007 A 
ATOM     24  C   UNL     1      -0.033  -0.057   0.014  0.00  0.00    +0.000 A 
ENDBRANCH  18  22
ENDBRANCH  17  18
ENDBRANCH  11  17
ENDBRANCH   9  14
ENDBRANCH   1  10
BRANCH   4  25
ATOM     25  S   UNL     1      10.860  -4.762   8.472  0.00  0.00    -0.075 S 
BRANCH  25  26
ATOM     26  C   UNL     1      12.248  -5.531   9.350  0.00  0.00    +0.173 C 
BRANCH  26  27
ATOM     27  C   UNL     1      12.032  -5.408  10.837  0.00  0.00    +0.228 C 
ATOM     28  O   UNL     1      11.039  -4.856  11.261  0.00  0.00    -0.275 OA
ATOM     29  N   UNL     1      12.942  -5.912  11.694  0.00  0.00    -0.284 N 
ATOM     30  H   UNL     1      13.702  -6.410  11.357  0.00  0.00    +0.155 HD
BRANCH  29  31
ATOM     31  C   UNL     1      12.790  -5.716  13.068  0.00  0.00    +0.041 A 
ATOM     32  C   UNL     1      11.532  -5.693  13.632  0.00  0.00    +0.024 A 
ATOM     33  C   UNL     1      11.370  -5.498  15.000  0.00  0.00    +0.002 A 
ATOM     34  C   UNL     1      12.444  -5.326  15.819  0.00  0.00    +0.008 A 
ATOM     35  C   UNL     1      13.743  -5.344  15.283  0.00  0.00    -0.016 A 
ATOM     36  C   UNL     1      13.922  -5.546  13.893  0.00  0.00    +0.003 A 
ATOM     37  C   UNL     1      15.221  -5.568  13.360  0.00  0.00    +0.010 A 
ATOM     38  C   UNL     1      16.290  -5.400  14.186  0.00  0.00    +0.001 A 
ATOM     39  C   UNL     1      16.116  -5.207  15.555  0.00  0.00    +0.001 A 
ATOM     40  C   UNL     1      14.871  -5.169  16.104  0.00  0.00    +0.008 A 
ENDBRANCH  29  31
ENDBRANCH  26  27
ENDBRANCH  25  26
ENDBRANCH   4  25
TORSDOF 9
