REMARK  Name = ZINC13362588
REMARK  8 active torsions:
REMARK  status: ('A' for Active; 'I' for Inactive)
REMARK    1  A    between atoms: C_1  and  C_2
REMARK    2  A    between atoms: N_5  and  S_11
REMARK    3  A    between atoms: C_7  and  C_10
REMARK    4  A    between atoms: S_11  and  C_14
REMARK    5  A    between atoms: C_17  and  N_20
REMARK    6  A    between atoms: N_20  and  S_21
REMARK    7  A    between atoms: S_21  and  C_24
REMARK    8  A    between atoms: C_28  and  C_30
REMARK                            x       y       z     vdW  Elec       q    Type
REMARK                         _______ _______ _______ _____ _____    ______ ____
ROOT
ATOM      1  C   UNL     1       2.033   1.825  -0.024  0.00  0.00    +0.106 A 
ATOM      2  C   UNL     1       0.755   2.351   0.030  0.00  0.00    +0.030 A 
ATOM      3  C   UNL     1      -0.340   1.509   0.034  0.00  0.00    +0.026 A 
ATOM      4  C   UNL     1      -0.156   0.133  -0.015  0.00  0.00    +0.048 A 
ATOM      5  C   UNL     1       1.129  -0.392  -0.069  0.00  0.00    +0.026 A 
ATOM      6  C   UNL     1       2.219   0.456  -0.073  0.00  0.00    +0.030 A 
ENDROOT
BRANCH   1   7
ATOM      7  S   UNL     1       3.427   2.903  -0.030  0.00  0.00    +0.061 S 
ATOM      8  O   UNL     1       3.003   4.119   0.573  0.00  0.00    -0.153 OA
ATOM      9  O   UNL     1       4.525   2.150   0.466  0.00  0.00    -0.153 OA
BRANCH   7  13
ATOM     10  C   UNL     1       1.362   3.012  -3.326  0.00  0.00    +0.039 C 
ATOM     11  C   UNL     1       2.548   3.937  -3.607  0.00  0.00    +0.131 C 
ATOM     12  C   UNL     1       3.154   4.411  -2.281  0.00  0.00    +0.140 C 
ATOM     13  N   UNL     1       3.768   3.254  -1.612  0.00  0.00    -0.172 NA
ATOM     14  C   UNL     1       4.700   2.420  -2.388  0.00  0.00    +0.140 C 
ATOM     15  C   UNL     1       4.015   2.040  -3.711  0.00  0.00    +0.131 C 
ATOM     16  O   UNL     1       3.542   3.227  -4.351  0.00  0.00    -0.371 OA
ATOM     17  C   UNL     1       5.022   1.335  -4.621  0.00  0.00    +0.039 C 
ENDBRANCH   7  13
ENDBRANCH   1   7
BRANCH   4  18
ATOM     18  N   UNL     1      -1.261  -0.722  -0.010  0.00  0.00    -0.216 N 
ATOM     19  H   UNL     1      -1.805  -0.816  -0.808  0.00  0.00    +0.174 HD
BRANCH  18  20
ATOM     20  S   UNL     1      -1.643  -1.573   1.358  0.00  0.00    +0.072 S 
ATOM     21  O   UNL     1      -2.832  -2.296   1.068  0.00  0.00    -0.150 OA
ATOM     22  O   UNL     1      -0.448  -2.213   1.785  0.00  0.00    -0.150 OA
BRANCH  20  23
ATOM     23  C   UNL     1      -2.059  -0.399   2.604  0.00  0.00    +0.109 A 
ATOM     24  C   UNL     1      -1.065   0.137   3.406  0.00  0.00    +0.031 A 
ATOM     25  C   UNL     1      -1.380   1.063   4.382  0.00  0.00    +0.041 A 
ATOM     26  C   UNL     1      -2.694   1.453   4.572  0.00  0.00    +0.138 A 
ATOM     27  C   UNL     1      -3.702   0.910   3.768  0.00  0.00    +0.100 A 
ATOM     28  C   UNL     1      -3.373  -0.021   2.780  0.00  0.00    +0.046 A 
ATOM     29  F   UNL     1      -3.002   2.354   5.530  0.00  0.00    -0.205 F 
BRANCH  27  30
ATOM     30  C   UNL     1      -5.106   1.320   3.962  0.00  0.00    +0.389 C 
ATOM     31  O   UNL     1      -5.389   2.130   4.822  0.00  0.00    -0.240 OA
ATOM     32  O   UNL     1      -6.074   0.796   3.186  0.00  0.00    -0.240 OA
ENDBRANCH  27  30
ENDBRANCH  20  23
ENDBRANCH  18  20
ENDBRANCH   4  18
TORSDOF 6
