REMARK  Name = ZINC13678334
REMARK  5 active torsions:
REMARK  status: ('A' for Active; 'I' for Inactive)
REMARK    1  A    between atoms: C_1  and  C_2
REMARK    2  A    between atoms: C_7  and  N_8
REMARK    3  A    between atoms: C_9  and  C_11
REMARK    4  A    between atoms: N_14  and  S_22
REMARK    5  A    between atoms: S_22  and  C_25
REMARK                            x       y       z     vdW  Elec       q    Type
REMARK                         _______ _______ _______ _____ _____    ______ ____
ROOT
ATOM      1  C   UNL     1       2.432  -2.675  -0.462  0.00  0.00    +0.278 C 
ATOM      2  C   UNL     1       3.616  -2.058   0.295  0.00  0.00    +0.186 C 
ATOM      3  N   UNL     1       3.616  -0.611   0.020  0.00  0.00    -0.195 N 
ATOM      4  C   UNL     1       2.379   0.054   0.027  0.00  0.00    +0.093 A 
ATOM      5  C   UNL     1       2.336   1.438   0.059  0.00  0.00    +0.028 A 
ATOM      6  C   UNL     1       1.115   2.089   0.061  0.00  0.00    +0.002 A 
ATOM      7  C   UNL     1      -0.059   1.359   0.032  0.00  0.00    +0.004 A 
ATOM      8  C   UNL     1      -0.021  -0.022   0.002  0.00  0.00    +0.047 A 
ATOM      9  C   UNL     1       1.198  -0.683   0.000  0.00  0.00    +0.144 A 
ATOM     10  O   UNL     1       1.226  -2.042  -0.025  0.00  0.00    -0.476 OA
ENDROOT
BRANCH   1  12
ATOM     11  N   UNL     1       3.347  -4.970  -0.589  0.00  0.00    -0.282 N 
ATOM     12  C   UNL     1       2.360  -4.152  -0.171  0.00  0.00    +0.260 C 
ATOM     13  O   UNL     1       1.415  -4.605   0.439  0.00  0.00    -0.271 OA
ATOM     14  H   UNL     1       4.130  -4.600  -1.026  0.00  0.00    +0.155 HD
BRANCH  11  21
ATOM     15  C   UNL     1       4.779  -6.689  -2.346  0.00  0.00    +0.046 C 
ATOM     16  C   UNL     1       3.923  -7.227  -1.228  0.00  0.00    -0.028 A 
ATOM     17  C   UNL     1       3.817  -8.590  -1.032  0.00  0.00    +0.025 A 
ATOM     18  C   UNL     1       3.032  -9.084  -0.006  0.00  0.00    +0.041 A 
ATOM     19  C   UNL     1       2.350  -8.214   0.827  0.00  0.00    +0.022 A 
ATOM     20  C   UNL     1       2.458  -6.850   0.640  0.00  0.00    +0.025 A 
ATOM     21  C   UNL     1       3.241  -6.352  -0.393  0.00  0.00    +0.037 A 
ATOM     22 CL   UNL     1       2.901 -10.798   0.237  0.00  0.00    -0.084 Cl
ENDBRANCH  11  21
ENDBRANCH   1  12
BRANCH   3  23
ATOM     23  S   UNL     1       5.025   0.203  -0.286  0.00  0.00    +0.075 S 
ATOM     24  O   UNL     1       5.987  -0.775  -0.656  0.00  0.00    -0.150 OA
ATOM     25  O   UNL     1       4.687   1.296  -1.129  0.00  0.00    -0.150 OA
BRANCH  23  26
ATOM     26  C   UNL     1       5.570   0.894   1.240  0.00  0.00    +0.109 A 
ATOM     27  C   UNL     1       5.163   2.162   1.609  0.00  0.00    +0.030 A 
ATOM     28  C   UNL     1       5.586   2.702   2.809  0.00  0.00    +0.022 A 
ATOM     29  C   UNL     1       6.425   1.977   3.636  0.00  0.00    +0.041 A 
ATOM     30  C   UNL     1       6.837   0.710   3.264  0.00  0.00    +0.022 A 
ATOM     31  C   UNL     1       6.409   0.169   2.066  0.00  0.00    +0.030 A 
ATOM     32 CL   UNL     1       6.963   2.658   5.140  0.00  0.00    -0.084 Cl
ENDBRANCH  23  26
ENDBRANCH   3  23
TORSDOF 4
