REMARK  Name = ZINC34829985
REMARK  8 active torsions:
REMARK  status: ('A' for Active; 'I' for Inactive)
REMARK    1  A    between atoms: C_1  and  C_2
REMARK    2  A    between atoms: N_8  and  S_9
REMARK    3  A    between atoms: S_9  and  C_12
REMARK    4  A    between atoms: C_18  and  C_20
REMARK    5  A    between atoms: C_20  and  N_21
REMARK    6  A    between atoms: C_29  and  C_31
REMARK    7  A    between atoms: C_34  and  O_37
REMARK    8  A    between atoms: O_37  and  C_38
REMARK                            x       y       z     vdW  Elec       q    Type
REMARK                         _______ _______ _______ _____ _____    ______ ____
ROOT
ATOM      1  C   UNL     1       0.693  -4.082  -2.201  0.00  0.00    +0.020 C 
ENDROOT
BRANCH   1   2
ATOM      2  N   UNL     1      -0.009  -4.808  -3.268  0.00  0.00    +0.393 N 
ATOM      3  C   UNL     1       0.369  -4.240  -4.569  0.00  0.00    -0.072 C 
ATOM      4  C   UNL     1      -0.602  -4.765  -5.641  0.00  0.00    +0.024 C 
ATOM      5  C   UNL     1      -0.725  -6.242  -5.453  0.00  0.00    -0.010 A 
ATOM      6  C   UNL     1      -0.310  -6.957  -4.369  0.00  0.00    -0.047 A 
ATOM      7  C   UNL     1      -0.523  -8.332  -4.412  0.00  0.00    +0.010 A 
ATOM      8  C   UNL     1      -1.117  -8.891  -5.493  0.00  0.00    +0.045 A 
ATOM      9  S   UNL     1      -1.413  -7.466  -6.530  0.00  0.00    -0.101 S 
ATOM     10  C   UNL     1       0.343  -6.231  -3.197  0.00  0.00    -0.005 C 
ATOM     11  H   UNL     1      -1.005  -4.705  -3.138  0.00  0.00    -0.080 HD
BRANCH  10  12
ATOM     12  C   UNL     1      -0.159  -6.811  -1.899  0.00  0.00    -0.056 A 
ATOM     13  C   UNL     1      -1.400  -6.445  -1.414  0.00  0.00    +0.006 A 
ATOM     14  C   UNL     1      -1.862  -6.976  -0.225  0.00  0.00    +0.046 A 
ATOM     15  C   UNL     1      -1.079  -7.877   0.482  0.00  0.00    +0.120 A 
ATOM     16  C   UNL     1       0.167  -8.243  -0.008  0.00  0.00    +0.046 A 
ATOM     17  C   UNL     1       0.621  -7.714  -1.200  0.00  0.00    +0.006 A 
BRANCH  15  18
ATOM     18  O   UNL     1      -1.530  -8.400   1.652  0.00  0.00    -0.495 OA
ATOM     19  C   UNL     1      -0.671  -9.322   2.325  0.00  0.00    +0.277 C 
ENDBRANCH  15  18
ENDBRANCH  10  12
ENDBRANCH   1   2
BRANCH   1  27
ATOM     20  C   UNL     1      -0.378   1.469   0.268  0.00  0.00    +0.027 C 
ATOM     21  C   UNL     1      -0.178  -0.042   0.141  0.00  0.00    +0.094 C 
ATOM     22  C   UNL     1       0.326  -0.378  -1.268  0.00  0.00    +0.128 C 
ATOM     23  N   UNL     1       0.757  -1.783  -1.290  0.00  0.00    -0.300 N 
ATOM     24  C   UNL     1       1.758  -2.233  -0.313  0.00  0.00    +0.125 C 
ATOM     25  C   UNL     1       1.254  -1.897   1.096  0.00  0.00    +0.129 C 
ATOM     26  N   UNL     1       0.820  -0.492   1.121  0.00  0.00    -0.171 NA
ATOM     27  C   UNL     1       0.242  -2.644  -2.191  0.00  0.00    +0.199 C 
ATOM     28  O   UNL     1      -0.583  -2.261  -2.992  0.00  0.00    -0.278 OA
BRANCH  26  29
ATOM     29  S   UNL     1       1.450   0.565   2.229  0.00  0.00    +0.061 S 
ATOM     30  O   UNL     1       2.648  -0.023   2.716  0.00  0.00    -0.153 OA
ATOM     31  O   UNL     1       1.423   1.851   1.625  0.00  0.00    -0.153 OA
BRANCH  29  32
ATOM     32  C   UNL     1       0.330   0.624   3.588  0.00  0.00    +0.105 A 
ATOM     33  C   UNL     1      -0.702   1.544   3.594  0.00  0.00    +0.028 A 
ATOM     34  C   UNL     1      -1.581   1.590   4.660  0.00  0.00    +0.002 A 
ATOM     35  C   UNL     1      -1.428   0.716   5.720  0.00  0.00    +0.000 A 
ATOM     36  C   UNL     1      -0.397  -0.204   5.714  0.00  0.00    +0.002 A 
ATOM     37  C   UNL     1       0.479  -0.254   4.646  0.00  0.00    +0.028 A 
ENDBRANCH  29  32
ENDBRANCH  26  29
ENDBRANCH   1  27
TORSDOF 6
