REMARK  Name = ZINC20462732
REMARK  11 active torsions:
REMARK  status: ('A' for Active; 'I' for Inactive)
REMARK    1  A    between atoms: C_2  and  C_3
REMARK    2  A    between atoms: C_12  and  C_14
REMARK    3  A    between atoms: C_14  and  N_15
REMARK    4  A    between atoms: N_15  and  C_16
REMARK    5  A    between atoms: N_15  and  C_24
REMARK    6  A    between atoms: C_16  and  C_17
REMARK    7  A    between atoms: C_20  and  C_22
REMARK    8  A    between atoms: C_22  and  O_23
REMARK    9  A    between atoms: C_24  and  C_25
REMARK   10  A    between atoms: C_28  and  C_30
REMARK   11  A    between atoms: C_30  and  O_31
REMARK                            x       y       z     vdW  Elec       q    Type
REMARK                         _______ _______ _______ _____ _____    ______ ____
ROOT
ATOM      1  N   UNL     1      -0.040  -0.258  -1.446  0.00  0.00    +0.388 N 
ATOM      2  H   UNL     1       0.674   0.153  -2.175  0.00  0.00    -0.081 HD
ENDROOT
BRANCH   1   3
ATOM      3  C   UNL     1       0.250  -1.690  -1.287  0.00  0.00    -0.093 C 
BRANCH   3  11
ATOM      4  C   UNL     1       2.567  -3.271  -3.373  0.00  0.00    +0.050 C 
ATOM      5  C   UNL     1       2.225  -1.779  -3.347  0.00  0.00    -0.062 C 
ATOM      6  N   UNL     1       2.541  -1.230  -2.020  0.00  0.00    +0.381 N 
ATOM      7  C   UNL     1       3.977  -1.349  -1.730  0.00  0.00    -0.078 C 
ATOM      8  C   UNL     1       4.369  -2.829  -1.710  0.00  0.00    -0.014 C 
ATOM      9  C   UNL     1       3.124  -3.676  -2.002  0.00  0.00    -0.001 C 
ATOM     10  C   UNL     1       2.065  -3.373  -0.935  0.00  0.00    -0.013 C 
ATOM     11  C   UNL     1       1.736  -1.877  -0.976  0.00  0.00    -0.085 C 
ATOM     12  H   UNL     1       2.286  -0.160  -2.027  0.00  0.00    -0.081 HD
BRANCH   4  14
ATOM     13  C   UNL     1       0.383  -4.672  -3.892  0.00  0.00    +0.004 C 
ATOM     14  C   UNL     1       1.352  -4.050  -3.662  0.00  0.00    -0.104 C 
ENDBRANCH   4  14
ENDBRANCH   3  11
ENDBRANCH   1   3
BRANCH   1  15
ATOM     15  C   UNL     1       0.145   0.460  -0.178  0.00  0.00    -0.003 C 
BRANCH  15  16
ATOM     16  C   UNL     1       0.217   1.941  -0.446  0.00  0.00    +0.089 A 
ATOM     17  C   UNL     1      -0.811   2.806  -0.369  0.00  0.00    +0.043 A 
ATOM     18  C   UNL     1      -0.298   4.082  -0.695  0.00  0.00    +0.047 A 
ATOM     19  C   UNL     1       1.011   3.920  -0.960  0.00  0.00    +0.130 A 
ATOM     20  O   UNL     1       1.317   2.621  -0.807  0.00  0.00    -0.464 OA
BRANCH  19  21
ATOM     21  C   UNL     1       1.971   5.011  -1.359  0.00  0.00    +0.230 C 
BRANCH  21  22
ATOM     22  O   UNL     1       2.564   5.576  -0.188  0.00  0.00    -0.387 OA
ATOM     23  H   UNL     1       3.296   6.391  -0.281  0.00  0.00    +0.210 HD
ENDBRANCH  21  22
ENDBRANCH  19  21
ENDBRANCH  15  16
ENDBRANCH   1  15
BRANCH   1  24
ATOM     24  C   UNL     1      -1.395  -0.051  -1.976  0.00  0.00    -0.003 C 
BRANCH  24  25
ATOM     25  C   UNL     1      -1.435  -0.460  -3.426  0.00  0.00    +0.089 A 
ATOM     26  C   UNL     1      -1.821  -1.660  -3.894  0.00  0.00    +0.043 A 
ATOM     27  C   UNL     1      -1.705  -1.606  -5.303  0.00  0.00    +0.047 A 
ATOM     28  C   UNL     1      -1.248  -0.379  -5.609  0.00  0.00    +0.130 A 
ATOM     29  O   UNL     1      -1.086   0.311  -4.469  0.00  0.00    -0.464 OA
BRANCH  28  30
ATOM     30  C   UNL     1      -0.966   0.134  -6.998  0.00  0.00    +0.230 C 
BRANCH  30  31
ATOM     31  O   UNL     1      -2.105   0.848  -7.483  0.00  0.00    -0.387 OA
ATOM     32  H   UNL     1      -2.086   1.299  -8.486  0.00  0.00    +0.210 HD
ENDBRANCH  30  31
ENDBRANCH  28  30
ENDBRANCH  24  25
ENDBRANCH   1  24
TORSDOF 11
