REMARK  Name = ZINC19857310
REMARK  6 active torsions:
REMARK  status: ('A' for Active; 'I' for Inactive)
REMARK    1  A    between atoms: C_4  and  C_7
REMARK    2  A    between atoms: C_7  and  N_8
REMARK    3  A    between atoms: C_20  and  N_21
REMARK    4  A    between atoms: C_22  and  C_24
REMARK    5  A    between atoms: C_24  and  N_25
REMARK    6  A    between atoms: C_31  and  C_33
REMARK                            x       y       z     vdW  Elec       q    Type
REMARK                         _______ _______ _______ _____ _____    ______ ____
ROOT
ATOM      1  N   UNL     1       2.365  -1.022   2.149  0.00  0.00    -0.312 N 
ATOM      2  C   UNL     1       2.452  -0.093   3.278  0.00  0.00    +0.111 C 
ATOM      3  C   UNL     1       3.279  -0.828   4.345  0.00  0.00    +0.059 C 
ATOM      4  C   UNL     1       3.606  -2.162   3.714  0.00  0.00    +0.014 A 
ATOM      5  C   UNL     1       3.036  -2.202   2.440  0.00  0.00    +0.105 A 
ATOM      6  N   UNL     1       3.176  -3.280   1.676  0.00  0.00    -0.343 N 
ATOM      7  C   UNL     1       3.854  -4.356   2.085  0.00  0.00    +0.050 A 
ATOM      8  C   UNL     1       3.990  -5.484   1.257  0.00  0.00    +0.026 A 
ATOM      9  C   UNL     1       4.686  -6.568   1.699  0.00  0.00    +0.002 A 
ATOM     10  C   UNL     1       5.270  -6.579   2.962  0.00  0.00    +0.001 A 
ATOM     11  C   UNL     1       5.159  -5.503   3.792  0.00  0.00    +0.012 A 
ATOM     12  C   UNL     1       4.450  -4.372   3.368  0.00  0.00    +0.020 A 
ATOM     13  C   UNL     1       4.318  -3.230   4.194  0.00  0.00    +0.049 A 
ATOM     14  H   UNL     1       2.774  -3.286   0.793  0.00  0.00    +0.167 HD
ENDROOT
BRANCH  13  15
ATOM     15  N   UNL     1       4.884  -3.197   5.465  0.00  0.00    -0.284 N 
ATOM     16  C   UNL     1       5.892  -2.344   5.732  0.00  0.00    +0.231 C 
ATOM     17  O   UNL     1       6.244  -1.540   4.895  0.00  0.00    -0.274 OA
ATOM     18  H   UNL     1       4.553  -3.789   6.159  0.00  0.00    +0.155 HD
BRANCH  16  19
ATOM     19  C   UNL     1       6.583  -2.388   7.071  0.00  0.00    +0.180 C 
BRANCH  19  20
ATOM     20  N   UNL     1       7.637  -1.366   7.112  0.00  0.00    -0.291 NA
ATOM     21  C   UNL     1       8.704  -1.672   6.150  0.00  0.00    +0.104 C 
ATOM     22  C   UNL     1       9.688  -0.498   6.094  0.00  0.00    +0.123 C 
ATOM     23  N   UNL     1      10.147  -0.207   7.460  0.00  0.00    -0.293 N 
ATOM     24  C   UNL     1       9.134  -0.025   8.511  0.00  0.00    +0.123 C 
ATOM     25  C   UNL     1       8.172  -1.217   8.472  0.00  0.00    +0.104 C 
ATOM     26  C   UNL     1      11.461  -0.110   7.742  0.00  0.00    +0.282 C 
ATOM     27  O   UNL     1      12.284  -0.198   6.849  0.00  0.00    -0.267 OA
BRANCH  26  28
ATOM     28  C   UNL     1      11.901   0.101   9.126  0.00  0.00    +0.189 A 
ATOM     29  C   UNL     1      13.192   0.084   9.569  0.00  0.00    +0.054 A 
ATOM     30  C   UNL     1      13.148   0.332  10.950  0.00  0.00    +0.042 A 
ATOM     31  C   UNL     1      11.848   0.487  11.285  0.00  0.00    +0.196 A 
ATOM     32  O   UNL     1      11.100   0.352  10.182  0.00  0.00    -0.458 OA
ENDBRANCH  26  28
ENDBRANCH  19  20
ENDBRANCH  16  19
ENDBRANCH  13  15
BRANCH   1  33
ATOM     33  C   UNL     1       1.663  -0.747   0.893  0.00  0.00    +0.141 C 
BRANCH  33  37
ATOM     34  C   UNL     1      -2.401  -2.019   1.221  0.00  0.00    +0.000 A 
ATOM     35  C   UNL     1      -2.050  -0.730   1.577  0.00  0.00    +0.000 A 
ATOM     36  C   UNL     1      -0.734  -0.319   1.471  0.00  0.00    +0.005 A 
ATOM     37  C   UNL     1       0.229  -1.196   1.009  0.00  0.00    -0.030 A 
ATOM     38  C   UNL     1      -0.122  -2.485   0.655  0.00  0.00    +0.005 A 
ATOM     39  C   UNL     1      -1.438  -2.896   0.759  0.00  0.00    +0.000 A 
ENDBRANCH  33  37
ENDBRANCH   1  33
TORSDOF 6
