REMARK  Name = ZINC33936370
REMARK  13 active torsions:
REMARK  status: ('A' for Active; 'I' for Inactive)
REMARK    1  A    between atoms: C_1  and  C_2
REMARK    2  A    between atoms: C_2  and  O_3
REMARK    3  A    between atoms: O_3  and  C_4
REMARK    4  A    between atoms: C_4  and  C_6
REMARK    5  A    between atoms: C_7  and  C_35
REMARK    6  A    between atoms: C_11  and  C_13
REMARK    7  A    between atoms: C_16  and  C_19
REMARK    8  A    between atoms: C_19  and  O_21
REMARK    9  A    between atoms: O_21  and  C_22
REMARK   10  A    between atoms: C_25  and  C_31
REMARK   11  A    between atoms: C_27  and  C_30
REMARK   12  A    between atoms: C_31  and  O_33
REMARK   13  A    between atoms: O_33  and  C_34
REMARK                            x       y       z     vdW  Elec       q    Type
REMARK                         _______ _______ _______ _____ _____    ______ ____
ROOT
ATOM      1  C   UNL     1       1.428  -2.563  -2.268  0.00  0.00    +0.065 C 
ATOM      2  C   UNL     1       1.543  -3.894  -2.416  0.00  0.00    +0.016 C 
ATOM      3  N   UNL     1       2.220  -4.417  -3.483  0.00  0.00    -0.321 N 
ATOM      4  C   UNL     1       2.447  -3.662  -4.602  0.00  0.00    +0.016 C 
ATOM      5  C   UNL     1       2.367  -2.316  -4.549  0.00  0.00    +0.025 C 
ATOM      6  C   UNL     1       2.036  -1.614  -3.258  0.00  0.00    +0.092 C 
ATOM      7  C   UNL     1       2.583  -1.530  -5.696  0.00  0.00    +0.176 C 
ATOM      8  O   UNL     1       2.511  -0.320  -5.612  0.00  0.00    -0.291 OA
ATOM      9  C   UNL     1       2.900  -2.161  -7.024  0.00  0.00    +0.171 C 
ATOM     10  C   UNL     1       2.271  -3.557  -7.077  0.00  0.00    +0.013 C 
ATOM     11  C   UNL     1       2.792  -4.370  -5.890  0.00  0.00    +0.055 C 
ATOM     12  C   UNL     1       0.748  -3.438  -6.996  0.00  0.00    +0.009 C 
ATOM     13  C   UNL     1       0.921  -4.817  -1.400  0.00  0.00    +0.061 C 
ATOM     14  H   UNL     1       2.543  -5.330  -3.446  0.00  0.00    +0.152 HD
ENDROOT
BRANCH   6  15
ATOM     15  C   UNL     1       3.300  -1.035  -2.677  0.00  0.00    -0.035 A 
ATOM     16  C   UNL     1       4.345  -1.872  -2.330  0.00  0.00    +0.005 A 
ATOM     17  C   UNL     1       5.505  -1.348  -1.797  0.00  0.00    +0.015 A 
ATOM     18  C   UNL     1       5.623   0.030  -1.610  0.00  0.00    +0.059 A 
ATOM     19  C   UNL     1       4.564   0.870  -1.962  0.00  0.00    +0.015 A 
ATOM     20  C   UNL     1       3.412   0.333  -2.499  0.00  0.00    +0.005 A 
BRANCH  18  21
ATOM     21  C   UNL     1       6.862   0.598  -1.040  0.00  0.00    +0.339 C 
ATOM     22  O   UNL     1       7.781  -0.135  -0.733  0.00  0.00    -0.245 OA
BRANCH  21  23
ATOM     23  O   UNL     1       6.972   1.929  -0.860  0.00  0.00    -0.464 OA
ATOM     24  C   UNL     1       8.198   2.409  -0.304  0.00  0.00    +0.280 C 
ENDBRANCH  21  23
ENDBRANCH  18  21
ENDBRANCH   6  15
BRANCH   1  25
ATOM     25  C   UNL     1       0.716  -2.048  -1.159  0.00  0.00    +0.338 C 
ATOM     26  O   UNL     1       0.094  -2.800  -0.433  0.00  0.00    -0.245 OA
BRANCH  25  27
ATOM     27  O   UNL     1       0.727  -0.722  -0.908  0.00  0.00    -0.462 OA
BRANCH  27  29
ATOM     28  C   UNL     1       0.116   1.249   0.351  0.00  0.00    +0.048 C 
ATOM     29  C   UNL     1      -0.013  -0.271   0.228  0.00  0.00    +0.229 C 
ENDBRANCH  27  29
ENDBRANCH  25  27
ENDBRANCH   1  25
BRANCH   9  30
ATOM     30  C   UNL     1       2.338  -1.310  -8.133  0.00  0.00    +0.318 C 
ATOM     31  O   UNL     1       1.283  -0.741  -7.983  0.00  0.00    -0.250 OA
BRANCH  30  32
ATOM     32  O   UNL     1       3.009  -1.183  -9.289  0.00  0.00    -0.467 OA
ATOM     33  C   UNL     1       2.418  -0.361 -10.296  0.00  0.00    +0.280 C 
ENDBRANCH  30  32
ENDBRANCH   9  30
TORSDOF 8
