REMARK  Name = ZINC00705976
REMARK  4 active torsions:
REMARK  status: ('A' for Active; 'I' for Inactive)
REMARK    1  A    between atoms: C_1  and  C_2
REMARK    2  A    between atoms: C_9  and  C_17
REMARK    3  A    between atoms: C_11  and  C_15
REMARK    4  A    between atoms: C_12  and  N_14
REMARK                            x       y       z     vdW  Elec       q    Type
REMARK                         _______ _______ _______ _____ _____    ______ ____
ROOT
ATOM      1  C   UNL     1      -2.466   0.946   0.019  0.00  0.00    +0.086 C 
ATOM      2  C   UNL     1      -1.184   1.738   0.017  0.00  0.00    +0.110 A 
ATOM      3  C   UNL     1      -0.013   1.076   0.008  0.00  0.00    +0.088 A 
ATOM      4  C   UNL     1       1.199   1.805   0.000  0.00  0.00    +0.144 A 
ATOM      5  C   UNL     1       1.132   3.182   0.008  0.00  0.00    +0.092 A 
ATOM      6  C   UNL     1      -0.124   3.799   0.023  0.00  0.00    +0.345 A 
ATOM      7  O   UNL     1      -0.195   5.017   0.029  0.00  0.00    -0.245 OA
ATOM      8  O   UNL     1      -1.250   3.072   0.030  0.00  0.00    -0.427 OA
ATOM      9  C   UNL     1       2.387   4.011  -0.000  0.00  0.00    +0.106 C 
ATOM     10  C   UNL     1       3.570   3.163   0.377  0.00  0.00    +0.098 C 
ATOM     11  C   UNL     1       3.503   1.811   0.349  0.00  0.00    +0.199 C 
ATOM     12  O   UNL     1       2.382   1.161  -0.013  0.00  0.00    -0.441 OA
ENDROOT
BRANCH   9  13
ATOM     13  C   UNL     1       2.600   4.582  -1.379  0.00  0.00    -0.021 A 
ATOM     14  C   UNL     1       2.769   3.735  -2.458  0.00  0.00    +0.005 A 
ATOM     15  C   UNL     1       2.960   4.259  -3.723  0.00  0.00    +0.000 A 
ATOM     16  C   UNL     1       2.992   5.629  -3.908  0.00  0.00    +0.001 A 
ATOM     17  C   UNL     1       2.828   6.475  -2.828  0.00  0.00    +0.014 A 
ATOM     18  C   UNL     1       2.632   5.952  -1.562  0.00  0.00    +0.017 A 
ATOM     19  I   UNL     1       2.382   7.235   0.075  0.00  0.00    -0.044 I 
ENDBRANCH   9  13
BRANCH  11  20
ATOM     20  N   UNL     1       4.611   1.082   0.701  0.00  0.00    -0.328 N 
ATOM     21  H   UNL     1       4.579   0.113   0.687  0.00  0.00    +0.145 HD
ATOM     22  H   UNL     1       5.427   1.536   0.965  0.00  0.00    +0.145 HD
ENDBRANCH  11  20
BRANCH  10  23
ATOM     23  C   UNL     1       4.790   3.797   0.773  0.00  0.00    +0.101 C 
ATOM     24  N   UNL     1       5.759   4.300   1.088  0.00  0.00    -0.191 NA
ENDBRANCH  10  23
TORSDOF 3
