REMARK  Name = ZINC35453926
REMARK  5 active torsions:
REMARK  status: ('A' for Active; 'I' for Inactive)
REMARK    1  A    between atoms: C_4  and  C_7
REMARK    2  A    between atoms: C_7  and  C_8
REMARK    3  A    between atoms: N_11  and  C_14
REMARK    4  A    between atoms: C_19  and  S_20
REMARK    5  A    between atoms: S_20  and  N_23
REMARK                            x       y       z     vdW  Elec       q    Type
REMARK                         _______ _______ _______ _____ _____    ______ ____
ROOT
ATOM      1  C   UNL     1       5.240  -3.780   4.244  0.00  0.00    +0.060 A 
ATOM      2  C   UNL     1       5.073  -5.005   3.608  0.00  0.00    +0.072 A 
ATOM      3  C   UNL     1       5.476  -6.172   4.232  0.00  0.00    +0.142 A 
ATOM      4  C   UNL     1       6.028  -6.119   5.520  0.00  0.00    +0.081 A 
ATOM      5  C   UNL     1       6.209  -4.879   6.145  0.00  0.00    +0.047 A 
ATOM      6  C   UNL     1       5.822  -3.723   5.509  0.00  0.00    +0.127 A 
ATOM      7  C   UNL     1       6.389  -7.350   6.230  0.00  0.00    +0.252 C 
ATOM      8  O   UNL     1       6.171  -7.392   7.426  0.00  0.00    -0.270 OA
ATOM      9  N   UNL     1       6.933  -8.421   5.669  0.00  0.00    -0.278 N 
ATOM     10  C   UNL     1       7.279  -8.560   4.326  0.00  0.00    +0.076 A 
ATOM     11  C   UNL     1       8.461  -9.218   4.000  0.00  0.00    +0.027 A 
ATOM     12  C   UNL     1       8.817  -9.396   2.678  0.00  0.00    +0.002 A 
ATOM     13  C   UNL     1       7.999  -8.921   1.670  0.00  0.00    +0.004 A 
ATOM     14  C   UNL     1       6.828  -8.258   1.985  0.00  0.00    +0.048 A 
ATOM     15  C   UNL     1       6.470  -8.065   3.312  0.00  0.00    +0.150 A 
ATOM     16  O   UNL     1       5.347  -7.356   3.591  0.00  0.00    -0.453 OA
ATOM     17  H   UNL     1       7.108  -9.179   6.248  0.00  0.00    +0.155 HD
ENDROOT
BRANCH   1  21
ATOM     18  C   UNL     1       3.816  -0.964   1.551  0.00  0.00    -0.004 C 
ATOM     19  C   UNL     1       2.892  -1.927   2.300  0.00  0.00    +0.023 C 
ATOM     20  C   UNL     1       3.437  -2.156   3.713  0.00  0.00    +0.105 C 
ATOM     21  N   UNL     1       4.830  -2.610   3.615  0.00  0.00    -0.328 N 
ATOM     22  C   UNL     1       5.784  -1.803   2.841  0.00  0.00    +0.105 C 
ATOM     23  C   UNL     1       5.213  -1.578   1.437  0.00  0.00    +0.023 C 
BRANCH  18  24
ATOM     24  C   UNL     1       3.256  -0.706   0.151  0.00  0.00    +0.038 C 
BRANCH  24  28
ATOM     25  C   UNL     1      -0.488   1.326   0.462  0.00  0.00    +0.000 A 
ATOM     26  C   UNL     1       0.686   2.050   0.380  0.00  0.00    +0.000 A 
ATOM     27  C   UNL     1       1.898   1.393   0.279  0.00  0.00    +0.003 A 
ATOM     28  C   UNL     1       1.935   0.011   0.261  0.00  0.00    -0.047 A 
ATOM     29  C   UNL     1       0.761  -0.713   0.345  0.00  0.00    +0.003 A 
ATOM     30  C   UNL     1      -0.451  -0.056   0.444  0.00  0.00    +0.000 A 
ENDBRANCH  24  28
ENDBRANCH  18  24
ENDBRANCH   1  21
BRANCH   6  31
ATOM     31  S   UNL     1       6.057  -2.166   6.298  0.00  0.00    +0.063 S 
ATOM     32  O   UNL     1       7.239  -1.603   5.744  0.00  0.00    -0.153 OA
ATOM     33  O   UNL     1       4.804  -1.497   6.258  0.00  0.00    -0.153 OA
BRANCH  31  34
ATOM     34  N   UNL     1       6.381  -2.469   7.894  0.00  0.00    -0.177 NA
ATOM     35  C   UNL     1       5.288  -2.696   8.849  0.00  0.00    +0.109 C 
ATOM     36  C   UNL     1       5.536  -4.021   9.576  0.00  0.00    +0.017 C 
ATOM     37  C   UNL     1       6.929  -3.999  10.209  0.00  0.00    +0.003 C 
ATOM     38  C   UNL     1       7.987  -3.844   9.113  0.00  0.00    +0.017 C 
ATOM     39  C   UNL     1       7.766  -2.522   8.379  0.00  0.00    +0.109 C 
ENDBRANCH  31  34
ENDBRANCH   6  31
TORSDOF 5
