REMARK  Name = ZINC35469090
REMARK  8 active torsions:
REMARK  status: ('A' for Active; 'I' for Inactive)
REMARK    1  A    between atoms: C_1  and  C_2
REMARK    2  A    between atoms: C_2  and  C_3
REMARK    3  A    between atoms: C_3  and  C_5
REMARK    4  A    between atoms: C_3  and  C_6
REMARK    5  A    between atoms: C_9  and  C_12
REMARK    6  A    between atoms: C_12  and  C_14
REMARK    7  A    between atoms: C_12  and  N_21
REMARK    8  A    between atoms: N_21  and  C_22
REMARK                            x       y       z     vdW  Elec       q    Type
REMARK                         _______ _______ _______ _____ _____    ______ ____
ROOT
ATOM      1  C   UNL     1       0.387  -6.260  -1.528  0.00  0.00    -0.009 C 
ENDROOT
BRANCH   1   2
ATOM      2  C   UNL     1       1.467  -6.782  -2.440  0.00  0.00    -0.044 A 
ATOM      3  C   UNL     1       1.188  -7.028  -3.772  0.00  0.00    +0.003 A 
ATOM      4  C   UNL     1       2.179  -7.506  -4.609  0.00  0.00    +0.000 A 
ATOM      5  C   UNL     1       3.449  -7.740  -4.114  0.00  0.00    +0.001 A 
ATOM      6  C   UNL     1       3.728  -7.495  -2.783  0.00  0.00    +0.014 A 
ATOM      7  C   UNL     1       2.738  -7.011  -1.947  0.00  0.00    +0.015 A 
ATOM      8  I   UNL     1       3.163  -6.631   0.069  0.00  0.00    -0.044 I 
ENDBRANCH   1   2
BRANCH   1  12
ATOM      9  C   UNL     1       0.632  -2.000  -1.327  0.00  0.00    -0.045 A 
ATOM     10  C   UNL     1       1.163  -2.772  -0.311  0.00  0.00    +0.004 A 
ATOM     11  C   UNL     1       1.084  -4.150  -0.376  0.00  0.00    +0.002 A 
ATOM     12  C   UNL     1       0.472  -4.757  -1.457  0.00  0.00    -0.057 A 
ATOM     13  C   UNL     1      -0.060  -3.986  -2.473  0.00  0.00    +0.002 A 
ATOM     14  C   UNL     1       0.016  -2.607  -2.406  0.00  0.00    +0.004 A 
BRANCH   9  15
ATOM     15  C   UNL     1       0.718  -0.497  -1.257  0.00  0.00    +0.016 C 
ATOM     16  C   UNL     1       2.187  -0.073  -1.207  0.00  0.00    +0.012 C 
BRANCH  15  18
ATOM     17  C   UNL     1      -0.019   1.526   0.010  0.00  0.00    +0.004 C 
ATOM     18  C   UNL     1       0.002  -0.004   0.002  0.00  0.00    +0.004 C 
ENDBRANCH  15  18
ENDBRANCH   9  15
ENDBRANCH   1  12
BRANCH   1  19
ATOM     19  N   UNL     1      -0.928  -6.652  -2.053  0.00  0.00    +0.384 N 
ATOM     20  C   UNL     1      -1.057  -8.114  -2.010  0.00  0.00    -0.099 C 
ATOM     21  H   UNL     1      -1.653  -6.233  -1.489  0.00  0.00    -0.085 HD
ATOM     22  H   UNL     1      -1.018  -6.333  -3.006  0.00  0.00    -0.085 HD
ENDBRANCH   1  19
TORSDOF 5
