REMARK  Name = ZINC06883958
REMARK  9 active torsions:
REMARK  status: ('A' for Active; 'I' for Inactive)
REMARK    1  A    between atoms: C_1  and  C_2
REMARK    2  A    between atoms: C_2  and  C_3
REMARK    3  A    between atoms: C_2  and  N_4
REMARK    4  A    between atoms: C_5  and  C_7
REMARK    5  A    between atoms: C_7  and  C_17
REMARK    6  A    between atoms: C_10  and  C_14
REMARK    7  A    between atoms: C_10  and  C_15
REMARK    8  A    between atoms: C_11  and  C_12
REMARK    9  A    between atoms: C_11  and  C_13
REMARK                            x       y       z     vdW  Elec       q    Type
REMARK                         _______ _______ _______ _____ _____    ______ ____
ROOT
ATOM      1  C   UNL     1      -1.918   5.181   1.425  0.00  0.00    +0.050 C 
ATOM      2  C   UNL     1      -2.608   5.696   0.138  0.00  0.00    +0.017 C 
ATOM      3  C   UNL     1      -4.111   5.488   0.449  0.00  0.00    +0.019 C 
ATOM      4  C   UNL     1      -4.240   5.845   1.944  0.00  0.00    +0.075 C 
ATOM      5  C   UNL     1      -2.846   5.650   2.565  0.00  0.00    -0.006 C 
ATOM      6  C   UNL     1      -2.905   4.586   3.663  0.00  0.00    +0.013 C 
ATOM      7  C   UNL     1      -2.340   6.973   3.143  0.00  0.00    +0.013 C 
ATOM      8  C   UNL     1      -5.251   4.915   2.619  0.00  0.00    +0.023 C 
ATOM      9  C   UNL     1      -0.528   5.803   1.573  0.00  0.00    +0.021 C 
ENDROOT
BRANCH   1  11
ATOM     10  N   UNL     1      -1.136   3.034   2.373  0.00  0.00    -0.313 N 
ATOM     11  C   UNL     1      -1.822   3.677   1.408  0.00  0.00    +0.220 C 
ATOM     12  O   UNL     1      -2.363   3.046   0.524  0.00  0.00    -0.275 OA
ATOM     13  H   UNL     1      -0.661   3.541   3.050  0.00  0.00    +0.149 HD
BRANCH  10  15
ATOM     14  C   UNL     1       0.153   1.097   3.126  0.00  0.00    +0.027 C 
ATOM     15  C   UNL     1      -1.109   1.570   2.401  0.00  0.00    +0.067 C 
ATOM     16  C   UNL     1      -2.345   1.050   3.137  0.00  0.00    +0.027 C 
ENDBRANCH  10  15
ENDBRANCH   1  11
BRANCH   4  17
ATOM     17  C   UNL     1      -4.677   7.279   2.097  0.00  0.00    +0.362 C 
ATOM     18  O   UNL     1      -4.733   8.000   1.129  0.00  0.00    -0.246 OA
ATOM     19  O   UNL     1      -5.005   7.756   3.308  0.00  0.00    -0.246 OA
ENDBRANCH   4  17
TORSDOF 3
