REMARK  Name = ZINC38141318
REMARK  16 active torsions:
REMARK  status: ('A' for Active; 'I' for Inactive)
REMARK    1  A    between atoms: C_1  and  C_2
REMARK    2  A    between atoms: C_2  and  C_4
REMARK    3  A    between atoms: C_2  and  N_12
REMARK    4  A    between atoms: C_7  and  O_10
REMARK    5  A    between atoms: O_10  and  C_11
REMARK    6  A    between atoms: N_12  and  C_13
REMARK    7  A    between atoms: C_13  and  C_14
REMARK    8  A    between atoms: C_14  and  C_15
REMARK    9  A    between atoms: C_15  and  C_17
REMARK   10  A    between atoms: C_15  and  C_27
REMARK   11  A    between atoms: C_20  and  O_23
REMARK   12  A    between atoms: O_23  and  C_24
REMARK   13  A    between atoms: C_24  and  C_25
REMARK   14  A    between atoms: C_24  and  C_26
REMARK   15  A    between atoms: C_32  and  O_33
REMARK   16  A    between atoms: O_33  and  C_34
REMARK                            x       y       z     vdW  Elec       q    Type
REMARK                         _______ _______ _______ _____ _____    ______ ____
ROOT
ATOM      1  C   UNL     1      -0.188   0.496  -5.245  0.00  0.00    +0.051 C 
ENDROOT
BRANCH   1   2
ATOM      2  C   UNL     1       0.235  -0.026  -6.594  0.00  0.00    -0.040 A 
ATOM      3  C   UNL     1       1.568   0.006  -6.959  0.00  0.00    +0.008 A 
ATOM      4  C   UNL     1       1.959  -0.472  -8.195  0.00  0.00    +0.046 A 
ATOM      5  C   UNL     1       1.012  -0.984  -9.071  0.00  0.00    +0.121 A 
ATOM      6  C   UNL     1      -0.325  -1.015  -8.702  0.00  0.00    +0.046 A 
ATOM      7  C   UNL     1      -0.710  -0.541  -7.462  0.00  0.00    +0.008 A 
BRANCH   5   8
ATOM      8  O   UNL     1       1.393  -1.454 -10.287  0.00  0.00    -0.489 OA
BRANCH   8   9
ATOM      9  C   UNL     1       2.796  -1.500 -10.554  0.00  0.00    +0.167 C 
ATOM     10  C   UNL     1       3.083  -2.591 -11.588  0.00  0.00    +0.051 C 
ATOM     11  C   UNL     1       3.256  -0.146 -11.100  0.00  0.00    +0.051 C 
ENDBRANCH   8   9
ENDBRANCH   5   8
ENDBRANCH   1   2
BRANCH   1  12
ATOM     12  C   UNL     1      -0.016   1.993  -5.209  0.00  0.00    +0.002 A 
ATOM     13  C   UNL     1       1.249   2.545  -5.279  0.00  0.00    +0.008 A 
ATOM     14  C   UNL     1       1.407   3.918  -5.246  0.00  0.00    +0.001 A 
ATOM     15  C   UNL     1       0.302   4.742  -5.143  0.00  0.00    +0.004 A 
ATOM     16  C   UNL     1      -0.965   4.195  -5.073  0.00  0.00    +0.046 A 
ATOM     17  C   UNL     1      -1.127   2.817  -5.111  0.00  0.00    +0.124 A 
BRANCH  17  18
ATOM     18  O   UNL     1      -2.372   2.276  -5.048  0.00  0.00    -0.495 OA
ATOM     19  C   UNL     1      -3.470   3.186  -4.948  0.00  0.00    +0.277 C 
ENDBRANCH  17  18
ENDBRANCH   1  12
BRANCH   1  20
ATOM     20  C   UNL     1       0.677  -0.143  -4.157  0.00  0.00    -0.006 C 
BRANCH  20  21
ATOM     21  C   UNL     1       0.167   0.290  -2.781  0.00  0.00    -0.081 C 
BRANCH  21  22
ATOM     22  N   UNL     1       0.998  -0.324  -1.736  0.00  0.00    +0.383 N 
ATOM     23  H   UNL     1       1.955  -0.026  -1.849  0.00  0.00    -0.085 HD
ATOM     24  H   UNL     1       0.947  -1.329  -1.812  0.00  0.00    -0.085 HD
BRANCH  22  26
ATOM     25  C   UNL     1       0.702   1.601  -0.251  0.00  0.00    -0.009 C 
ATOM     26  C   UNL     1       0.508   0.092  -0.415  0.00  0.00    -0.044 C 
BRANCH  26  27
ATOM     27  C   UNL     1       1.280  -0.632   0.658  0.00  0.00    -0.061 A 
ATOM     28  C   UNL     1       2.643  -0.821   0.519  0.00  0.00    +0.005 A 
ATOM     29  C   UNL     1       3.353  -1.485   1.501  0.00  0.00    +0.046 A 
ATOM     30  C   UNL     1       2.698  -1.963   2.626  0.00  0.00    +0.120 A 
ATOM     31  C   UNL     1       1.330  -1.772   2.763  0.00  0.00    +0.046 A 
ATOM     32  C   UNL     1       0.626  -1.103   1.781  0.00  0.00    +0.005 A 
BRANCH  30  33
ATOM     33  O   UNL     1       3.394  -2.617   3.593  0.00  0.00    -0.495 OA
ATOM     34  C   UNL     1       2.654  -3.081   4.724  0.00  0.00    +0.277 C 
ENDBRANCH  30  33
ENDBRANCH  26  27
ENDBRANCH  22  26
ENDBRANCH  21  22
ENDBRANCH  20  21
ENDBRANCH   1  20
TORSDOF 11
