REMARK  Name = ZINC36202373
REMARK  15 active torsions:
REMARK  status: ('A' for Active; 'I' for Inactive)
REMARK    1  A    between atoms: C_1  and  C_2
REMARK    2  A    between atoms: C_2  and  C_3
REMARK    3  A    between atoms: C_2  and  N_4
REMARK    4  A    between atoms: N_4  and  C_5
REMARK    5  A    between atoms: N_4  and  C_16
REMARK    6  A    between atoms: C_5  and  C_6
REMARK    7  A    between atoms: C_10  and  O_14
REMARK    8  A    between atoms: C_11  and  O_12
REMARK    9  A    between atoms: O_12  and  C_13
REMARK   10  A    between atoms: O_14  and  C_15
REMARK   11  A    between atoms: C_16  and  C_17
REMARK   12  A    between atoms: C_20  and  C_22
REMARK   13  A    between atoms: C_22  and  C_23
REMARK   14  A    between atoms: C_22  and  C_28
REMARK   15  A    between atoms: C_22  and  O_33
REMARK                            x       y       z     vdW  Elec       q    Type
REMARK                         _______ _______ _______ _____ _____    ______ ____
ROOT
ATOM      1  C   UNL     1      -3.592   1.307  -0.550  0.00  0.00    +0.089 A 
ATOM      2  C   UNL     1      -3.102   2.557  -0.632  0.00  0.00    +0.043 A 
ATOM      3  C   UNL     1      -4.039   3.406   0.000  0.00  0.00    +0.048 A 
ATOM      4  C   UNL     1      -5.045   2.625   0.431  0.00  0.00    +0.147 A 
ATOM      5  O   UNL     1      -4.772   1.355   0.090  0.00  0.00    -0.463 OA
ENDROOT
BRANCH   1   6
ATOM      6  C   UNL     1      -2.932   0.065  -1.090  0.00  0.00    -0.002 C 
BRANCH   6   7
ATOM      7  N   UNL     1      -2.170  -0.590  -0.019  0.00  0.00    +0.389 N 
ATOM      8  H   UNL     1      -2.770  -0.738   0.779  0.00  0.00    -0.080 HD
BRANCH   7  10
ATOM      9  C   UNL     1      -0.377  -0.309   1.625  0.00  0.00    -0.013 C 
ATOM     10  C   UNL     1      -1.040   0.263   0.370  0.00  0.00    -0.074 C 
ATOM     11  C   UNL     1      -0.020   0.310  -0.769  0.00  0.00    -0.013 C 
ENDBRANCH   7  10
BRANCH   7  12
ATOM     12  C   UNL     1      -1.665  -1.884  -0.498  0.00  0.00    -0.038 C 
BRANCH  12  13
ATOM     13  C   UNL     1      -1.124  -2.674   0.666  0.00  0.00    -0.019 A 
ATOM     14  C   UNL     1       0.151  -3.207   0.607  0.00  0.00    +0.005 A 
ATOM     15  C   UNL     1       0.650  -3.932   1.673  0.00  0.00    +0.004 A 
ATOM     16  C   UNL     1      -0.124  -4.128   2.802  0.00  0.00    +0.049 A 
ATOM     17  C   UNL     1      -1.401  -3.597   2.868  0.00  0.00    +0.162 A 
ATOM     18  C   UNL     1      -1.901  -2.861   1.797  0.00  0.00    +0.163 A 
BRANCH  18  19
ATOM     19  O   UNL     1      -3.153  -2.333   1.859  0.00  0.00    -0.491 OA
ATOM     20  C   UNL     1      -4.226  -3.149   1.384  0.00  0.00    +0.277 C 
ENDBRANCH  18  19
BRANCH  17  21
ATOM     21  O   UNL     1      -2.163  -3.788   3.978  0.00  0.00    -0.491 OA
ATOM     22  C   UNL     1      -1.582  -4.548   5.040  0.00  0.00    +0.277 C 
ENDBRANCH  17  21
ENDBRANCH  12  13
ENDBRANCH   7  12
ENDBRANCH   6   7
ENDBRANCH   1   6
BRANCH   4  23
ATOM     23  C   UNL     1      -6.274   3.095   1.167  0.00  0.00    +0.186 C 
BRANCH  23  24
ATOM     24  C   UNL     1      -7.431   2.184   0.845  0.00  0.00    +0.034 A 
ATOM     25  C   UNL     1      -8.754   2.473   0.790  0.00  0.00    +0.015 A 
ATOM     26  C   UNL     1      -9.647   1.467   0.470  0.00  0.00    +0.008 A 
ATOM     27  C   UNL     1      -9.172   0.222   0.221  0.00  0.00    +0.045 A 
ATOM     28  S   UNL     1      -7.414   0.448   0.431  0.00  0.00    -0.098 S 
ENDBRANCH  23  24
BRANCH  23  29
ATOM     29  C   UNL     1      -6.011   3.069   2.651  0.00  0.00    +0.034 A 
ATOM     30  C   UNL     1      -6.535   3.853   3.624  0.00  0.00    +0.015 A 
ATOM     31  C   UNL     1      -6.145   3.647   4.934  0.00  0.00    +0.008 A 
ATOM     32  C   UNL     1      -5.250   2.666   5.206  0.00  0.00    +0.045 A 
ATOM     33  S   UNL     1      -4.936   1.992   3.583  0.00  0.00    -0.098 S 
ENDBRANCH  23  29
BRANCH  23  34
ATOM     34  O   UNL     1      -6.590   4.428   0.762  0.00  0.00    -0.371 OA
ATOM     35  H   UNL     1      -6.771   4.520  -0.183  0.00  0.00    +0.212 HD
ENDBRANCH  23  34
ENDBRANCH   4  23
TORSDOF 11
