REMARK  Name = ZINC35544639
REMARK  5 active torsions:
REMARK  status: ('A' for Active; 'I' for Inactive)
REMARK    1  A    between atoms: C_5  and  C_7
REMARK    2  A    between atoms: C_7  and  N_8
REMARK    3  A    between atoms: C_9  and  C_11
REMARK    4  A    between atoms: C_16  and  N_34
REMARK    5  A    between atoms: N_24  and  C_27
REMARK                            x       y       z     vdW  Elec       q    Type
REMARK                         _______ _______ _______ _____ _____    ______ ____
ROOT
ATOM      1  C   UNL     1       1.843  -4.499   2.957  0.00  0.00    +0.101 C 
ATOM      2  C   UNL     1       0.741  -3.996   3.888  0.00  0.00    +0.051 C 
ATOM      3  C   UNL     1       0.962  -4.584   5.258  0.00  0.00    -0.023 A 
ATOM      4  C   UNL     1       0.540  -3.887   6.376  0.00  0.00    +0.038 A 
ATOM      5  C   UNL     1       0.747  -4.412   7.638  0.00  0.00    +0.127 A 
ATOM      6  C   UNL     1       1.377  -5.635   7.785  0.00  0.00    +0.034 A 
ATOM      7  C   UNL     1       1.795  -6.336   6.672  0.00  0.00    +0.025 A 
ATOM      8  C   UNL     1       1.583  -5.811   5.400  0.00  0.00    +0.033 A 
ATOM      9  N   UNL     1       1.997  -6.561   4.285  0.00  0.00    -0.323 N 
ATOM     10  C   UNL     1       1.854  -6.030   2.941  0.00  0.00    +0.103 C 
ATOM     11  C   UNL     1       2.948  -6.491   1.992  0.00  0.00    +0.128 C 
ATOM     12  N   UNL     1       3.428  -7.827   2.285  0.00  0.00    -0.327 N 
ATOM     13  C   UNL     1       3.648  -8.299   3.642  0.00  0.00    +0.124 C 
ATOM     14  C   UNL     1       2.514  -7.902   4.558  0.00  0.00    +0.124 C 
ENDROOT
BRANCH  12  15
ATOM     15  C   UNL     1       3.688  -8.695   1.222  0.00  0.00    +0.031 A 
ATOM     16  C   UNL     1       3.381  -8.315  -0.078  0.00  0.00    +0.023 A 
ATOM     17  C   UNL     1       3.641  -9.175  -1.127  0.00  0.00    +0.003 A 
ATOM     18  C   UNL     1       4.205 -10.414  -0.884  0.00  0.00    +0.020 A 
ATOM     19  C   UNL     1       4.511 -10.796   0.410  0.00  0.00    +0.043 A 
ATOM     20  C   UNL     1       4.260  -9.938   1.463  0.00  0.00    +0.043 A 
ATOM     21 CL   UNL     1       5.219 -12.353   0.709  0.00  0.00    -0.083 Cl
ENDBRANCH  12  15
BRANCH   1  23
ATOM     22  N   UNL     1       1.542  -2.659   1.330  0.00  0.00    -0.311 N 
ATOM     23  C   UNL     1       1.591  -3.986   1.562  0.00  0.00    +0.219 C 
ATOM     24  O   UNL     1       1.432  -4.768   0.648  0.00  0.00    -0.275 OA
ATOM     25  H   UNL     1       1.669  -2.034   2.061  0.00  0.00    +0.149 HD
BRANCH  22  26
ATOM     26  C   UNL     1       1.297  -2.161  -0.025  0.00  0.00    +0.142 C 
BRANCH  26  31
ATOM     27  C   UNL     1       0.085   1.414   0.005  0.00  0.00    +0.000 A 
ATOM     28  C   UNL     1       1.279   2.112   0.008  0.00  0.00    +0.003 A 
ATOM     29  C   UNL     1       2.479   1.428   0.000  0.00  0.00    +0.038 A 
ATOM     30  C   UNL     1       2.487   0.043  -0.010  0.00  0.00    +0.128 A 
ATOM     31  C   UNL     1       1.291  -0.654  -0.013  0.00  0.00    +0.005 A 
ATOM     32  C   UNL     1       0.091   0.032  -0.006  0.00  0.00    +0.008 A 
ATOM     33  F   UNL     1       3.660  -0.626  -0.018  0.00  0.00    -0.205 F 
ENDBRANCH  26  31
ENDBRANCH  22  26
ENDBRANCH   1  23
BRANCH   5  34
ATOM     34  N   UNL     1       0.295  -3.666   8.833  0.00  0.00    +0.056 N 
ATOM     35  O   UNL     1      -0.256  -2.597   8.705  0.00  0.00    -0.126 OA
ATOM     36  O   UNL     1       0.476  -4.125   9.937  0.00  0.00    -0.126 OA
ENDBRANCH   5  34
TORSDOF 5
