REMARK  Name = ZINC36344089
REMARK  12 active torsions:
REMARK  status: ('A' for Active; 'I' for Inactive)
REMARK    1  A    between atoms: C_1  and  C_2
REMARK    2  A    between atoms: C_2  and  O_3
REMARK    3  A    between atoms: O_3  and  C_4
REMARK    4  A    between atoms: C_7  and  C_10
REMARK    5  A    between atoms: C_13  and  C_30
REMARK    6  A    between atoms: C_16  and  C_18
REMARK    7  A    between atoms: C_18  and  N_19
REMARK    8  A    between atoms: C_22  and  C_25
REMARK    9  A    between atoms: C_25  and  O_27
REMARK   10  A    between atoms: O_27  and  C_28
REMARK   11  A    between atoms: C_28  and  C_29
REMARK   12  A    between atoms: C_33  and  C_36
REMARK                            x       y       z     vdW  Elec       q    Type
REMARK                         _______ _______ _______ _____ _____    ______ ____
ROOT
ATOM      1  C   UNL     1      -2.001  -6.092  -0.011  0.00  0.00    +0.137 C 
ATOM      2  C   UNL     1      -2.359  -6.602   1.399  0.00  0.00    +0.087 C 
ATOM      3  C   UNL     1      -3.724  -7.229   1.223  0.00  0.00    +0.069 C 
ATOM      4  N   UNL     1      -4.093  -7.119  -0.006  0.00  0.00    -0.181 NA
ATOM      5  N   UNL     1      -3.166  -6.472  -0.826  0.00  0.00    -0.187 N 
ATOM      6  C   UNL     1      -3.312  -6.234  -2.144  0.00  0.00    +0.219 C 
ATOM      7  O   UNL     1      -2.436  -5.660  -2.757  0.00  0.00    -0.276 OA
ENDROOT
BRANCH   3   8
ATOM      8  C   UNL     1      -4.510  -7.869   2.294  0.00  0.00    -0.002 A 
ATOM      9  C   UNL     1      -4.008  -7.925   3.596  0.00  0.00    +0.010 A 
ATOM     10  C   UNL     1      -4.749  -8.525   4.593  0.00  0.00    +0.004 A 
ATOM     11  C   UNL     1      -5.987  -9.071   4.305  0.00  0.00    -0.050 A 
ATOM     12  C   UNL     1      -6.492  -9.019   3.018  0.00  0.00    +0.004 A 
ATOM     13  C   UNL     1      -5.764  -8.416   2.013  0.00  0.00    +0.010 A 
ATOM     14  C   UNL     1      -6.791  -9.726   5.399  0.00  0.00    +0.044 C 
ENDBRANCH   3   8
BRANCH   1  18
ATOM     15  C   UNL     1      -1.498  -1.848   0.006  0.00  0.00    +0.121 A 
ATOM     16  C   UNL     1      -0.388  -2.679  -0.003  0.00  0.00    +0.046 A 
ATOM     17  C   UNL     1      -0.553  -4.051  -0.008  0.00  0.00    +0.009 A 
ATOM     18  C   UNL     1      -1.823  -4.596  -0.005  0.00  0.00    -0.024 A 
ATOM     19  C   UNL     1      -2.932  -3.769   0.004  0.00  0.00    +0.009 A 
ATOM     20  C   UNL     1      -2.772  -2.397   0.016  0.00  0.00    +0.046 A 
BRANCH  15  21
ATOM     21  O   UNL     1      -1.339  -0.499   0.012  0.00  0.00    -0.492 OA
BRANCH  21  23
ATOM     22  C   UNL     1      -0.019   1.526   0.010  0.00  0.00    +0.048 C 
ATOM     23  C   UNL     1       0.002  -0.004   0.002  0.00  0.00    +0.225 C 
ENDBRANCH  21  23
ENDBRANCH  15  21
ENDBRANCH   1  18
BRANCH   6  24
ATOM     24  C   UNL     1      -4.562  -6.680  -2.857  0.00  0.00    +0.021 C 
BRANCH  24  25
ATOM     25  N   UNL     1      -4.478  -6.306  -4.275  0.00  0.00    +0.385 N 
ATOM     26  C   UNL     1      -3.377  -7.040  -4.909  0.00  0.00    -0.077 C 
ATOM     27  C   UNL     1      -3.233  -6.594  -6.365  0.00  0.00    -0.004 C 
ATOM     28  C   UNL     1      -4.538  -6.882  -7.113  0.00  0.00    +0.094 C 
ATOM     29  C   UNL     1      -5.692  -6.171  -6.399  0.00  0.00    -0.004 C 
ATOM     30  C   UNL     1      -5.745  -6.633  -4.941  0.00  0.00    -0.077 C 
ATOM     31  H   UNL     1      -4.306  -5.314  -4.350  0.00  0.00    -0.081 HD
BRANCH  28  32
ATOM     32  C   UNL     1      -4.432  -6.374  -8.528  0.00  0.00    +0.310 C 
ATOM     33  O   UNL     1      -3.416  -5.836  -8.901  0.00  0.00    -0.251 OA
BRANCH  32  34
ATOM     34  O   UNL     1      -5.464  -6.519  -9.373  0.00  0.00    -0.465 OA
BRANCH  34  35
ATOM     35  C   UNL     1      -5.294  -6.013 -10.698  0.00  0.00    +0.229 C 
ATOM     36  C   UNL     1      -6.566  -6.268 -11.509  0.00  0.00    +0.048 C 
ENDBRANCH  34  35
ENDBRANCH  32  34
ENDBRANCH  28  32
ENDBRANCH  24  25
ENDBRANCH   6  24
TORSDOF 9
