REMARK  Name = ZINC12073445
REMARK  9 active torsions:
REMARK  status: ('A' for Active; 'I' for Inactive)
REMARK    1  A    between atoms: C_1  and  C_2
REMARK    2  A    between atoms: C_4  and  C_7
REMARK    3  A    between atoms: C_7  and  O_8
REMARK    4  A    between atoms: O_8  and  C_9
REMARK    5  A    between atoms: C_12  and  C_15
REMARK    6  A    between atoms: C_15  and  O_17
REMARK    7  A    between atoms: O_17  and  C_18
REMARK    8  A    between atoms: C_18  and  C_20
REMARK    9  A    between atoms: C_18  and  C_21
REMARK                            x       y       z     vdW  Elec       q    Type
REMARK                         _______ _______ _______ _____ _____    ______ ____
ROOT
ATOM      1  C   UNL     1       3.524   1.120  -0.641  0.00  0.00    +0.340 C 
ATOM      2  O   UNL     1       3.686   2.210  -1.152  0.00  0.00    -0.245 OA
ENDROOT
BRANCH   1   6
ATOM      3  C   UNL     1       6.626  -1.775  -0.785  0.00  0.00    +0.121 A 
ATOM      4  C   UNL     1       6.814  -0.528  -1.371  0.00  0.00    +0.046 A 
ATOM      5  C   UNL     1       5.810   0.413  -1.326  0.00  0.00    +0.018 A 
ATOM      6  C   UNL     1       4.601   0.114  -0.691  0.00  0.00    +0.059 A 
ATOM      7  C   UNL     1       4.419  -1.139  -0.099  0.00  0.00    +0.018 A 
ATOM      8  C   UNL     1       5.426  -2.076  -0.153  0.00  0.00    +0.046 A 
BRANCH   3   9
ATOM      9  O   UNL     1       7.618  -2.700  -0.831  0.00  0.00    -0.484 OA
BRANCH   9  10
ATOM     10  C   UNL     1       7.359  -3.960  -0.210  0.00  0.00    +0.308 C 
BRANCH  10  14
ATOM     11  C   UNL     1      10.669  -7.302  -1.927  0.00  0.00    +0.112 C 
ATOM     12  C   UNL     1       9.955  -6.267  -1.097  0.00  0.00    +0.224 A 
ATOM     13  N   UNL     1       8.802  -5.706  -1.372  0.00  0.00    -0.193 NA
ATOM     14  C   UNL     1       8.564  -4.852  -0.360  0.00  0.00    +0.209 A 
ATOM     15  N   UNL     1       9.563  -4.941   0.467  0.00  0.00    -0.058 NA
ATOM     16  O   UNL     1      10.373  -5.748   0.062  0.00  0.00    -0.338 OA
ENDBRANCH  10  14
ENDBRANCH   9  10
ENDBRANCH   3   9
ENDBRANCH   1   6
BRANCH   1  17
ATOM     17  O   UNL     1       2.359   0.829  -0.028  0.00  0.00    -0.449 OA
BRANCH  17  18
ATOM     18  C   UNL     1       1.343   1.867  -0.017  0.00  0.00    +0.259 C 
ATOM     19  C   UNL     1       1.515   2.735   1.230  0.00  0.00    +0.062 C 
BRANCH  18  20
ATOM     20  C   UNL     1      -0.023   1.232  -0.003  0.00  0.00    +0.260 C 
ATOM     21  O   UNL     1      -0.134   0.035   0.160  0.00  0.00    -0.271 OA
ATOM     22  N   UNL     1      -1.122   1.993  -0.177  0.00  0.00    -0.268 N 
ATOM     23  C   UNL     1      -1.111   3.427  -0.475  0.00  0.00    +0.118 C 
ATOM     24  C   UNL     1      -2.592   3.827  -0.583  0.00  0.00    +0.056 C 
ATOM     25  C   UNL     1      -3.352   2.547  -0.320  0.00  0.00    -0.024 A 
ATOM     26  C   UNL     1      -2.439   1.530  -0.094  0.00  0.00    +0.040 A 
ATOM     27  C   UNL     1      -2.909   0.244   0.175  0.00  0.00    +0.024 A 
ATOM     28  C   UNL     1      -4.265  -0.007   0.213  0.00  0.00    +0.002 A 
ATOM     29  C   UNL     1      -5.168   1.015  -0.014  0.00  0.00    +0.000 A 
ATOM     30  C   UNL     1      -4.709   2.292  -0.281  0.00  0.00    +0.005 A 
ENDBRANCH  18  20
ENDBRANCH  17  18
ENDBRANCH   1  17
TORSDOF 7
