REMARK  Name = ZINC12409825
REMARK  8 active torsions:
REMARK  status: ('A' for Active; 'I' for Inactive)
REMARK    1  A    between atoms: C_1  and  O_2
REMARK    2  A    between atoms: O_2  and  C_3
REMARK    3  A    between atoms: C_5  and  C_13
REMARK    4  A    between atoms: C_7  and  O_11
REMARK    5  A    between atoms: C_8  and  O_9
REMARK    6  A    between atoms: O_9  and  C_10
REMARK    7  A    between atoms: O_11  and  C_12
REMARK    8  A    between atoms: C_18  and  C_23
REMARK                            x       y       z     vdW  Elec       q    Type
REMARK                         _______ _______ _______ _____ _____    ______ ____
ROOT
ATOM      1  C   UNL     1       2.388   0.941  -0.156  0.00  0.00    +0.138 C 
ATOM      2  C   UNL     1       1.110   1.722   0.072  0.00  0.00    +0.037 C 
ATOM      3  C   UNL     1       0.911   3.043   0.188  0.00  0.00    +0.019 C 
ATOM      4  C   UNL     1      -0.487   3.611   0.375  0.00  0.00    +0.059 C 
ATOM      5  C   UNL     1      -1.502   2.744  -0.367  0.00  0.00    +0.032 C 
ATOM      6  C   UNL     1      -1.425   1.338   0.236  0.00  0.00    +0.088 C 
ATOM      7  C   UNL     1      -0.014   0.851   0.146  0.00  0.00    +0.163 C 
ATOM      8  O   UNL     1       0.182  -0.348   0.131  0.00  0.00    -0.292 OA
ATOM      9  N   UNL     1       1.892   3.990   0.171  0.00  0.00    -0.297 N 
ATOM     10  C   UNL     1       2.948   3.962  -0.729  0.00  0.00    +0.208 A 
ATOM     11  C   UNL     1       3.851   2.820  -0.753  0.00  0.00    +0.205 A 
ATOM     12  N   UNL     1       4.788   3.048  -1.618  0.00  0.00    -0.032 NA
ATOM     13  O   UNL     1       4.517   4.310  -2.214  0.00  0.00    -0.239 OA
ATOM     14  N   UNL     1       3.332   4.821  -1.617  0.00  0.00    -0.032 NA
ATOM     15  N   UNL     1       3.618   1.690   0.029  0.00  0.00    -0.313 N 
ATOM     16  H   UNL     1       1.849   4.715   0.815  0.00  0.00    +0.153 HD
ATOM     17  H   UNL     1       4.269   1.407   0.689  0.00  0.00    +0.149 HD
ENDROOT
BRANCH   5  18
ATOM     18  C   UNL     1      -2.889   3.307  -0.185  0.00  0.00    -0.043 A 
ATOM     19  C   UNL     1      -3.427   3.421   1.083  0.00  0.00    +0.005 A 
ATOM     20  C   UNL     1      -4.696   3.942   1.250  0.00  0.00    +0.020 A 
ATOM     21  C   UNL     1      -5.432   4.339   0.148  0.00  0.00    +0.041 A 
ATOM     22  C   UNL     1      -4.894   4.219  -1.121  0.00  0.00    +0.020 A 
ATOM     23  C   UNL     1      -3.623   3.703  -1.287  0.00  0.00    +0.005 A 
ATOM     24 CL   UNL     1      -7.029   4.987   0.357  0.00  0.00    -0.084 Cl
ENDBRANCH   5  18
BRANCH   1  27
ATOM     25  C   UNL     1       2.322  -1.460  -3.074  0.00  0.00    +0.165 A 
ATOM     26  C   UNL     1       2.340  -0.961  -1.780  0.00  0.00    +0.055 A 
ATOM     27  C   UNL     1       2.369   0.404  -1.564  0.00  0.00    -0.016 A 
ATOM     28  C   UNL     1       2.373   1.277  -2.635  0.00  0.00    +0.055 A 
ATOM     29  C   UNL     1       2.361   0.786  -3.932  0.00  0.00    +0.165 A 
ATOM     30  C   UNL     1       2.333  -0.586  -4.154  0.00  0.00    +0.204 A 
BRANCH  25  32
ATOM     31  C   UNL     1       2.283  -3.642  -2.128  0.00  0.00    +0.277 C 
ATOM     32  O   UNL     1       2.293  -2.803  -3.285  0.00  0.00    -0.491 OA
ENDBRANCH  25  32
BRANCH  30  33
ATOM     33  O   UNL     1       2.315  -1.071  -5.425  0.00  0.00    -0.488 OA
ATOM     34  C   UNL     1       1.034  -1.278  -6.023  0.00  0.00    +0.277 C 
ENDBRANCH  30  33
BRANCH  29  35
ATOM     35  O   UNL     1       2.372   1.646  -4.986  0.00  0.00    -0.491 OA
ATOM     36  C   UNL     1       2.402   3.042  -4.683  0.00  0.00    +0.277 C 
ENDBRANCH  29  35
ENDBRANCH   1  27
TORSDOF 5
