REMARK  Name = ZINC02769701
REMARK  9 active torsions:
REMARK  status: ('A' for Active; 'I' for Inactive)
REMARK    1  A    between atoms: C_1  and  C_2
REMARK    2  A    between atoms: C_2  and  N_3
REMARK    3  A    between atoms: C_4  and  C_28
REMARK    4  A    between atoms: C_5  and  C_9
REMARK    5  A    between atoms: C_6  and  C_8
REMARK    6  A    between atoms: C_18  and  C_26
REMARK    7  A    between atoms: C_19  and  N_25
REMARK    8  A    between atoms: C_20  and  C_21
REMARK    9  A    between atoms: C_20  and  C_23
REMARK                            x       y       z     vdW  Elec       q    Type
REMARK                         _______ _______ _______ _____ _____    ______ ____
ROOT
ATOM      1  C   UNL     1       0.129   2.699   1.553  0.00  0.00    +0.070 C 
ATOM      2  C   UNL     1       0.955   2.717   2.840  0.00  0.00    +0.030 C 
ATOM      3  C   UNL     1       0.612   1.565   3.754  0.00  0.00    +0.009 C 
ATOM      4  C   UNL     1       1.634   0.435   3.659  0.00  0.00    +0.005 C 
ATOM      5  C   UNL     1       3.016   1.001   4.017  0.00  0.00    +0.027 C 
ATOM      6  C   UNL     1       3.350   2.065   3.004  0.00  0.00    -0.022 C 
ATOM      7  C   UNL     1       2.405   2.812   2.468  0.00  0.00    -0.029 C 
ATOM      8  C   UNL     1       2.766   3.812   1.430  0.00  0.00    +0.074 C 
ATOM      9  C   UNL     1       1.786   4.355   0.664  0.00  0.00    +0.054 C 
ATOM     10  C   UNL     1       0.333   4.023   0.817  0.00  0.00    +0.188 C 
ENDROOT
BRANCH   1  13
ATOM     11  N   UNL     1       0.826  -0.435  -0.176  0.00  0.00    -0.268 N 
ATOM     12  C   UNL     1       0.206   0.265   0.797  0.00  0.00    +0.040 A 
ATOM     13  C   UNL     1       0.583   1.559   0.678  0.00  0.00    +0.002 A 
ATOM     14  C   UNL     1       1.464   1.653  -0.404  0.00  0.00    +0.064 A 
ATOM     15  N   UNL     1       1.610   0.459  -0.917  0.00  0.00    -0.176 NA
ATOM     16  C   UNL     1       2.129   2.913  -0.895  0.00  0.00    +0.068 C 
ATOM     17  C   UNL     1      -0.738  -0.294   1.830  0.00  0.00    +0.065 C 
BRANCH  11  19
ATOM     18  C   UNL     1      -0.455  -2.133  -1.384  0.00  0.00    +0.029 C 
ATOM     19  C   UNL     1       0.701  -1.875  -0.415  0.00  0.00    +0.140 C 
ENDBRANCH  11  19
ENDBRANCH   1  13
BRANCH   9  20
ATOM     20  N   UNL     1       2.145   5.255  -0.301  0.00  0.00    -0.358 N 
ATOM     21  H   UNL     1       1.375   5.714  -0.939  0.00  0.00    +0.142 HD
ATOM     22  H   UNL     1       3.203   5.520  -0.439  0.00  0.00    +0.142 HD
ENDBRANCH   9  20
BRANCH  10  23
ATOM     23  C   UNL     1      -0.281   3.929  -0.518  0.00  0.00    +0.091 C 
ATOM     24  N   UNL     1      -0.755   3.857  -1.548  0.00  0.00    -0.194 NA
ENDBRANCH  10  23
BRANCH  10  25
ATOM     25  C   UNL     1      -0.327   5.100   1.573  0.00  0.00    +0.091 C 
ATOM     26  N   UNL     1      -0.836   5.931   2.157  0.00  0.00    -0.194 NA
ENDBRANCH  10  25
BRANCH   8  27
ATOM     27  C   UNL     1       4.132   4.198   1.239  0.00  0.00    +0.101 C 
ATOM     28  N   UNL     1       5.215   4.504   1.088  0.00  0.00    -0.191 NA
ENDBRANCH   8  27
TORSDOF 6
