REMARK  Name = ZINC63571964
REMARK  5 active torsions:
REMARK  status: ('A' for Active; 'I' for Inactive)
REMARK    1  A    between atoms: C_1  and  O_2
REMARK    2  A    between atoms: O_2  and  C_3
REMARK    3  A    between atoms: C_6  and  C_9
REMARK    4  A    between atoms: N_26  and  C_27
REMARK    5  A    between atoms: C_32  and  C_33
REMARK                            x       y       z     vdW  Elec       q    Type
REMARK                         _______ _______ _______ _____ _____    ______ ____
ROOT
ATOM      1  C   UNL     1      -4.876  -3.380   0.562  0.00  0.00    +0.134 C 
ATOM      2  C   UNL     1      -5.363  -4.292   1.693  0.00  0.00    +0.131 C 
ATOM      3  C   UNL     1      -6.671  -4.913   1.218  0.00  0.00    -0.035 C 
ATOM      4  C   UNL     1      -7.583  -4.614   2.136  0.00  0.00    -0.001 A 
ATOM      5  C   UNL     1      -9.000  -4.989   2.266  0.00  0.00    +0.010 A 
ATOM      6  C   UNL     1      -9.656  -4.489   3.346  0.00  0.00    +0.001 A 
ATOM      7  C   UNL     1      -9.051  -3.662   4.298  0.00  0.00    +0.002 A 
ATOM      8  C   UNL     1      -7.753  -3.269   4.259  0.00  0.00    +0.026 A 
ATOM      9  C   UNL     1      -6.958  -3.737   3.172  0.00  0.00    +0.043 A 
ATOM     10  N   UNL     1      -5.680  -3.534   2.905  0.00  0.00    -0.375 N 
ATOM     11  C   UNL     1      -6.793  -5.634  -0.102  0.00  0.00    +0.052 C 
ATOM     12  C   UNL     1      -6.203  -4.699  -1.173  0.00  0.00    +0.114 C 
ATOM     13  N   UNL     1      -4.933  -4.146  -0.693  0.00  0.00    -0.276 N 
ATOM     14  C   UNL     1      -3.807  -4.342  -1.407  0.00  0.00    +0.307 C 
ATOM     15  O   UNL     1      -2.732  -4.000  -0.953  0.00  0.00    -0.252 OA
ATOM     16  N   UNL     1      -3.872  -4.916  -2.624  0.00  0.00    -0.269 N 
ATOM     17  H   UNL     1      -4.735  -5.114  -3.022  0.00  0.00    +0.156 HD
ATOM     18  H   UNL     1      -5.059  -2.984   3.409  0.00  0.00    +0.160 HD
ENDROOT
BRANCH   1  22
ATOM     19  C   UNL     1      -0.854  -2.153   1.325  0.00  0.00    +0.120 A 
ATOM     20  C   UNL     1      -1.269  -3.430   1.673  0.00  0.00    +0.046 A 
ATOM     21  C   UNL     1      -2.569  -3.824   1.426  0.00  0.00    +0.009 A 
ATOM     22  C   UNL     1      -3.457  -2.947   0.831  0.00  0.00    -0.024 A 
ATOM     23  C   UNL     1      -3.046  -1.674   0.483  0.00  0.00    +0.009 A 
ATOM     24  C   UNL     1      -1.748  -1.273   0.734  0.00  0.00    +0.046 A 
BRANCH  19  26
ATOM     25  C   UNL     1       1.291  -2.721   2.179  0.00  0.00    +0.277 C 
ATOM     26  O   UNL     1       0.425  -1.762   1.568  0.00  0.00    -0.495 OA
ENDBRANCH  19  26
ENDBRANCH   1  22
BRANCH  16  27
ATOM     27  C   UNL     1      -2.696  -5.229  -3.315  0.00  0.00    +0.046 A 
ATOM     28  C   UNL     1      -1.538  -4.497  -3.084  0.00  0.00    +0.024 A 
ATOM     29  C   UNL     1      -0.379  -4.808  -3.767  0.00  0.00    +0.002 A 
ATOM     30  C   UNL     1      -0.370  -5.846  -4.680  0.00  0.00    +0.001 A 
ATOM     31  C   UNL     1      -1.520  -6.577  -4.912  0.00  0.00    +0.014 A 
ATOM     32  C   UNL     1      -2.682  -6.275  -4.228  0.00  0.00    +0.076 A 
BRANCH  32  33
ATOM     33  C   UNL     1      -3.934  -7.075  -4.477  0.00  0.00    +0.419 C 
ATOM     34  F   UNL     1      -3.672  -8.065  -5.430  0.00  0.00    -0.166 F 
ATOM     35  F   UNL     1      -4.349  -7.675  -3.283  0.00  0.00    -0.166 F 
ATOM     36  F   UNL     1      -4.943  -6.228  -4.949  0.00  0.00    -0.166 F 
ENDBRANCH  32  33
ENDBRANCH  16  27
TORSDOF 4
