REMARK  Name = ZINC06752775
REMARK  7 active torsions:
REMARK  status: ('A' for Active; 'I' for Inactive)
REMARK    1  A    between atoms: C_1  and  S_2
REMARK    2  A    between atoms: S_2  and  C_3
REMARK    3  A    between atoms: C_6  and  C_9
REMARK    4  A    between atoms: C_12  and  C_27
REMARK    5  A    between atoms: N_19  and  C_20
REMARK    6  A    between atoms: C_20  and  C_21
REMARK    7  A    between atoms: C_32  and  O_33
REMARK                            x       y       z     vdW  Elec       q    Type
REMARK                         _______ _______ _______ _____ _____    ______ ____
ROOT
ATOM      1  C   UNL     1       2.998  -1.452   5.038  0.00  0.00    +0.141 C 
ATOM      2  C   UNL     1       4.413  -1.839   4.704  0.00  0.00    +0.035 A 
ATOM      3  C   UNL     1       5.608  -1.474   4.171  0.00  0.00    +0.075 A 
ATOM      4  N   UNL     1       6.434  -2.555   4.285  0.00  0.00    -0.276 N 
ATOM      5  H   UNL     1       7.357  -2.584   3.986  0.00  0.00    +0.189 HD
ATOM      6  N   UNL     1       5.809  -3.527   4.846  0.00  0.00    -0.168 NA
ATOM      7  C   UNL     1       4.572  -3.176   5.135  0.00  0.00    +0.153 A 
ATOM      8  C   UNL     1       3.294  -3.616   5.723  0.00  0.00    +0.268 C 
ATOM      9  O   UNL     1       3.090  -4.720   6.191  0.00  0.00    -0.268 OA
ATOM     10  N   UNL     1       2.385  -2.626   5.669  0.00  0.00    -0.283 N 
ENDROOT
BRANCH   1  14
ATOM     11  C   UNL     1       0.877  -0.427   1.472  0.00  0.00    +0.008 A 
ATOM     12  C   UNL     1       1.349   0.574   2.313  0.00  0.00    +0.015 A 
ATOM     13  C   UNL     1       2.035   0.239   3.464  0.00  0.00    +0.007 A 
ATOM     14  C   UNL     1       2.250  -1.090   3.781  0.00  0.00    -0.022 A 
ATOM     15  C   UNL     1       1.782  -2.088   2.946  0.00  0.00    +0.007 A 
ATOM     16  C   UNL     1       1.090  -1.761   1.796  0.00  0.00    +0.015 A 
BRANCH  11  18
ATOM     17  C   UNL     1      -0.022   1.810   0.012  0.00  0.00    +0.090 C 
ATOM     18  S   UNL     1       0.002  -0.004   0.002  0.00  0.00    -0.129 S 
ENDBRANCH  11  18
ENDBRANCH   1  14
BRANCH   3  19
ATOM     19  C   UNL     1       5.948  -0.160   3.582  0.00  0.00    +0.042 A 
ATOM     20  C   UNL     1       6.246  -0.057   2.223  0.00  0.00    +0.013 A 
ATOM     21  C   UNL     1       6.561   1.171   1.679  0.00  0.00    +0.001 A 
ATOM     22  C   UNL     1       6.584   2.302   2.476  0.00  0.00    +0.004 A 
ATOM     23  C   UNL     1       6.291   2.212   3.824  0.00  0.00    +0.046 A 
ATOM     24  C   UNL     1       5.966   0.987   4.383  0.00  0.00    +0.126 A 
BRANCH  24  25
ATOM     25  O   UNL     1       5.671   0.898   5.707  0.00  0.00    -0.506 OA
ATOM     26  H   UNL     1       6.440   0.733   6.270  0.00  0.00    +0.292 HD
ENDBRANCH  24  25
ENDBRANCH   3  19
BRANCH  10  27
ATOM     27  C   UNL     1       1.008  -2.706   6.161  0.00  0.00    +0.140 C 
BRANCH  27  28
ATOM     28  C   UNL     1       0.093  -3.201   5.039  0.00  0.00    +0.136 C 
ATOM     29  C   UNL     1      -1.377  -3.174   5.511  0.00  0.00    +0.035 C 
ATOM     30  C   UNL     1      -1.947  -4.477   4.889  0.00  0.00    +0.031 C 
ATOM     31  C   UNL     1      -0.711  -5.408   4.972  0.00  0.00    +0.160 C 
ATOM     32  O   UNL     1       0.419  -4.557   4.710  0.00  0.00    -0.375 OA
ENDBRANCH  27  28
ENDBRANCH  10  27
TORSDOF 6
