REMARK  Name = ZINC14274978
REMARK  9 active torsions:
REMARK  status: ('A' for Active; 'I' for Inactive)
REMARK    1  A    between atoms: C_1  and  C_2
REMARK    2  A    between atoms: C_5  and  N_30
REMARK    3  A    between atoms: C_6  and  N_9
REMARK    4  A    between atoms: C_7  and  C_8
REMARK    5  A    between atoms: N_9  and  C_10
REMARK    6  A    between atoms: C_10  and  N_12
REMARK    7  A    between atoms: C_13  and  C_15
REMARK    8  A    between atoms: C_16  and  C_17
REMARK    9  A    between atoms: C_20  and  C_22
REMARK                            x       y       z     vdW  Elec       q    Type
REMARK                         _______ _______ _______ _____ _____    ______ ____
ROOT
ATOM      1  N   UNL     1       3.485   2.005   3.467  0.00  0.00    -0.264 N 
ATOM      2  C   UNL     1       4.211   2.437   4.517  0.00  0.00    +0.242 C 
ATOM      3  O   UNL     1       3.665   3.016   5.438  0.00  0.00    -0.270 OA
ATOM      4  H   UNL     1       3.920   1.544   2.733  0.00  0.00    +0.157 HD
ENDROOT
BRANCH   1   5
ATOM      5  C   UNL     1       2.154   2.215   3.436  0.00  0.00    +0.141 C 
ATOM      6  S   UNL     1       1.386   3.030   4.732  0.00  0.00    -0.018 S 
BRANCH   5   7
ATOM      7  N   UNL     1       1.427   1.784   2.386  0.00  0.00    -0.295 N 
ATOM      8  H   UNL     1       1.871   1.394   1.617  0.00  0.00    +0.154 HD
BRANCH   7  14
ATOM      9  C   UNL     1      -2.930   0.161   3.981  0.00  0.00    +0.044 C 
ATOM     10  C   UNL     1      -2.104   1.126   3.170  0.00  0.00    -0.046 A 
ATOM     11  C   UNL     1      -2.724   2.127   2.445  0.00  0.00    +0.006 A 
ATOM     12  C   UNL     1      -1.969   3.010   1.696  0.00  0.00    +0.035 A 
ATOM     13  C   UNL     1      -0.593   2.900   1.674  0.00  0.00    +0.148 A 
ATOM     14  C   UNL     1       0.034   1.899   2.405  0.00  0.00    +0.066 A 
ATOM     15  C   UNL     1      -0.727   1.013   3.157  0.00  0.00    -0.024 A 
ATOM     16  C   UNL     1      -0.052  -0.075   3.952  0.00  0.00    +0.046 C 
BRANCH  13  17
ATOM     17  N   UNL     1       0.214   3.847   0.872  0.00  0.00    +0.058 N 
ATOM     18  O   UNL     1      -0.326   4.778   0.304  0.00  0.00    -0.126 OA
ATOM     19  O   UNL     1       1.419   3.694   0.781  0.00  0.00    -0.126 OA
ENDBRANCH  13  17
ENDBRANCH   7  14
ENDBRANCH   5   7
ENDBRANCH   1   5
BRANCH   2  20
ATOM     20  C   UNL     1       5.607   2.216   4.549  0.00  0.00    +0.071 C 
ATOM     21  C   UNL     1       6.339   2.651   5.608  0.00  0.00    +0.051 C 
BRANCH  21  22
ATOM     22  C   UNL     1       7.734   2.431   5.640  0.00  0.00    +0.129 A 
ATOM     23  C   UNL     1       8.594   2.824   6.649  0.00  0.00    +0.050 A 
ATOM     24  C   UNL     1       9.873   2.403   6.276  0.00  0.00    +0.050 A 
ATOM     25  C   UNL     1       9.752   1.780   5.055  0.00  0.00    +0.136 A 
ATOM     26  O   UNL     1       8.459   1.806   4.688  0.00  0.00    -0.455 OA
BRANCH  25  27
ATOM     27  C   UNL     1      10.856   1.182   4.279  0.00  0.00    +0.020 A 
ATOM     28  C   UNL     1      12.163   1.226   4.771  0.00  0.00    +0.031 A 
ATOM     29  C   UNL     1      13.191   0.661   4.043  0.00  0.00    +0.043 A 
ATOM     30  C   UNL     1      12.930   0.061   2.822  0.00  0.00    +0.040 A 
ATOM     31  C   UNL     1      11.637   0.019   2.326  0.00  0.00    +0.043 A 
ATOM     32  C   UNL     1      10.600   0.576   3.047  0.00  0.00    +0.031 A 
ATOM     33 CL   UNL     1      11.321  -0.735   0.795  0.00  0.00    -0.083 Cl
ATOM     34 CL   UNL     1      14.814   0.708   4.655  0.00  0.00    -0.083 Cl
ENDBRANCH  25  27
ENDBRANCH  21  22
ENDBRANCH   2  20
TORSDOF 7
