REMARK  Name = ZINC13394696
REMARK  7 active torsions:
REMARK  status: ('A' for Active; 'I' for Inactive)
REMARK    1  A    between atoms: C_1  and  C_2
REMARK    2  A    between atoms: C_2  and  C_4
REMARK    3  A    between atoms: C_2  and  N_10
REMARK    4  A    between atoms: C_20  and  S_21
REMARK    5  A    between atoms: S_21  and  C_22
REMARK    6  A    between atoms: C_22  and  C_23
REMARK    7  A    between atoms: C_34  and  C_36
REMARK                            x       y       z     vdW  Elec       q    Type
REMARK                         _______ _______ _______ _____ _____    ______ ____
ROOT
ATOM      1  N   UNL     1      -2.660   4.645  -7.141  0.00  0.00    -0.280 N 
ATOM      2  C   UNL     1      -2.090   3.980  -8.172  0.00  0.00    +0.263 A 
ATOM      3  O   UNL     1      -2.483   4.129  -9.315  0.00  0.00    -0.267 OA
ATOM      4  C   UNL     1      -0.983   3.065  -7.861  0.00  0.00    +0.065 A 
ATOM      5  C   UNL     1      -0.333   2.331  -8.852  0.00  0.00    +0.015 A 
ATOM      6  C   UNL     1       0.692   1.494  -8.507  0.00  0.00    +0.001 A 
ATOM      7  C   UNL     1       1.091   1.369  -7.183  0.00  0.00    +0.002 A 
ATOM      8  C   UNL     1       0.472   2.077  -6.192  0.00  0.00    +0.028 A 
ATOM      9  C   UNL     1      -0.579   2.941  -6.512  0.00  0.00    +0.079 A 
ATOM     10  N   UNL     1      -1.217   3.659  -5.566  0.00  0.00    -0.223 NA
ATOM     11  C   UNL     1      -2.202   4.469  -5.866  0.00  0.00    +0.173 A 
ENDROOT
BRANCH   1  13
ATOM     12  C   UNL     1      -4.179   5.480  -8.866  0.00  0.00    +0.036 C 
ATOM     13  C   UNL     1      -3.771   5.566  -7.394  0.00  0.00    +0.119 C 
BRANCH  13  14
ATOM     14  C   UNL     1      -3.340   6.974  -7.073  0.00  0.00    -0.025 A 
ATOM     15  C   UNL     1      -2.045   7.377  -7.338  0.00  0.00    +0.005 A 
ATOM     16  C   UNL     1      -1.651   8.670  -7.048  0.00  0.00    +0.000 A 
ATOM     17  C   UNL     1      -2.549   9.557  -6.485  0.00  0.00    +0.000 A 
ATOM     18  C   UNL     1      -3.843   9.151  -6.215  0.00  0.00    +0.000 A 
ATOM     19  C   UNL     1      -4.239   7.860  -6.510  0.00  0.00    +0.005 A 
ENDBRANCH  13  14
ENDBRANCH   1  13
BRANCH  11  20
ATOM     20  S   UNL     1      -2.978   5.367  -4.564  0.00  0.00    -0.078 S 
BRANCH  20  21
ATOM     21  C   UNL     1      -2.017   4.767  -3.152  0.00  0.00    +0.173 C 
BRANCH  21  22
ATOM     22  C   UNL     1      -2.518   5.419  -1.889  0.00  0.00    +0.227 C 
ATOM     23  O   UNL     1      -3.435   6.211  -1.939  0.00  0.00    -0.275 OA
ATOM     24  N   UNL     1      -1.948   5.121  -0.705  0.00  0.00    -0.283 N 
ATOM     25  C   UNL     1      -0.788   4.226  -0.620  0.00  0.00    +0.144 C 
ATOM     26  C   UNL     1      -0.981   3.251   0.514  0.00  0.00    -0.027 A 
ATOM     27  C   UNL     1      -0.102   2.181   0.604  0.00  0.00    +0.005 A 
ATOM     28  C   UNL     1      -0.214   1.267   1.632  0.00  0.00    +0.000 A 
ATOM     29  C   UNL     1      -1.210   1.420   2.579  0.00  0.00    +0.000 A 
ATOM     30  C   UNL     1      -2.090   2.477   2.485  0.00  0.00    +0.004 A 
ATOM     31  C   UNL     1      -1.979   3.400   1.451  0.00  0.00    -0.040 A 
ATOM     32  C   UNL     1      -2.981   4.523   1.407  0.00  0.00    +0.069 C 
ATOM     33  C   UNL     1      -2.463   5.681   0.555  0.00  0.00    +0.194 C 
BRANCH  33  34
ATOM     34  C   UNL     1      -3.587   6.642   0.265  0.00  0.00    +0.376 C 
ATOM     35  O   UNL     1      -3.393   7.601  -0.444  0.00  0.00    -0.244 OA
ATOM     36  O   UNL     1      -4.802   6.434   0.795  0.00  0.00    -0.244 OA
ENDBRANCH  33  34
ENDBRANCH  21  22
ENDBRANCH  20  21
ENDBRANCH  11  20
TORSDOF 6
