REMARK  Name = ZINC63375145
REMARK  8 active torsions:
REMARK  status: ('A' for Active; 'I' for Inactive)
REMARK    1  A    between atoms: C_1  and  C_2
REMARK    2  A    between atoms: C_2  and  C_3
REMARK    3  A    between atoms: C_6  and  C_9
REMARK    4  A    between atoms: N_15  and  C_30
REMARK    5  A    between atoms: C_18  and  C_29
REMARK    6  A    between atoms: C_33  and  O_36
REMARK    7  A    between atoms: O_36  and  C_37
REMARK    8  A    between atoms: C_37  and  C_38
REMARK                            x       y       z     vdW  Elec       q    Type
REMARK                         _______ _______ _______ _____ _____    ______ ____
ROOT
ATOM      1  C   UNL     1      -5.421  -2.043   0.051  0.00  0.00    +0.065 C 
ATOM      2  C   UNL     1      -5.508  -3.378  -0.715  0.00  0.00    +0.123 C 
ATOM      3  N   UNL     1      -5.462  -3.089  -2.151  0.00  0.00    -0.268 N 
ATOM      4  C   UNL     1      -4.619  -3.579  -3.069  0.00  0.00    +0.317 C 
ATOM      5  O   UNL     1      -3.811  -4.459  -2.845  0.00  0.00    -0.252 OA
ATOM      6  N   UNL     1      -4.768  -2.988  -4.262  0.00  0.00    -0.192 N 
ATOM      7  C   UNL     1      -5.774  -2.090  -4.251  0.00  0.00    +0.253 C 
ATOM      8  O   UNL     1      -6.133  -1.381  -5.167  0.00  0.00    -0.272 OA
ATOM      9  C   UNL     1      -6.363  -2.150  -2.858  0.00  0.00    +0.137 C 
ATOM     10  C   UNL     1      -6.217  -0.790  -2.165  0.00  0.00    +0.139 C 
ATOM     11  C   UNL     1      -6.312  -1.059  -0.665  0.00  0.00    -0.027 C 
ATOM     12  C   UNL     1      -7.295  -0.290  -0.209  0.00  0.00    -0.000 A 
ATOM     13  C   UNL     1      -7.798  -0.052   1.154  0.00  0.00    +0.010 A 
ATOM     14  C   UNL     1      -8.852   0.800   1.263  0.00  0.00    +0.001 A 
ATOM     15  C   UNL     1      -9.448   1.431   0.167  0.00  0.00    +0.002 A 
ATOM     16  C   UNL     1      -9.045   1.277  -1.120  0.00  0.00    +0.026 A 
ATOM     17  C   UNL     1      -7.939   0.410  -1.361  0.00  0.00    +0.043 A 
ATOM     18  N   UNL     1      -7.332   0.102  -2.488  0.00  0.00    -0.375 N 
ATOM     19  C   UNL     1      -7.811  -2.642  -2.870  0.00  0.00    +0.044 C 
ATOM     20  H   UNL     1      -7.576   0.406  -3.377  0.00  0.00    +0.160 HD
ENDROOT
BRANCH   1  24
ATOM     21  C   UNL     1      -1.390  -0.629   0.054  0.00  0.00    -0.048 A 
ATOM     22  C   UNL     1      -2.038  -0.873   1.250  0.00  0.00    +0.004 A 
ATOM     23  C   UNL     1      -3.342  -1.330   1.250  0.00  0.00    +0.004 A 
ATOM     24  C   UNL     1      -3.999  -1.544   0.052  0.00  0.00    -0.039 A 
ATOM     25  C   UNL     1      -3.352  -1.299  -1.144  0.00  0.00    +0.004 A 
ATOM     26  C   UNL     1      -2.049  -0.838  -1.144  0.00  0.00    +0.004 A 
BRANCH  21  28
ATOM     27  C   UNL     1       0.036   1.400   0.080  0.00  0.00    +0.009 C 
ATOM     28  C   UNL     1       0.032  -0.130   0.055  0.00  0.00    +0.032 C 
ENDBRANCH  21  28
ENDBRANCH   1  24
BRANCH   6  29
ATOM     29  C   UNL     1      -3.974  -3.268  -5.385  0.00  0.00    +0.046 A 
ATOM     30  C   UNL     1      -4.280  -2.696  -6.612  0.00  0.00    +0.027 A 
ATOM     31  C   UNL     1      -3.499  -2.972  -7.717  0.00  0.00    +0.047 A 
ATOM     32  C   UNL     1      -2.409  -3.822  -7.601  0.00  0.00    +0.121 A 
ATOM     33  C   UNL     1      -2.103  -4.394  -6.375  0.00  0.00    +0.047 A 
ATOM     34  C   UNL     1      -2.880  -4.114  -5.268  0.00  0.00    +0.027 A 
BRANCH  32  35
ATOM     35  O   UNL     1      -1.641  -4.094  -8.689  0.00  0.00    -0.492 OA
BRANCH  35  36
ATOM     36  C   UNL     1      -0.534  -4.978  -8.497  0.00  0.00    +0.225 C 
ATOM     37  C   UNL     1       0.207  -5.163  -9.822  0.00  0.00    +0.048 C 
ENDBRANCH  35  36
ENDBRANCH  32  35
ENDBRANCH   6  29
TORSDOF 5
