REMARK  Name = ZINC08835999
REMARK  6 active torsions:
REMARK  status: ('A' for Active; 'I' for Inactive)
REMARK    1  A    between atoms: C_4  and  N_26
REMARK    2  A    between atoms: C_5  and  C_7
REMARK    3  A    between atoms: C_10  and  C_12
REMARK    4  A    between atoms: N_13  and  N_14
REMARK    5  A    between atoms: C_15  and  C_17
REMARK    6  A    between atoms: C_19  and  N_24
REMARK                            x       y       z     vdW  Elec       q    Type
REMARK                         _______ _______ _______ _____ _____    ______ ____
ROOT
ATOM      1  N   UNL     1      -0.971  -6.185   2.801  0.00  0.00    -0.202 N 
ATOM      2  C   UNL     1      -1.824  -6.030   3.833  0.00  0.00    +0.281 C 
ATOM      3  O   UNL     1      -2.143  -4.915   4.194  0.00  0.00    -0.267 OA
ATOM      4  H   UNL     1      -0.716  -7.075   2.513  0.00  0.00    +0.178 HD
ENDROOT
BRANCH   2   5
ATOM      5  C   UNL     1      -2.370  -7.216   4.526  0.00  0.00    +0.125 A 
ATOM      6  C   UNL     1      -3.246  -7.048   5.596  0.00  0.00    +0.091 A 
ATOM      7  C   UNL     1      -3.756  -8.179   6.235  0.00  0.00    +0.067 A 
ATOM      8  C   UNL     1      -3.356  -9.434   5.780  0.00  0.00    +0.098 A 
ATOM      9  C   UNL     1      -2.476  -9.519   4.712  0.00  0.00    +0.128 A 
ATOM     10 CL   UNL     1      -1.974 -11.079   4.140  0.00  0.00    -0.062 Cl
ATOM     11 CL   UNL     1      -3.953 -10.875   6.542  0.00  0.00    -0.079 Cl
ATOM     12 CL   UNL     1      -3.701  -5.457   6.121  0.00  0.00    -0.079 Cl
ATOM     13  N   UNL     1      -1.965  -8.442   4.064  0.00  0.00    -0.339 N 
ATOM     14  H   UNL     1      -1.314  -8.539   3.275  0.00  0.00    +0.167 HD
BRANCH   7  15
ATOM     15  N   UNL     1      -4.639  -8.056   7.306  0.00  0.00    -0.356 N 
ATOM     16  H   UNL     1      -4.984  -8.849   7.744  0.00  0.00    +0.142 HD
ATOM     17  H   UNL     1      -4.910  -7.176   7.613  0.00  0.00    +0.142 HD
ENDBRANCH   7  15
ENDBRANCH   2   5
BRANCH   1  19
ATOM     18  C   UNL     1       0.346  -5.303   1.179  0.00  0.00    +0.176 C 
ATOM     19  N   UNL     1      -0.494  -5.150   2.196  0.00  0.00    -0.184 NA
BRANCH  18  23
ATOM     20  C   UNL     1       1.270  -2.100  -0.021  0.00  0.00    +0.138 A 
ATOM     21  C   UNL     1       2.020  -2.896  -0.922  0.00  0.00    +0.050 A 
ATOM     22  C   UNL     1       1.794  -4.196  -0.607  0.00  0.00    +0.051 A 
ATOM     23  C   UNL     1       0.858  -4.189   0.529  0.00  0.00    +0.148 A 
ATOM     24  O   UNL     1       0.592  -2.897   0.822  0.00  0.00    -0.454 OA
BRANCH  20  29
ATOM     25  C   UNL     1       2.392   1.420  -0.013  0.00  0.00    +0.001 A 
ATOM     26  C   UNL     1       1.174   2.084   0.002  0.00  0.00    +0.002 A 
ATOM     27  C   UNL     1      -0.017   1.372   0.010  0.00  0.00    +0.033 A 
ATOM     28  C   UNL     1       0.002  -0.004   0.002  0.00  0.00    +0.137 A 
ATOM     29  C   UNL     1       1.235  -0.683  -0.013  0.00  0.00    +0.047 A 
ATOM     30  C   UNL     1       2.434   0.055  -0.021  0.00  0.00    +0.014 A 
BRANCH  28  31
ATOM     31  N   UNL     1      -1.267  -0.766   0.011  0.00  0.00    +0.057 N 
ATOM     32  O   UNL     1      -2.419  -0.127   0.025  0.00  0.00    -0.126 OA
ATOM     33  O   UNL     1      -1.245  -2.083   0.003  0.00  0.00    -0.126 OA
ENDBRANCH  28  31
ENDBRANCH  20  29
ENDBRANCH  18  23
ENDBRANCH   1  19
TORSDOF 6
