REMARK  Name = ZINC43161541
REMARK  6 active torsions:
REMARK  status: ('A' for Active; 'I' for Inactive)
REMARK    1  A    between atoms: C_1  and  C_2
REMARK    2  A    between atoms: C_2  and  C_4
REMARK    3  A    between atoms: C_2  and  N_14
REMARK    4  A    between atoms: C_7  and  O_10
REMARK    5  A    between atoms: O_10  and  C_11
REMARK    6  A    between atoms: N_17  and  C_18
REMARK                            x       y       z     vdW  Elec       q    Type
REMARK                         _______ _______ _______ _____ _____    ______ ____
ROOT
ATOM      1  N   UNL     1      -1.367  -0.526   0.010  0.00  0.00    -0.293 N 
ATOM      2  C   UNL     1      -2.049  -0.648  -1.146  0.00  0.00    +0.304 C 
ATOM      3  O   UNL     1      -1.522  -0.342  -2.198  0.00  0.00    -0.252 OA
ATOM      4  N   UNL     1      -3.315  -1.109  -1.135  0.00  0.00    -0.269 N 
ATOM      5  H   UNL     1      -1.787  -0.770   0.850  0.00  0.00    +0.151 HD
ATOM      6  H   UNL     1      -3.713  -1.415  -0.305  0.00  0.00    +0.156 HD
ENDROOT
BRANCH   4   7
ATOM      7  C   UNL     1      -4.054  -1.147  -2.319  0.00  0.00    +0.043 A 
ATOM      8  C   UNL     1      -3.434  -1.422  -3.520  0.00  0.00    +0.024 A 
ATOM      9  C   UNL     1      -4.163  -1.463  -4.705  0.00  0.00    +0.002 A 
ATOM     10  C   UNL     1      -5.505  -1.233  -4.716  0.00  0.00    +0.010 A 
ATOM     11  C   UNL     1      -6.175  -0.950  -3.515  0.00  0.00    +0.002 A 
ATOM     12  C   UNL     1      -5.442  -0.912  -2.300  0.00  0.00    +0.006 A 
ATOM     13  C   UNL     1      -6.138  -0.631  -1.112  0.00  0.00    +0.030 A 
ATOM     14  C   UNL     1      -7.482  -0.413  -1.177  0.00  0.00    +0.111 A 
ATOM     15  N   UNL     1      -8.143  -0.461  -2.325  0.00  0.00    -0.263 NA
ATOM     16  C   UNL     1      -7.557  -0.706  -3.473  0.00  0.00    +0.119 A 
ENDBRANCH   4   7
BRANCH   1  18
ATOM     17  C   UNL     1      -0.005   1.506   0.016  0.00  0.00    +0.033 C 
ATOM     18  C   UNL     1       0.010  -0.024  -0.001  0.00  0.00    +0.102 C 
BRANCH  18  19
ATOM     19  C   UNL     1       0.740  -0.533   1.215  0.00  0.00    -0.027 A 
ATOM     20  C   UNL     1       0.092  -0.592   2.435  0.00  0.00    +0.009 A 
ATOM     21  C   UNL     1       0.759  -1.058   3.551  0.00  0.00    +0.046 A 
ATOM     22  C   UNL     1       2.081  -1.467   3.447  0.00  0.00    +0.127 A 
ATOM     23  C   UNL     1       2.729  -1.407   2.222  0.00  0.00    +0.046 A 
ATOM     24  C   UNL     1       2.055  -0.946   1.107  0.00  0.00    +0.009 A 
BRANCH  22  25
ATOM     25  O   UNL     1       2.740  -1.925   4.544  0.00  0.00    -0.434 OA
BRANCH  25  26
ATOM     26  C   UNL     1       4.098  -2.330   4.362  0.00  0.00    +0.541 C 
ATOM     27  F   UNL     1       4.155  -3.369   3.428  0.00  0.00    -0.166 F 
ATOM     28  F   UNL     1       4.850  -1.245   3.899  0.00  0.00    -0.166 F 
ENDBRANCH  25  26
ENDBRANCH  22  25
ENDBRANCH  18  19
ENDBRANCH   1  18
TORSDOF 5
