REMARK  Name = ZINC48331924
REMARK  8 active torsions:
REMARK  status: ('A' for Active; 'I' for Inactive)
REMARK    1  A    between atoms: C_4  and  C_7
REMARK    2  A    between atoms: C_7  and  N_8
REMARK    3  A    between atoms: N_8  and  C_9
REMARK    4  A    between atoms: N_8  and  S_16
REMARK    5  A    between atoms: C_9  and  C_10
REMARK    6  A    between atoms: S_16  and  C_19
REMARK    7  A    between atoms: N_25  and  C_26
REMARK    8  A    between atoms: C_26  and  C_27
REMARK                            x       y       z     vdW  Elec       q    Type
REMARK                         _______ _______ _______ _____ _____    ______ ____
ROOT
ATOM      1  C   UNL     1       4.154   1.424   2.885  0.00  0.00    +0.124 A 
ATOM      2  C   UNL     1       3.675   2.583   2.289  0.00  0.00    +0.033 A 
ATOM      3  C   UNL     1       2.866   3.422   3.034  0.00  0.00    +0.045 A 
ATOM      4  C   UNL     1       2.561   3.078   4.347  0.00  0.00    +0.119 A 
ATOM      5  N   UNL     1       3.038   1.963   4.880  0.00  0.00    -0.239 NA
ATOM      6  C   UNL     1       3.807   1.142   4.191  0.00  0.00    +0.141 A 
ATOM      7  N   UNL     1       1.750   3.912   5.107  0.00  0.00    -0.323 N 
ATOM      8  H   UNL     1       1.534   3.676   6.023  0.00  0.00    +0.148 HD
ENDROOT
BRANCH   1   9
ATOM      9  S   UNL     1       5.189   0.321   1.981  0.00  0.00    +0.063 S 
ATOM     10  O   UNL     1       6.036  -0.311   2.930  0.00  0.00    -0.153 OA
ATOM     11  O   UNL     1       5.697   1.055   0.876  0.00  0.00    -0.153 OA
BRANCH   9  12
ATOM     12  N   UNL     1       4.214  -0.862   1.355  0.00  0.00    -0.168 NA
BRANCH  12  13
ATOM     13  C   UNL     1       3.688  -0.734  -0.007  0.00  0.00    +0.145 C 
BRANCH  13  17
ATOM     14  C   UNL     1      -0.227   0.969   0.132  0.00  0.00    +0.000 A 
ATOM     15  C   UNL     1       0.871   1.778  -0.092  0.00  0.00    +0.000 A 
ATOM     16  C   UNL     1       2.138   1.227  -0.136  0.00  0.00    +0.005 A 
ATOM     17  C   UNL     1       2.307  -0.133   0.043  0.00  0.00    -0.032 A 
ATOM     18  C   UNL     1       1.209  -0.942   0.268  0.00  0.00    +0.005 A 
ATOM     19  C   UNL     1      -0.058  -0.391   0.311  0.00  0.00    +0.000 A 
ENDBRANCH  13  17
ENDBRANCH  12  13
BRANCH  12  20
ATOM     20  C   UNL     1       3.877  -2.037   2.162  0.00  0.00    +0.145 C 
BRANCH  20  21
ATOM     21  C   UNL     1       4.834  -3.157   1.842  0.00  0.00    -0.032 A 
ATOM     22  C   UNL     1       4.538  -4.050   0.828  0.00  0.00    +0.005 A 
ATOM     23  C   UNL     1       5.415  -5.077   0.534  0.00  0.00    +0.000 A 
ATOM     24  C   UNL     1       6.588  -5.212   1.254  0.00  0.00    +0.000 A 
ATOM     25  C   UNL     1       6.884  -4.319   2.267  0.00  0.00    +0.000 A 
ATOM     26  C   UNL     1       6.009  -3.289   2.558  0.00  0.00    +0.005 A 
ENDBRANCH  20  21
ENDBRANCH  12  20
ENDBRANCH   9  12
ENDBRANCH   1   9
BRANCH   7  27
ATOM     27  C   UNL     1       1.219   5.147   4.525  0.00  0.00    +0.157 C 
BRANCH  27  28
ATOM     28  C   UNL     1       0.377   5.864   5.548  0.00  0.00    +0.051 A 
ATOM     29  C   UNL     1      -0.965   5.761   5.677  0.00  0.00    +0.115 A 
ATOM     30  N   UNL     1      -1.334   6.566   6.720  0.00  0.00    -0.308 N 
ATOM     31  C   UNL     1      -2.543   6.846   7.287  0.00  0.00    +0.092 A 
ATOM     32  C   UNL     1      -2.632   7.696   8.331  0.00  0.00    +0.018 A 
ATOM     33  C   UNL     1      -1.478   8.306   8.849  0.00  0.00    +0.005 A 
ATOM     34  C   UNL     1      -0.266   8.035   8.293  0.00  0.00    +0.045 A 
ATOM     35  C   UNL     1      -0.190   7.145   7.203  0.00  0.00    +0.115 A 
ATOM     36  N   UNL     1       0.831   6.702   6.483  0.00  0.00    -0.342 N 
ATOM     37  H   UNL     1       1.760   6.949   6.613  0.00  0.00    +0.167 HD
ENDBRANCH  27  28
ENDBRANCH   7  27
TORSDOF 8
