REMARK  Name = ZINC11405335
REMARK  7 active torsions:
REMARK  status: ('A' for Active; 'I' for Inactive)
REMARK    1  A    between atoms: C_4  and  N_7
REMARK    2  A    between atoms: C_9  and  C_21
REMARK    3  A    between atoms: C_10  and  C_12
REMARK    4  A    between atoms: C_22  and  C_23
REMARK    5  A    between atoms: C_23  and  O_25
REMARK    6  A    between atoms: O_25  and  C_26
REMARK    7  A    between atoms: C_26  and  C_27
REMARK                            x       y       z     vdW  Elec       q    Type
REMARK                         _______ _______ _______ _____ _____    ______ ____
ROOT
ATOM      1  N   UNL     1       3.623  -0.651  -0.037  0.00  0.00    -0.239 N 
ATOM      2  C   UNL     1       3.763  -1.989  -0.051  0.00  0.00    +0.123 A 
ATOM      3  C   UNL     1       5.116  -2.273  -0.064  0.00  0.00    +0.024 A 
ATOM      4  C   UNL     1       5.810  -0.978  -0.058  0.00  0.00    +0.135 A 
ATOM      5  N   UNL     1       4.882  -0.045  -0.046  0.00  0.00    -0.163 NA
ENDROOT
BRANCH   4   6
ATOM      6  C   UNL     1       7.270  -0.765  -0.068  0.00  0.00    +0.157 A 
ATOM      7  C   UNL     1       7.904   0.256  -0.695  0.00  0.00    +0.060 A 
ATOM      8  C   UNL     1       9.333   0.066  -0.437  0.00  0.00    +0.021 A 
ATOM      9  C   UNL     1      10.489   0.761  -0.798  0.00  0.00    +0.011 A 
ATOM     10  C   UNL     1      11.710   0.308  -0.383  0.00  0.00    +0.001 A 
ATOM     11  C   UNL     1      11.807  -0.837   0.395  0.00  0.00    +0.004 A 
ATOM     12  C   UNL     1      10.677  -1.537   0.762  0.00  0.00    +0.047 A 
ATOM     13  C   UNL     1       9.426  -1.095   0.351  0.00  0.00    +0.136 A 
ATOM     14  O   UNL     1       8.173  -1.552   0.550  0.00  0.00    -0.453 OA
ENDBRANCH   4   6
BRANCH   1  18
ATOM     15  C   UNL     1      -0.017   1.379   0.010  0.00  0.00    +0.000 A 
ATOM     16  C   UNL     1       1.170   2.089   0.002  0.00  0.00    +0.002 A 
ATOM     17  C   UNL     1       2.377   1.419  -0.013  0.00  0.00    +0.028 A 
ATOM     18  C   UNL     1       2.400   0.031  -0.021  0.00  0.00    +0.065 A 
ATOM     19  C   UNL     1       1.206  -0.680  -0.013  0.00  0.00    +0.028 A 
ATOM     20  C   UNL     1       0.002  -0.004   0.002  0.00  0.00    +0.002 A 
ENDBRANCH   1  18
BRANCH   3  21
ATOM     21  C   UNL     1       5.735  -3.603  -0.082  0.00  0.00    +0.018 C 
ATOM     22  C   UNL     1       4.958  -4.711  -0.087  0.00  0.00    +0.092 C 
BRANCH  22  23
ATOM     23  C   UNL     1       5.555  -5.993  -0.104  0.00  0.00    +0.332 C 
ATOM     24  O   UNL     1       6.768  -6.100  -0.115  0.00  0.00    -0.246 OA
BRANCH  23  25
ATOM     25  O   UNL     1       4.781  -7.098  -0.109  0.00  0.00    -0.452 OA
BRANCH  25  26
ATOM     26  C   UNL     1       5.451  -8.361  -0.126  0.00  0.00    +0.328 C 
BRANCH  26  27
ATOM     27  C   UNL     1       4.432  -9.470  -0.129  0.00  0.00    +0.256 C 
ATOM     28  O   UNL     1       3.248  -9.207  -0.117  0.00  0.00    -0.272 OA
ATOM     29  N   UNL     1       4.836 -10.756  -0.145  0.00  0.00    -0.265 N 
ATOM     30  C   UNL     1       3.892 -11.784  -0.148  0.00  0.00    +0.168 A 
ATOM     31  C   UNL     1       2.488 -11.624  -0.141  0.00  0.00    +0.088 A 
ATOM     32  C   UNL     1       1.929 -12.847  -0.146  0.00  0.00    +0.232 A 
ATOM     33  O   UNL     1       2.914 -13.758  -0.156  0.00  0.00    -0.361 OA
ATOM     34  N   UNL     1       4.150 -13.066  -0.163  0.00  0.00    -0.063 NA
ATOM     35  H   UNL     1       5.782 -10.967  -0.154  0.00  0.00    +0.156 HD
ENDBRANCH  26  27
ENDBRANCH  25  26
ENDBRANCH  23  25
ENDBRANCH  22  23
ENDBRANCH   3  21
TORSDOF 7
