REMARK  Name = ZINC13521697
REMARK  4 active torsions:
REMARK  status: ('A' for Active; 'I' for Inactive)
REMARK    1  A    between atoms: C_1  and  C_2
REMARK    2  A    between atoms: C_2  and  C_28
REMARK    3  A    between atoms: C_6  and  C_17
REMARK    4  A    between atoms: C_11  and  O_15
REMARK                            x       y       z     vdW  Elec       q    Type
REMARK                         _______ _______ _______ _____ _____    ______ ____
ROOT
ATOM      1  C   UNL     1      -0.019   1.526   0.010  0.00  0.00    +0.031 C 
ATOM      2  C   UNL     1       0.002  -0.004   0.002  0.00  0.00    +0.034 C 
ATOM      3  C   UNL     1      -1.434  -0.544   0.056  0.00  0.00    +0.096 C 
ATOM      4  C   UNL     1      -1.384  -2.073   0.033  0.00  0.00    +0.186 C 
ATOM      5  C   UNL     1      -2.785  -2.629   0.316  0.00  0.00    +0.084 C 
ATOM      6  C   UNL     1      -3.762  -2.008  -0.685  0.00  0.00    +0.061 C 
ATOM      7  C   UNL     1      -3.195  -2.112  -2.079  0.00  0.00    +0.004 A 
ATOM      8  C   UNL     1      -4.051  -1.964  -3.158  0.00  0.00    +0.031 A 
ATOM      9  C   UNL     1      -3.568  -2.049  -4.449  0.00  0.00    +0.083 A 
ATOM     10  C   UNL     1      -2.217  -2.283  -4.669  0.00  0.00    +0.139 A 
ATOM     11  C   UNL     1      -1.360  -2.434  -3.592  0.00  0.00    +0.093 A 
ATOM     12  C   UNL     1      -1.848  -2.351  -2.293  0.00  0.00    +0.131 A 
ATOM     13  O   UNL     1      -0.978  -2.516  -1.263  0.00  0.00    -0.466 OA
ATOM     14 CL   UNL     1      -4.648  -1.862  -5.795  0.00  0.00    -0.080 Cl
ATOM     15  N   UNL     1      -0.450  -2.569   1.039  0.00  0.00    -0.330 N 
ATOM     16  C   UNL     1       0.547  -1.806   1.558  0.00  0.00    +0.142 C 
ATOM     17  N   UNL     1       0.712  -0.499   1.191  0.00  0.00    -0.320 N 
ATOM     18  S   UNL     1       1.588  -2.475   2.664  0.00  0.00    -0.016 SA
ATOM     19  C   UNL     1       0.699  -0.506  -1.264  0.00  0.00    +0.031 C 
ATOM     20  H   UNL     1       1.287   0.090   1.704  0.00  0.00    +0.148 HD
ATOM     21  H   UNL     1      -0.546  -3.482   1.351  0.00  0.00    +0.165 HD
ENDROOT
BRANCH   6  22
ATOM     22  C   UNL     1      -5.077  -2.740  -0.624  0.00  0.00    -0.004 A 
ATOM     23  C   UNL     1      -5.128  -4.094  -0.897  0.00  0.00    +0.007 A 
ATOM     24  C   UNL     1      -6.334  -4.766  -0.840  0.00  0.00    +0.000 A 
ATOM     25  C   UNL     1      -7.492  -4.085  -0.511  0.00  0.00    +0.003 A 
ATOM     26  C   UNL     1      -7.443  -2.732  -0.238  0.00  0.00    +0.038 A 
ATOM     27  C   UNL     1      -6.234  -2.058  -0.289  0.00  0.00    +0.127 A 
ATOM     28  F   UNL     1      -6.185  -0.736  -0.017  0.00  0.00    -0.205 F 
ENDBRANCH   6  22
BRANCH  10  29
ATOM     29  O   UNL     1      -1.737  -2.365  -5.938  0.00  0.00    -0.505 OA
ATOM     30  H   UNL     1      -1.448  -1.519  -6.305  0.00  0.00    +0.292 HD
ENDBRANCH  10  29
TORSDOF 2
