REMARK  Name = ZINC23709457
REMARK  7 active torsions:
REMARK  status: ('A' for Active; 'I' for Inactive)
REMARK    1  A    between atoms: C_4  and  C_7
REMARK    2  A    between atoms: C_8  and  C_9
REMARK    3  A    between atoms: C_9  and  N_10
REMARK    4  A    between atoms: N_13  and  C_16
REMARK    5  A    between atoms: C_19  and  S_25
REMARK    6  A    between atoms: C_21  and  N_22
REMARK    7  A    between atoms: S_25  and  N_28
REMARK                            x       y       z     vdW  Elec       q    Type
REMARK                         _______ _______ _______ _____ _____    ______ ____
ROOT
ATOM      1  C   UNL     1       2.869  -0.462   2.296  0.00  0.00    +0.060 A 
ATOM      2  C   UNL     1       2.990  -1.833   2.483  0.00  0.00    +0.027 A 
ATOM      3  C   UNL     1       3.725  -2.321   3.546  0.00  0.00    +0.030 A 
ATOM      4  C   UNL     1       4.338  -1.446   4.424  0.00  0.00    +0.108 A 
ATOM      5  C   UNL     1       4.219  -0.080   4.240  0.00  0.00    +0.063 A 
ATOM      6  C   UNL     1       3.491   0.414   3.175  0.00  0.00    +0.149 A 
ENDROOT
BRANCH   1  10
ATOM      7  N   UNL     1       0.552  -0.171  -1.142  0.00  0.00    +0.384 N 
ATOM      8  C   UNL     1      -0.063   0.202   0.140  0.00  0.00    -0.059 C 
ATOM      9  C   UNL     1       0.733  -0.426   1.286  0.00  0.00    +0.086 C 
ATOM     10  N   UNL     1       2.127   0.034   1.221  0.00  0.00    -0.332 N 
ATOM     11  C   UNL     1       2.742  -0.338  -0.060  0.00  0.00    +0.086 C 
ATOM     12  C   UNL     1       1.946   0.290  -1.207  0.00  0.00    -0.059 C 
ATOM     13  H   UNL     1       0.554  -1.268  -1.212  0.00  0.00    -0.081 HD
BRANCH   7  14
ATOM     14  C   UNL     1      -0.228   0.351  -2.272  0.00  0.00    -0.051 C 
BRANCH  14  16
ATOM     15  C   UNL     1      -2.682   0.394  -2.305  0.00  0.00    +0.002 C 
ATOM     16  C   UNL     1      -1.571  -0.330  -2.312  0.00  0.00    -0.045 C 
BRANCH  15  20
ATOM     17  C   UNL     1      -6.469  -1.526  -2.418  0.00  0.00    +0.000 A 
ATOM     18  C   UNL     1      -6.398  -0.145  -2.374  0.00  0.00    +0.001 A 
ATOM     19  C   UNL     1      -5.171   0.485  -2.337  0.00  0.00    +0.008 A 
ATOM     20  C   UNL     1      -4.000  -0.274  -2.344  0.00  0.00    -0.025 A 
ATOM     21  C   UNL     1      -4.078  -1.666  -2.394  0.00  0.00    +0.008 A 
ATOM     22  C   UNL     1      -5.312  -2.284  -2.425  0.00  0.00    +0.001 A 
ENDBRANCH  15  20
ENDBRANCH  14  16
ENDBRANCH   7  14
ENDBRANCH   1  10
BRANCH   6  23
ATOM     23  N   UNL     1       3.369   1.875   2.976  0.00  0.00    +0.058 N 
ATOM     24  O   UNL     1       3.990   2.641   3.691  0.00  0.00    -0.126 OA
ATOM     25  O   UNL     1       2.648   2.312   2.097  0.00  0.00    -0.126 OA
ENDBRANCH   6  23
BRANCH   4  26
ATOM     26  S   UNL     1       5.274  -2.072   5.779  0.00  0.00    +0.061 S 
ATOM     27  O   UNL     1       5.294  -1.050   6.766  0.00  0.00    -0.153 OA
ATOM     28  O   UNL     1       4.781  -3.377   6.045  0.00  0.00    -0.153 OA
BRANCH  26  29
ATOM     29  N   UNL     1       6.835  -2.253   5.254  0.00  0.00    -0.177 NA
ATOM     30  C   UNL     1       7.227  -3.517   4.672  0.00  0.00    +0.109 C 
ATOM     31  C   UNL     1       7.736  -4.468   5.776  0.00  0.00    +0.017 C 
ATOM     32  C   UNL     1       9.042  -4.015   6.278  0.00  0.00    +0.001 C 
ATOM     33  C   UNL     1       9.017  -2.642   6.942  0.00  0.00    +0.001 C 
ATOM     34  C   UNL     1       9.158  -1.573   5.887  0.00  0.00    +0.017 C 
ATOM     35  C   UNL     1       7.768  -1.120   5.405  0.00  0.00    +0.109 C 
ENDBRANCH  26  29
ENDBRANCH   4  26
TORSDOF 7
