REMARK  Name = ZINC37449889
REMARK  5 active torsions:
REMARK  status: ('A' for Active; 'I' for Inactive)
REMARK    1  A    between atoms: C_1  and  C_2
REMARK    2  A    between atoms: C_5  and  C_11
REMARK    3  A    between atoms: N_8  and  C_10
REMARK    4  A    between atoms: C_15  and  O_23
REMARK    5  A    between atoms: C_18  and  C_20
REMARK                            x       y       z     vdW  Elec       q    Type
REMARK                         _______ _______ _______ _____ _____    ______ ____
ROOT
ATOM      1  C   UNL     1       0.005  -1.888  -4.818  0.00  0.00    +0.254 C 
ATOM      2  O   UNL     1      -0.012  -0.871  -5.487  0.00  0.00    -0.269 OA
ATOM      3  N   UNL     1       0.019  -3.092  -5.423  0.00  0.00    -0.281 N 
ATOM      4  C   UNL     1       0.034  -4.397  -4.738  0.00  0.00    +0.140 C 
ATOM      5  C   UNL     1      -0.568  -5.390  -5.763  0.00  0.00    +0.134 C 
ATOM      6  C   UNL     1       0.010  -4.849  -7.098  0.00  0.00    +0.067 C 
ATOM      7  C   UNL     1       0.015  -3.322  -6.875  0.00  0.00    +0.192 C 
ENDROOT
BRANCH   1  12
ATOM      8  C   UNL     1      -0.018   1.503   0.010  0.00  0.00    +0.068 C 
ATOM      9  C   UNL     1       0.002  -0.004   0.002  0.00  0.00    +0.068 A 
ATOM     10  C   UNL     1       0.008  -0.829  -1.170  0.00  0.00    +0.031 A 
ATOM     11  C   UNL     1      -0.000  -0.690  -2.567  0.00  0.00    +0.032 A 
ATOM     12  C   UNL     1       0.011  -1.802  -3.355  0.00  0.00    +0.077 A 
ATOM     13  S   UNL     1       0.035  -3.128  -2.161  0.00  0.00    -0.064 S 
ATOM     14  C   UNL     1       0.028  -2.145  -0.684  0.00  0.00    +0.107 A 
ATOM     15  N   UNL     1       0.033  -2.107   0.662  0.00  0.00    -0.260 N 
ATOM     16  N   UNL     1       0.023  -0.763   1.056  0.00  0.00    -0.175 NA
ATOM     17  C   UNL     1       0.053  -3.267   1.556  0.00  0.00    +0.173 C 
ENDBRANCH   1  12
BRANCH   7  18
ATOM     18  C   UNL     1       1.251  -2.721  -7.492  0.00  0.00    +0.376 C 
ATOM     19  O   UNL     1       2.141  -2.289  -6.779  0.00  0.00    -0.244 OA
ATOM     20  O   UNL     1       1.362  -2.666  -8.705  0.00  0.00    -0.244 OA
ENDBRANCH   7  18
BRANCH   5  21
ATOM     21  O   UNL     1      -0.117  -6.723  -5.512  0.00  0.00    -0.390 OA
ATOM     22  H   UNL     1      -0.372  -7.068  -4.645  0.00  0.00    +0.210 HD
ENDBRANCH   5  21
TORSDOF 3
