REMARK  Name = ZINC09410234
REMARK  10 active torsions:
REMARK  status: ('A' for Active; 'I' for Inactive)
REMARK    1  A    between atoms: C_1  and  C_2
REMARK    2  A    between atoms: C_2  and  C_3
REMARK    3  A    between atoms: C_5  and  C_21
REMARK    4  A    between atoms: C_6  and  O_20
REMARK    5  A    between atoms: C_8  and  O_9
REMARK    6  A    between atoms: O_9  and  C_10
REMARK    7  A    between atoms: C_10  and  C_11
REMARK    8  A    between atoms: C_14  and  N_17
REMARK    9  A    between atoms: C_22  and  C_28
REMARK   10  A    between atoms: C_23  and  C_27
REMARK                            x       y       z     vdW  Elec       q    Type
REMARK                         _______ _______ _______ _____ _____    ______ ____
ROOT
ATOM      1  C   UNL     1      -1.647  -0.865  -0.298  0.00  0.00    -0.005 A 
ATOM      2  C   UNL     1      -2.155  -1.127   0.957  0.00  0.00    +0.020 A 
ATOM      3  C   UNL     1      -3.495  -1.489   1.105  0.00  0.00    +0.042 A 
ATOM      4  C   UNL     1      -4.318  -1.584  -0.025  0.00  0.00    +0.129 A 
ATOM      5  C   UNL     1      -3.798  -1.318  -1.280  0.00  0.00    +0.092 A 
ATOM      6  C   UNL     1      -2.466  -0.954  -1.416  0.00  0.00    +0.128 A 
ENDROOT
BRANCH   3   7
ATOM      7  C   UNL     1      -4.043  -1.771   2.446  0.00  0.00    +0.077 A 
ATOM      8  C   UNL     1      -5.009  -1.032   3.117  0.00  0.00    +0.030 A 
ATOM      9  C   UNL     1      -5.228  -1.658   4.356  0.00  0.00    +0.068 A 
ATOM     10  N   UNL     1      -4.451  -2.705   4.437  0.00  0.00    -0.178 NA
ATOM     11  N   UNL     1      -3.700  -2.810   3.260  0.00  0.00    -0.276 N 
ATOM     12  H   UNL     1      -3.049  -3.500   3.059  0.00  0.00    +0.189 HD
ATOM     13  C   UNL     1      -6.197  -1.198   5.415  0.00  0.00    +0.068 C 
BRANCH   8  14
ATOM     14  C   UNL     1      -5.684   0.190   2.618  0.00  0.00    -0.010 A 
ATOM     15  C   UNL     1      -4.950   1.358   2.409  0.00  0.00    +0.012 A 
ATOM     16  C   UNL     1      -5.581   2.494   1.946  0.00  0.00    +0.050 A 
ATOM     17  C   UNL     1      -6.944   2.480   1.685  0.00  0.00    +0.162 A 
ATOM     18  C   UNL     1      -7.680   1.318   1.889  0.00  0.00    +0.163 A 
ATOM     19  C   UNL     1      -7.051   0.173   2.350  0.00  0.00    +0.058 A 
ATOM     20  O   UNL     1      -9.016   1.285   1.631  0.00  0.00    -0.485 OA
ATOM     21  C   UNL     1      -9.682   2.548   1.520  0.00  0.00    +0.270 C 
ATOM     22  C   UNL     1      -8.834   3.461   0.625  0.00  0.00    +0.270 C 
ATOM     23  O   UNL     1      -7.546   3.615   1.233  0.00  0.00    -0.485 OA
ENDBRANCH   8  14
ENDBRANCH   3   7
BRANCH   1  25
ATOM     24  C   UNL     1      -0.084   1.052  -0.482  0.00  0.00    +0.009 C 
ATOM     25  C   UNL     1      -0.200  -0.474  -0.456  0.00  0.00    +0.035 C 
ENDBRANCH   1  25
BRANCH   4  26
ATOM     26  O   UNL     1      -5.623  -1.936   0.110  0.00  0.00    -0.506 OA
ATOM     27  H   UNL     1      -6.221  -1.187   0.238  0.00  0.00    +0.292 HD
ENDBRANCH   4  26
BRANCH   6  28
ATOM     28  O   UNL     1      -1.960  -0.688  -2.648  0.00  0.00    -0.487 OA
BRANCH  28  29
ATOM     29  C   UNL     1      -2.856  -0.798  -3.756  0.00  0.00    +0.264 C 
BRANCH  29  30
ATOM     30  C   UNL     1      -2.123  -0.469  -5.031  0.00  0.00    -0.010 A 
ATOM     31  C   UNL     1      -2.080   0.835  -5.486  0.00  0.00    +0.009 A 
ATOM     32  C   UNL     1      -1.408   1.137  -6.655  0.00  0.00    +0.033 A 
ATOM     33  C   UNL     1      -0.778   0.135  -7.369  0.00  0.00    +0.126 A 
ATOM     34  C   UNL     1      -0.820  -1.169  -6.913  0.00  0.00    +0.033 A 
ATOM     35  C   UNL     1      -1.489  -1.471  -5.742  0.00  0.00    +0.009 A 
BRANCH  33  36
ATOM     36  N   UNL     1      -0.059   0.458  -8.622  0.00  0.00    +0.056 N 
ATOM     37  O   UNL     1      -0.022   1.599  -9.021  0.00  0.00    -0.126 OA
ATOM     38  O   UNL     1       0.492  -0.419  -9.246  0.00  0.00    -0.126 OA
ENDBRANCH  33  36
ENDBRANCH  29  30
ENDBRANCH  28  29
ENDBRANCH   6  28
TORSDOF 8
