REMARK  Name = ZINC39306862
REMARK  10 active torsions:
REMARK  status: ('A' for Active; 'I' for Inactive)
REMARK    1  A    between atoms: C_1  and  C_2
REMARK    2  A    between atoms: C_2  and  O_3
REMARK    3  A    between atoms: O_3  and  C_4
REMARK    4  A    between atoms: C_4  and  C_6
REMARK    5  A    between atoms: C_6  and  C_24
REMARK    6  A    between atoms: N_10  and  C_12
REMARK    7  A    between atoms: C_12  and  C_13
REMARK    8  A    between atoms: N_15  and  C_16
REMARK    9  A    between atoms: C_19  and  C_23
REMARK   10  A    between atoms: C_24  and  C_25
REMARK                            x       y       z     vdW  Elec       q    Type
REMARK                         _______ _______ _______ _____ _____    ______ ____
ROOT
ATOM      1  C   UNL     1      -2.848  -2.422   0.035  0.00  0.00    +0.057 C 
ATOM      2  C   UNL     1      -3.620  -1.955  -1.203  0.00  0.00    +0.015 C 
ATOM      3  C   UNL     1      -2.920  -2.484  -2.458  0.00  0.00    -0.018 C 
ATOM      4  C   UNL     1      -2.822  -4.009  -2.377  0.00  0.00    -0.078 C 
ATOM      5  N   UNL     1      -2.051  -4.391  -1.188  0.00  0.00    +0.386 N 
ATOM      6  C   UNL     1      -2.752  -3.949   0.024  0.00  0.00    -0.060 C 
ATOM      7  H   UNL     1      -1.141  -3.957  -1.225  0.00  0.00    -0.081 HD
ENDROOT
BRANCH   1   8
ATOM      8  C   UNL     1      -1.461  -1.831   0.015  0.00  0.00    +0.312 C 
ATOM      9  O   UNL     1      -0.495  -2.557  -0.005  0.00  0.00    -0.250 OA
BRANCH   8  10
ATOM     10  O   UNL     1      -1.299  -0.499   0.021  0.00  0.00    -0.465 OA
BRANCH  10  12
ATOM     11  C   UNL     1       0.026   1.522   0.011  0.00  0.00    +0.048 C 
ATOM     12  C   UNL     1       0.043  -0.008   0.002  0.00  0.00    +0.229 C 
ENDBRANCH  10  12
ENDBRANCH   8  10
ENDBRANCH   1   8
BRANCH   5  13
ATOM     13  C   UNL     1      -1.893  -5.851  -1.156  0.00  0.00    +0.019 C 
BRANCH  13  14
ATOM     14  C   UNL     1      -1.060  -6.292  -2.331  0.00  0.00    +0.201 C 
ATOM     15  O   UNL     1      -0.638  -5.471  -3.118  0.00  0.00    -0.278 OA
ATOM     16  N   UNL     1      -0.782  -7.599  -2.508  0.00  0.00    -0.286 N 
ATOM     17  H   UNL     1      -1.064  -8.248  -1.845  0.00  0.00    +0.155 HD
BRANCH  16  18
ATOM     18  C   UNL     1      -0.089  -8.019  -3.649  0.00  0.00    +0.047 A 
ATOM     19  C   UNL     1       0.897  -7.212  -4.200  0.00  0.00    +0.024 A 
ATOM     20  C   UNL     1       1.580  -7.629  -5.326  0.00  0.00    +0.005 A 
ATOM     21  C   UNL     1       1.283  -8.850  -5.904  0.00  0.00    -0.049 A 
ATOM     22  C   UNL     1       0.301  -9.656  -5.358  0.00  0.00    +0.020 A 
ATOM     23  C   UNL     1      -0.382  -9.247  -4.229  0.00  0.00    +0.039 A 
ATOM     24 BR   UNL     1      -1.718 -10.354  -3.478  0.00  0.00    -0.048 Br
ATOM     25  C   UNL     1       2.030  -9.302  -7.132  0.00  0.00    +0.044 C 
ENDBRANCH  16  18
ENDBRANCH  13  14
ENDBRANCH   5  13
BRANCH   1  26
ATOM     26  C   UNL     1      -3.580  -1.965   1.298  0.00  0.00    +0.051 C 
BRANCH  26  27
ATOM     27  C   UNL     1      -3.675  -0.461   1.307  0.00  0.00    -0.046 A 
ATOM     28  C   UNL     1      -2.672   0.291   1.889  0.00  0.00    +0.006 A 
ATOM     29  C   UNL     1      -2.758   1.671   1.897  0.00  0.00    +0.038 A 
ATOM     30  C   UNL     1      -3.849   2.299   1.322  0.00  0.00    +0.123 A 
ATOM     31  C   UNL     1      -4.854   1.545   0.739  0.00  0.00    +0.038 A 
ATOM     32  C   UNL     1      -4.763   0.166   0.728  0.00  0.00    +0.006 A 
ATOM     33  F   UNL     1      -3.935   3.647   1.330  0.00  0.00    -0.205 F 
ENDBRANCH  26  27
ENDBRANCH   1  26
TORSDOF 8
