REMARK  Name = ZINC60442656
REMARK  4 active torsions:
REMARK  status: ('A' for Active; 'I' for Inactive)
REMARK    1  A    between atoms: C_3  and  N_13
REMARK    2  A    between atoms: C_5  and  N_7
REMARK    3  A    between atoms: N_13  and  S_14
REMARK    4  A    between atoms: S_14  and  C_17
REMARK                            x       y       z     vdW  Elec       q    Type
REMARK                         _______ _______ _______ _____ _____    ______ ____
ROOT
ATOM      1  N   UNL     1       3.581   2.132  -0.022  0.00  0.00    -0.098 NA
ENDROOT
BRANCH   1   4
ATOM      2  C   UNL     1      -0.017   1.377   0.010  0.00  0.00    +0.004 A 
ATOM      3  C   UNL     1       1.169   2.087   0.002  0.00  0.00    +0.027 A 
ATOM      4  C   UNL     1       2.384   1.413  -0.014  0.00  0.00    +0.076 A 
ATOM      5  C   UNL     1       2.405   0.025  -0.021  0.00  0.00    +0.050 A 
ATOM      6  C   UNL     1       1.214  -0.684  -0.013  0.00  0.00    +0.041 A 
ATOM      7  C   UNL     1       0.002  -0.004   0.002  0.00  0.00    +0.024 A 
BRANCH   6   8
ATOM      8  N   UNL     1       1.232  -2.083  -0.021  0.00  0.00    -0.234 N 
ATOM      9  C   UNL     1       0.050  -2.969  -0.021  0.00  0.00    +0.158 C 
ATOM     10  C   UNL     1       0.664  -4.333  -0.415  0.00  0.00    +0.253 C 
ATOM     11  O   UNL     1       2.037  -4.175  -0.006  0.00  0.00    -0.448 OA
ATOM     12  C   UNL     1       2.329  -2.863  -0.037  0.00  0.00    +0.407 C 
ATOM     13  O   UNL     1       3.463  -2.428  -0.073  0.00  0.00    -0.226 OA
ENDBRANCH   6   8
ENDBRANCH   1   4
BRANCH   1  14
ATOM     14  S   UNL     1       3.554   3.787  -0.013  0.00  0.00    +0.097 S 
ATOM     15  O   UNL     1       2.984   4.191  -1.251  0.00  0.00    -0.148 OA
ATOM     16  O   UNL     1       3.009   4.178   1.239  0.00  0.00    -0.148 OA
BRANCH  14  17
ATOM     17  C   UNL     1       5.228   4.336  -0.028  0.00  0.00    +0.180 A 
ATOM     18  C   UNL     1       5.900   4.540   1.165  0.00  0.00    +0.156 A 
ATOM     19  C   UNL     1       7.215   4.971   1.154  0.00  0.00    +0.078 A 
ATOM     20  C   UNL     1       7.859   5.198  -0.050  0.00  0.00    +0.129 A 
ATOM     21  C   UNL     1       7.188   4.993  -1.243  0.00  0.00    +0.078 A 
ATOM     22  C   UNL     1       5.874   4.558  -1.232  0.00  0.00    +0.156 A 
ATOM     23  F   UNL     1       5.220   4.353  -2.397  0.00  0.00    -0.203 F 
ATOM     24  F   UNL     1       9.143   5.620  -0.061  0.00  0.00    -0.205 F 
ATOM     25  F   UNL     1       5.272   4.319   2.341  0.00  0.00    -0.203 F 
ENDBRANCH  14  17
ENDBRANCH   1  14
TORSDOF 4
