REMARK  Name = ZINC04059401
REMARK  8 active torsions:
REMARK  status: ('A' for Active; 'I' for Inactive)
REMARK    1  A    between atoms: C_1  and  C_2
REMARK    2  A    between atoms: C_2  and  C_3
REMARK    3  A    between atoms: C_2  and  S_4
REMARK    4  A    between atoms: S_4  and  C_5
REMARK    5  A    between atoms: C_8  and  C_16
REMARK    6  A    between atoms: N_9  and  C_10
REMARK    7  A    between atoms: C_16  and  N_17
REMARK    8  A    between atoms: C_18  and  C_20
REMARK                            x       y       z     vdW  Elec       q    Type
REMARK                         _______ _______ _______ _____ _____    ______ ____
ROOT
ATOM      1  C   UNL     1      -5.219   3.421  -0.574  0.00  0.00    +0.196 A 
ATOM      2  N   UNL     1      -5.148   3.359   0.736  0.00  0.00    -0.122 NA
ATOM      3  N   UNL     1      -4.200   2.564   1.085  0.00  0.00    -0.132 NA
ATOM      4  C   UNL     1      -3.608   2.080   0.030  0.00  0.00    +0.156 A 
ATOM      5  N   UNL     1      -4.237   2.606  -1.067  0.00  0.00    -0.273 N 
ENDROOT
BRANCH   5   6
ATOM      6  C   UNL     1      -3.938   2.359  -2.415  0.00  0.00    +0.050 A 
ATOM      7  C   UNL     1      -2.720   2.767  -2.942  0.00  0.00    +0.026 A 
ATOM      8  C   UNL     1      -2.426   2.518  -4.269  0.00  0.00    +0.002 A 
ATOM      9  C   UNL     1      -3.347   1.873  -5.074  0.00  0.00    +0.000 A 
ATOM     10  C   UNL     1      -4.563   1.470  -4.552  0.00  0.00    +0.002 A 
ATOM     11  C   UNL     1      -4.861   1.712  -3.225  0.00  0.00    +0.026 A 
ENDBRANCH   5   6
BRANCH   1  12
ATOM     12  S   UNL     1      -6.363   4.373  -1.518  0.00  0.00    -0.083 S 
BRANCH  12  14
ATOM     13  C   UNL     1      -8.303   6.146  -0.772  0.00  0.00    +0.019 C 
ATOM     14  C   UNL     1      -7.303   5.151  -0.180  0.00  0.00    +0.048 C 
ATOM     15  C   UNL     1      -8.057   4.076   0.605  0.00  0.00    +0.019 C 
ENDBRANCH  12  14
ENDBRANCH   1  12
BRANCH   4  16
ATOM     16  C   UNL     1      -2.449   1.117   0.020  0.00  0.00    +0.181 C 
BRANCH  16  17
ATOM     17  N   UNL     1      -1.191   1.867   0.018  0.00  0.00    -0.308 N 
ATOM     18  C   UNL     1      -0.014   1.209   0.009  0.00  0.00    +0.220 C 
ATOM     19  O   UNL     1       0.002  -0.004   0.002  0.00  0.00    -0.275 OA
ATOM     20  H   UNL     1      -1.204   2.837   0.023  0.00  0.00    +0.149 HD
BRANCH  18  21
ATOM     21  C   UNL     1       1.280   1.980   0.001  0.00  0.00    +0.048 C 
ATOM     22  C   UNL     1       1.337   2.867  -1.245  0.00  0.00    +0.019 C 
ATOM     23  C   UNL     1       2.652   3.650  -1.253  0.00  0.00    -0.009 C 
ATOM     24  C   UNL     1       3.828   2.672  -1.270  0.00  0.00    +0.007 C 
ATOM     25  C   UNL     1       3.771   1.784  -0.024  0.00  0.00    -0.009 C 
ATOM     26  C   UNL     1       2.457   1.002  -0.016  0.00  0.00    +0.019 C 
ATOM     27  C   UNL     1       3.852   2.658   1.229  0.00  0.00    +0.007 C 
ATOM     28  C   UNL     1       2.676   3.637   1.245  0.00  0.00    -0.009 C 
ATOM     29  C   UNL     1       2.733   4.524   0.000  0.00  0.00    +0.007 C 
ATOM     30  C   UNL     1       1.361   2.854   1.254  0.00  0.00    +0.019 C 
ENDBRANCH  18  21
ENDBRANCH  16  17
ENDBRANCH   4  16
TORSDOF 6
