REMARK  Name = ZINC36207542
REMARK  16 active torsions:
REMARK  status: ('A' for Active; 'I' for Inactive)
REMARK    1  A    between atoms: C_1  and  C_2
REMARK    2  A    between atoms: C_7  and  O_8
REMARK    3  A    between atoms: O_8  and  C_9
REMARK    4  A    between atoms: C_9  and  C_10
REMARK    5  A    between atoms: C_10  and  C_12
REMARK    6  A    between atoms: C_10  and  O_34
REMARK    7  A    between atoms: C_12  and  N_13
REMARK    8  A    between atoms: N_13  and  C_14
REMARK    9  A    between atoms: N_13  and  C_31
REMARK   10  A    between atoms: C_14  and  C_15
REMARK   11  A    between atoms: C_21  and  C_30
REMARK   12  A    between atoms: C_22  and  C_26
REMARK   13  A    between atoms: C_26  and  O_28
REMARK   14  A    between atoms: O_28  and  C_29
REMARK   15  A    between atoms: C_31  and  C_32
REMARK   16  A    between atoms: C_31  and  C_33
REMARK                            x       y       z     vdW  Elec       q    Type
REMARK                         _______ _______ _______ _____ _____    ______ ____
ROOT
ATOM      1  N   UNL     1      -0.090   0.448   7.332  0.00  0.00    +0.388 N 
ATOM      2  H   UNL     1       0.242   1.288   6.882  0.00  0.00    -0.081 HD
ENDROOT
BRANCH   1   3
ATOM      3  C   UNL     1      -1.165   0.788   8.273  0.00  0.00    -0.074 C 
ATOM      4  C   UNL     1      -1.667  -0.485   8.957  0.00  0.00    -0.014 C 
ATOM      5  C   UNL     1      -0.630   1.758   9.330  0.00  0.00    -0.014 C 
ENDBRANCH   1   3
BRANCH   1   6
ATOM      6  C   UNL     1      -0.604  -0.481   6.317  0.00  0.00    -0.043 C 
BRANCH   6   7
ATOM      7  C   UNL     1      -1.640   0.235   5.448  0.00  0.00    +0.135 C 
BRANCH   7   8
ATOM      8  O   UNL     1      -2.808   0.506   6.226  0.00  0.00    -0.390 OA
ATOM      9  H   UNL     1      -3.193  -0.276   6.643  0.00  0.00    +0.210 HD
ENDBRANCH   7   8
BRANCH   7  10
ATOM     10  C   UNL     1      -2.014  -0.655   4.261  0.00  0.00    +0.258 C 
BRANCH  10  11
ATOM     11  O   UNL     1      -2.892   0.059   3.388  0.00  0.00    -0.489 OA
BRANCH  11  18
ATOM     12  C   UNL     1      -4.629   1.452   1.650  0.00  0.00    +0.047 C 
ATOM     13  C   UNL     1      -4.175   0.039   1.385  0.00  0.00    -0.009 A 
ATOM     14  C   UNL     1      -4.606  -0.624   0.253  0.00  0.00    +0.007 A 
ATOM     15  C   UNL     1      -4.190  -1.920   0.010  0.00  0.00    +0.000 A 
ATOM     16  C   UNL     1      -3.343  -2.555   0.899  0.00  0.00    +0.004 A 
ATOM     17  C   UNL     1      -2.910  -1.896   2.033  0.00  0.00    +0.046 A 
ATOM     18  C   UNL     1      -3.321  -0.594   2.276  0.00  0.00    +0.124 A 
ENDBRANCH  11  18
ENDBRANCH  10  11
ENDBRANCH   7  10
ENDBRANCH   6   7
ENDBRANCH   1   6
BRANCH   1  19
ATOM     19  C   UNL     1       1.016  -0.187   8.061  0.00  0.00    -0.003 C 
BRANCH  19  20
ATOM     20  C   UNL     1       1.880   0.876   8.688  0.00  0.00    +0.094 A 
ATOM     21  N   UNL     1       2.873   0.504   9.533  0.00  0.00    -0.312 N 
ATOM     22  H   UNL     1       3.010  -0.438   9.719  0.00  0.00    +0.170 HD
ATOM     23  C   UNL     1       3.674   1.416  10.118  0.00  0.00    +0.260 A 
ATOM     24  O   UNL     1       4.564   1.071  10.876  0.00  0.00    -0.267 OA
ATOM     25  C   UNL     1       3.445   2.847   9.818  0.00  0.00    +0.076 A 
ATOM     26  C   UNL     1       4.129   3.969  10.290  0.00  0.00    -0.015 A 
ATOM     27  C   UNL     1       3.753   5.216   9.883  0.00  0.00    +0.102 A 
ATOM     28  S   UNL     1       2.385   4.877   8.787  0.00  0.00    -0.062 S 
ATOM     29  C   UNL     1       2.381   3.107   8.924  0.00  0.00    +0.116 A 
ATOM     30  N   UNL     1       1.655   2.129   8.398  0.00  0.00    -0.229 NA
ATOM     31  C   UNL     1       5.280   3.803  11.249  0.00  0.00    +0.046 C 
BRANCH  27  32
ATOM     32  C   UNL     1       4.328   6.511  10.252  0.00  0.00    +0.346 C 
ATOM     33  O   UNL     1       5.270   6.561  11.021  0.00  0.00    -0.244 OA
BRANCH  32  34
ATOM     34  O   UNL     1       3.814   7.648   9.741  0.00  0.00    -0.464 OA
ATOM     35  C   UNL     1       4.425   8.875  10.145  0.00  0.00    +0.280 C 
ENDBRANCH  32  34
ENDBRANCH  27  32
ENDBRANCH  19  20
ENDBRANCH   1  19
TORSDOF 11
