REMARK  Name = ZINC13305363
REMARK  9 active torsions:
REMARK  status: ('A' for Active; 'I' for Inactive)
REMARK    1  A    between atoms: C_1  and  O_2
REMARK    2  A    between atoms: O_2  and  P_3
REMARK    3  A    between atoms: P_3  and  C_14
REMARK    4  A    between atoms: P_3  and  O_33
REMARK    5  A    between atoms: N_4  and  C_5
REMARK    6  A    between atoms: C_8  and  N_11
REMARK    7  A    between atoms: C_15  and  N_27
REMARK    8  A    between atoms: C_17  and  C_18
REMARK    9  A    between atoms: O_33  and  C_34
REMARK                            x       y       z     vdW  Elec       q    Type
REMARK                         _______ _______ _______ _____ _____    ______ ____
ROOT
ATOM      1  C   UNL     1      -6.546   2.012  -0.660  0.00  0.00    +0.041 C 
ATOM      2  C   UNL     1      -7.521   1.863   0.235  0.00  0.00    +0.026 C 
ATOM      3  C   UNL     1      -7.900   0.521   0.712  0.00  0.00    -0.027 C 
ATOM      4  C   UNL     1      -8.715   0.362   1.770  0.00  0.00    +0.013 C 
ATOM      5  C   UNL     1      -7.338  -0.674  -0.031  0.00  0.00    +0.037 C 
ATOM      6  C   UNL     1      -5.864  -0.370  -0.336  0.00  0.00    +0.010 C 
ATOM      7  C   UNL     1      -5.790   0.857  -1.247  0.00  0.00    +0.044 C 
ENDROOT
BRANCH   2   8
ATOM      8  N   UNL     1      -8.190   2.988   0.725  0.00  0.00    -0.389 NA
ATOM      9  C   UNL     1      -7.481   4.007   1.514  0.00  0.00    +0.113 C 
ATOM     10  C   UNL     1      -7.789   5.385   0.904  0.00  0.00    +0.177 C 
ATOM     11  O   UNL     1      -9.205   5.542   0.793  0.00  0.00    -0.377 OA
ATOM     12  C   UNL     1      -9.832   4.599  -0.080  0.00  0.00    +0.177 C 
ATOM     13  C   UNL     1      -9.627   3.184   0.474  0.00  0.00    +0.113 C 
ATOM     14  H   UNL     1      -7.654   2.131   0.291  0.00  0.00    +0.127 HD
ENDBRANCH   2   8
BRANCH   4  15
ATOM     15  C   UNL     1      -8.757   1.387   2.827  0.00  0.00    -0.025 A 
ATOM     16  C   UNL     1      -7.583   2.028   3.232  0.00  0.00    +0.008 A 
ATOM     17  C   UNL     1      -7.631   2.990   4.218  0.00  0.00    +0.001 A 
ATOM     18  C   UNL     1      -8.837   3.314   4.815  0.00  0.00    +0.000 A 
ATOM     19  C   UNL     1     -10.003   2.680   4.424  0.00  0.00    +0.001 A 
ATOM     20  C   UNL     1      -9.971   1.719   3.435  0.00  0.00    +0.008 A 
ENDBRANCH   4  15
BRANCH   1  21
ATOM     21  P   UNL     1      -6.119   3.689  -1.202  0.00  0.00    +0.248 P 
ATOM     22  N   UNL     1      -5.092   3.612  -2.365  0.00  0.00    -0.212 NA
BRANCH  22  23
ATOM     23  C   UNL     1      -4.641   4.711  -2.913  0.00  0.00    +0.067 A 
ATOM     24  C   UNL     1      -3.665   4.662  -4.019  0.00  0.00    +0.030 A 
ATOM     25  C   UNL     1      -3.229   5.830  -4.563  0.00  0.00    +0.035 A 
ATOM     26  C   UNL     1      -3.684   7.055  -4.088  0.00  0.00    +0.126 A 
ATOM     27  C   UNL     1      -4.599   7.150  -3.044  0.00  0.00    +0.035 A 
ATOM     28  C   UNL     1      -5.090   6.035  -2.440  0.00  0.00    +0.030 A 
BRANCH  26  29
ATOM     29  N   UNL     1      -3.179   8.298  -4.713  0.00  0.00    +0.056 N 
ATOM     30  O   UNL     1      -2.313   8.233  -5.702  0.00  0.00    -0.126 OA
ATOM     31  O   UNL     1      -3.597   9.470  -4.280  0.00  0.00    -0.126 OA
ENDBRANCH  26  29
ENDBRANCH  22  23
BRANCH  21  33
ATOM     32  C   UNL     1      -4.445   3.967   0.863  0.00  0.00    +0.203 C 
ATOM     33  O   UNL     1      -5.475   4.503   0.029  0.00  0.00    -0.323 OA
ENDBRANCH  21  33
BRANCH  21  34
ATOM     34  O   UNL     1      -7.447   4.445  -1.708  0.00  0.00    -0.323 OA
ATOM     35  C   UNL     1      -8.072   4.164  -2.962  0.00  0.00    +0.203 C 
ENDBRANCH  21  34
ENDBRANCH   1  21
TORSDOF 7
