REMARK  Name = ZINC18196492
REMARK  6 active torsions:
REMARK  status: ('A' for Active; 'I' for Inactive)
REMARK    1  A    between atoms: C_1  and  C_2
REMARK    2  A    between atoms: C_2  and  C_3
REMARK    3  A    between atoms: C_2  and  C_4
REMARK    4  A    between atoms: C_7  and  C_10
REMARK    5  A    between atoms: C_17  and  O_18
REMARK    6  A    between atoms: C_25  and  C_28
REMARK                            x       y       z     vdW  Elec       q    Type
REMARK                         _______ _______ _______ _____ _____    ______ ____
ROOT
ATOM      1  C   UNL     1       4.829   7.585   0.009  0.00  0.00    +0.092 C 
ATOM      2  C   UNL     1       5.476   7.719  -1.340  0.00  0.00    +0.067 A 
ATOM      3  C   UNL     1       4.926   7.183  -2.475  0.00  0.00    +0.126 A 
ATOM      4  N   UNL     1       5.740   7.479  -3.506  0.00  0.00    -0.260 N 
ATOM      5  H   UNL     1       5.599   7.221  -4.461  0.00  0.00    +0.190 HD
ATOM      6  N   UNL     1       6.824   8.214  -2.998  0.00  0.00    -0.134 NA
ATOM      7  C   UNL     1       6.660   8.355  -1.701  0.00  0.00    +0.237 A 
ATOM      8  N   UNL     1       3.731   6.475  -2.435  0.00  0.00    -0.303 N 
ATOM      9  C   UNL     1       3.254   6.061  -1.217  0.00  0.00    +0.017 C 
ATOM     10  C   UNL     1       3.740   6.535  -0.050  0.00  0.00    +0.024 C 
ATOM     11  C   UNL     1       3.242   6.072   1.181  0.00  0.00    +0.162 C 
ATOM     12  O   UNL     1       3.695   6.527   2.213  0.00  0.00    -0.292 OA
ATOM     13  C   UNL     1       2.164   5.027   1.250  0.00  0.00    +0.088 C 
ATOM     14  C   UNL     1       2.248   4.142   0.003  0.00  0.00    +0.039 C 
ATOM     15  C   UNL     1       2.139   5.039  -1.232  0.00  0.00    +0.060 C 
ATOM     16  H   UNL     1       3.245   6.278  -3.251  0.00  0.00    +0.153 HD
ENDROOT
BRANCH   1  20
ATOM     17  C   UNL     1       3.130  11.335   1.148  0.00  0.00    -0.045 A 
ATOM     18  C   UNL     1       4.111  10.755   1.930  0.00  0.00    +0.004 A 
ATOM     19  C   UNL     1       4.661   9.541   1.561  0.00  0.00    +0.005 A 
ATOM     20  C   UNL     1       4.229   8.908   0.411  0.00  0.00    -0.035 A 
ATOM     21  C   UNL     1       3.252   9.491  -0.374  0.00  0.00    +0.005 A 
ATOM     22  C   UNL     1       2.698  10.702  -0.003  0.00  0.00    +0.004 A 
BRANCH  17  24
ATOM     23  C   UNL     1       2.778  13.687   0.446  0.00  0.00    +0.012 C 
ATOM     24  C   UNL     1       2.530  12.658   1.550  0.00  0.00    +0.013 C 
ATOM     25  C   UNL     1       1.024  12.491   1.762  0.00  0.00    +0.012 C 
ENDBRANCH  17  24
ENDBRANCH   1  20
BRANCH  14  26
ATOM     26  C   UNL     1       1.115   3.148   0.008  0.00  0.00    -0.006 A 
ATOM     27  C   UNL     1       1.169   1.793   0.001  0.00  0.00    +0.011 A 
ATOM     28  C   UNL     1      -0.013   1.076   0.008  0.00  0.00    +0.008 A 
ATOM     29  C   UNL     1      -1.190   1.748   0.017  0.00  0.00    +0.045 A 
ATOM     30  S   UNL     1      -0.644   3.448   0.027  0.00  0.00    -0.101 S 
ENDBRANCH  14  26
BRANCH   7  31
ATOM     31  O   UNL     1       7.503   9.009  -0.857  0.00  0.00    -0.491 OA
ATOM     32  H   UNL     1       8.277   9.373  -1.375  0.00  0.00    +0.294 HD
ENDBRANCH   7  31
TORSDOF 4
