REMARK  Name = ZINC03516013
REMARK  7 active torsions:
REMARK  status: ('A' for Active; 'I' for Inactive)
REMARK    1  A    between atoms: C_4  and  N_7
REMARK    2  A    between atoms: N_7  and  C_8
REMARK    3  A    between atoms: N_7  and  C_14
REMARK    4  A    between atoms: C_17  and  C_20
REMARK    5  A    between atoms: N_21  and  N_22
REMARK    6  A    between atoms: N_22  and  S_23
REMARK    7  A    between atoms: S_23  and  C_26
REMARK                            x       y       z     vdW  Elec       q    Type
REMARK                         _______ _______ _______ _____ _____    ______ ____
ROOT
ATOM      1  C   UNL     1      -1.279   5.894   0.279  0.00  0.00    +0.039 A 
ATOM      2  C   UNL     1      -2.468   5.174   0.281  0.00  0.00    +0.024 A 
ATOM      3  C   UNL     1      -3.663   5.814   0.530  0.00  0.00    +0.011 A 
ATOM      4  C   UNL     1      -3.679   7.191   0.770  0.00  0.00    -0.005 A 
ATOM      5  C   UNL     1      -2.482   7.912   0.761  0.00  0.00    +0.011 A 
ATOM      6  C   UNL     1      -1.291   7.264   0.517  0.00  0.00    +0.024 A 
ENDROOT
BRANCH   4   7
ATOM      7  C   UNL     1      -4.955   7.881   1.031  0.00  0.00    +0.139 C 
ATOM      8  N   UNL     1      -6.066   7.210   1.038  0.00  0.00    -0.174 NA
BRANCH   8   9
ATOM      9  N   UNL     1      -7.279   7.865   1.287  0.00  0.00    -0.137 N 
ATOM     10  H   UNL     1      -7.288   8.820   1.453  0.00  0.00    +0.197 HD
BRANCH   9  11
ATOM     11  S   UNL     1      -8.696   7.008   1.296  0.00  0.00    +0.086 S 
ATOM     12  O   UNL     1      -9.712   7.909   1.714  0.00  0.00    -0.149 OA
ATOM     13  O   UNL     1      -8.757   6.311   0.060  0.00  0.00    -0.149 OA
BRANCH  11  14
ATOM     14  C   UNL     1      -8.557   5.786   2.558  0.00  0.00    +0.110 A 
ATOM     15  C   UNL     1      -8.049   4.536   2.256  0.00  0.00    +0.030 A 
ATOM     16  C   UNL     1      -7.936   3.578   3.246  0.00  0.00    +0.017 A 
ATOM     17  C   UNL     1      -8.341   3.867   4.537  0.00  0.00    +0.018 A 
ATOM     18  C   UNL     1      -8.854   5.116   4.837  0.00  0.00    +0.017 A 
ATOM     19  C   UNL     1      -8.962   6.075   3.848  0.00  0.00    +0.030 A 
ATOM     20 BR   UNL     1      -8.192   2.555   5.890  0.00  0.00    -0.050 Br
ENDBRANCH  11  14
ENDBRANCH   9  11
ENDBRANCH   8   9
ENDBRANCH   4   7
BRANCH   1  21
ATOM     21  N   UNL     1      -0.069   5.240   0.031  0.00  0.00    -0.269 N 
BRANCH  21  25
ATOM     22  C   UNL     1       0.019   1.092  -0.333  0.00  0.00    +0.000 A 
ATOM     23  C   UNL     1       0.224   1.887  -1.446  0.00  0.00    +0.002 A 
ATOM     24  C   UNL     1       0.189   3.263  -1.330  0.00  0.00    +0.024 A 
ATOM     25  C   UNL     1      -0.039   3.848  -0.091  0.00  0.00    +0.039 A 
ATOM     26  C   UNL     1      -0.238   3.047   1.026  0.00  0.00    +0.024 A 
ATOM     27  C   UNL     1      -0.208   1.672   0.902  0.00  0.00    +0.002 A 
ENDBRANCH  21  25
BRANCH  21  28
ATOM     28  C   UNL     1       1.111   5.979  -0.095  0.00  0.00    +0.039 A 
ATOM     29  C   UNL     1       1.323   6.767  -1.218  0.00  0.00    +0.024 A 
ATOM     30  C   UNL     1       2.488   7.499  -1.337  0.00  0.00    +0.002 A 
ATOM     31  C   UNL     1       3.448   7.439  -0.344  0.00  0.00    +0.000 A 
ATOM     32  C   UNL     1       3.243   6.651   0.774  0.00  0.00    +0.002 A 
ATOM     33  C   UNL     1       2.078   5.921   0.901  0.00  0.00    +0.024 A 
ENDBRANCH  21  28
ENDBRANCH   1  21
TORSDOF 7
