REMARK  Name = ZINC39684083
REMARK  8 active torsions:
REMARK  status: ('A' for Active; 'I' for Inactive)
REMARK    1  A    between atoms: C_1  and  C_2
REMARK    2  A    between atoms: C_7  and  C_11
REMARK    3  A    between atoms: C_11  and  C_12
REMARK    4  A    between atoms: C_12  and  N_13
REMARK    5  A    between atoms: C_14  and  C_16
REMARK    6  A    between atoms: C_27  and  C_29
REMARK    7  A    between atoms: C_34  and  O_35
REMARK    8  A    between atoms: O_35  and  C_36
REMARK                            x       y       z     vdW  Elec       q    Type
REMARK                         _______ _______ _______ _____ _____    ______ ____
ROOT
ATOM      1  C   UNL     1      -8.680   1.725  -6.209  0.00  0.00    +0.100 C 
ATOM      2  C   UNL     1      -9.912   2.117  -5.362  0.00  0.00    +0.121 C 
ATOM      3  N   UNL     1     -11.075   1.668  -6.164  0.00  0.00    -0.296 N 
ATOM      4  C   UNL     1     -10.649   0.367  -6.735  0.00  0.00    +0.115 C 
ATOM      5  C   UNL     1      -9.168   0.576  -7.107  0.00  0.00    -0.004 C 
ATOM      6  C   UNL     1      -8.369  -0.693  -6.822  0.00  0.00    -0.010 C 
ATOM      7  C   UNL     1      -8.832  -1.805  -7.768  0.00  0.00    -0.082 C 
ATOM      8  N   UNL     1      -8.635  -1.380  -9.159  0.00  0.00    +0.379 N 
ATOM      9  C   UNL     1      -9.478  -0.215  -9.451  0.00  0.00    -0.082 C 
ATOM     10  C   UNL     1      -9.042   0.965  -8.577  0.00  0.00    -0.010 C 
ATOM     11  C   UNL     1     -12.253   2.299  -6.335  0.00  0.00    +0.250 C 
ATOM     12  O   UNL     1     -12.418   3.413  -5.878  0.00  0.00    -0.270 OA
ATOM     13  H   UNL     1      -7.666  -1.137  -9.301  0.00  0.00    -0.086 HD
ATOM     14  H   UNL     1      -8.883  -2.137  -9.779  0.00  0.00    -0.086 HD
ENDROOT
BRANCH  11  15
ATOM     15  C   UNL     1     -13.343   1.637  -7.078  0.00  0.00    +0.078 A 
ATOM     16  C   UNL     1     -13.519   0.255  -6.984  0.00  0.00    +0.017 A 
ATOM     17  C   UNL     1     -14.539  -0.357  -7.679  0.00  0.00    +0.001 A 
ATOM     18  C   UNL     1     -15.392   0.393  -8.473  0.00  0.00    +0.004 A 
ATOM     19  C   UNL     1     -15.229   1.760  -8.575  0.00  0.00    +0.046 A 
ATOM     20  C   UNL     1     -14.211   2.393  -7.878  0.00  0.00    +0.132 A 
BRANCH  20  21
ATOM     21  O   UNL     1     -14.053   3.737  -7.973  0.00  0.00    -0.494 OA
ATOM     22  C   UNL     1     -14.975   4.441  -8.806  0.00  0.00    +0.277 C 
ENDBRANCH  20  21
ENDBRANCH  11  15
BRANCH   1  24
ATOM     23  N   UNL     1      -6.290   1.260  -5.770  0.00  0.00    -0.315 N 
ATOM     24  C   UNL     1      -7.559   1.255  -5.317  0.00  0.00    +0.218 C 
ATOM     25  O   UNL     1      -7.800   0.871  -4.192  0.00  0.00    -0.275 OA
ATOM     26  H   UNL     1      -6.098   1.567  -6.670  0.00  0.00    +0.149 HD
BRANCH  23  27
ATOM     27  C   UNL     1      -5.201   0.803  -4.904  0.00  0.00    +0.109 C 
BRANCH  27  28
ATOM     28  C   UNL     1      -3.872   0.911  -5.655  0.00  0.00    +0.056 C 
BRANCH  28  35
ATOM     29  C   UNL     1       0.534  -2.031  -2.301  0.00  0.00    +0.046 C 
ATOM     30  C   UNL     1      -0.610  -2.068  -3.281  0.00  0.00    -0.027 A 
ATOM     31  C   UNL     1      -1.034  -3.271  -3.805  0.00  0.00    +0.005 A 
ATOM     32  C   UNL     1      -2.086  -3.318  -4.708  0.00  0.00    +0.001 A 
ATOM     33  C   UNL     1      -2.722  -2.171  -5.094  0.00  0.00    +0.010 A 
ATOM     34  C   UNL     1      -2.310  -0.943  -4.575  0.00  0.00    +0.003 A 
ATOM     35  C   UNL     1      -2.752   0.441  -4.763  0.00  0.00    -0.021 A 
ATOM     36  C   UNL     1      -1.969   1.212  -3.992  0.00  0.00    +0.087 A 
ATOM     37  N   UNL     1      -1.062   0.434  -3.325  0.00  0.00    -0.360 N 
ATOM     38  C   UNL     1      -1.247  -0.890  -3.655  0.00  0.00    +0.050 A 
ATOM     39  H   UNL     1      -0.391   0.766  -2.708  0.00  0.00    +0.165 HD
ENDBRANCH  28  35
ENDBRANCH  27  28
ENDBRANCH  23  27
ENDBRANCH   1  24
TORSDOF 6
