REMARK  Name = ZINC09950789
REMARK  6 active torsions:
REMARK  status: ('A' for Active; 'I' for Inactive)
REMARK    1  A    between atoms: C_3  and  S_6
REMARK    2  A    between atoms: S_6  and  N_9
REMARK    3  A    between atoms: N_9  and  C_10
REMARK    4  A    between atoms: C_13  and  N_16
REMARK    5  A    between atoms: N_16  and  S_17
REMARK    6  A    between atoms: S_17  and  C_20
REMARK                            x       y       z     vdW  Elec       q    Type
REMARK                         _______ _______ _______ _____ _____    ______ ____
ROOT
ATOM      1  C   UNL     1       3.147   4.287  -0.361  0.00  0.00    +0.048 A 
ATOM      2  C   UNL     1       1.924   4.448  -1.000  0.00  0.00    +0.026 A 
ATOM      3  C   UNL     1       0.932   3.501  -0.840  0.00  0.00    +0.026 A 
ATOM      4  C   UNL     1       1.157   2.388  -0.041  0.00  0.00    +0.048 A 
ATOM      5  C   UNL     1       2.377   2.230   0.602  0.00  0.00    +0.026 A 
ATOM      6  C   UNL     1       3.372   3.174   0.438  0.00  0.00    +0.026 A 
ENDROOT
BRANCH   1   7
ATOM      7  N   UNL     1       4.153   5.247  -0.523  0.00  0.00    -0.216 N 
ATOM      8  H   UNL     1       4.916   5.058  -1.091  0.00  0.00    +0.174 HD
BRANCH   7   9
ATOM      9  S   UNL     1       4.039   6.705   0.254  0.00  0.00    +0.079 S 
ATOM     10  O   UNL     1       5.196   7.448  -0.106  0.00  0.00    -0.149 OA
ATOM     11  O   UNL     1       2.722   7.187   0.023  0.00  0.00    -0.149 OA
BRANCH   9  14
ATOM     12  C   UNL     1       5.117   6.134   4.125  0.00  0.00    +0.010 A 
ATOM     13  C   UNL     1       5.258   6.425   2.781  0.00  0.00    +0.036 A 
ATOM     14  C   UNL     1       4.163   6.385   1.982  0.00  0.00    +0.146 A 
ATOM     15  S   UNL     1       2.879   5.933   3.137  0.00  0.00    -0.077 S 
ATOM     16  C   UNL     1       3.889   5.818   4.604  0.00  0.00    +0.047 A 
ENDBRANCH   9  14
ENDBRANCH   7   9
ENDBRANCH   1   7
BRANCH   4  17
ATOM     17  N   UNL     1       0.151   1.427   0.120  0.00  0.00    -0.216 N 
ATOM     18  H   UNL     1      -0.761   1.705   0.295  0.00  0.00    +0.174 HD
BRANCH  17  19
ATOM     19  S   UNL     1       0.518  -0.184   0.006  0.00  0.00    +0.072 S 
ATOM     20  O   UNL     1       1.630  -0.408   0.862  0.00  0.00    -0.150 OA
ATOM     21  O   UNL     1      -0.706  -0.890   0.146  0.00  0.00    -0.150 OA
BRANCH  19  22
ATOM     22  C   UNL     1       1.082  -0.474  -1.638  0.00  0.00    +0.112 A 
ATOM     23  C   UNL     1       0.169  -0.716  -2.647  0.00  0.00    +0.032 A 
ATOM     24  C   UNL     1       0.604  -0.941  -3.941  0.00  0.00    +0.051 A 
ATOM     25  C   UNL     1       1.960  -0.932  -4.220  0.00  0.00    +0.162 A 
ATOM     26  C   UNL     1       2.877  -0.694  -3.207  0.00  0.00    +0.164 A 
ATOM     27  C   UNL     1       2.438  -0.465  -1.913  0.00  0.00    +0.078 A 
ATOM     28  O   UNL     1       4.212  -0.686  -3.493  0.00  0.00    -0.488 OA
ATOM     29  C   UNL     1       4.780  -1.946  -3.855  0.00  0.00    +0.232 C 
ATOM     30  C   UNL     1       4.578  -2.224  -5.336  0.00  0.00    +0.082 C 
ATOM     31  C   UNL     1       3.110  -2.380  -5.701  0.00  0.00    +0.232 C 
ATOM     32  O   UNL     1       2.403  -1.155  -5.492  0.00  0.00    -0.488 OA
ENDBRANCH  19  22
ENDBRANCH  17  19
ENDBRANCH   4  17
TORSDOF 6
