REMARK  Name = ZINC40093281
REMARK  18 active torsions:
REMARK  status: ('A' for Active; 'I' for Inactive)
REMARK    1  A    between atoms: C_1  and  C_2
REMARK    2  A    between atoms: C_2  and  C_3
REMARK    3  A    between atoms: C_3  and  O_4
REMARK    4  A    between atoms: O_4  and  C_5
REMARK    5  A    between atoms: C_10  and  C_11
REMARK    6  A    between atoms: C_13  and  C_25
REMARK    7  A    between atoms: N_17  and  C_18
REMARK    8  A    between atoms: C_18  and  C_19
REMARK    9  A    between atoms: C_19  and  O_20
REMARK   10  A    between atoms: O_20  and  C_21
REMARK   11  A    between atoms: C_21  and  C_22
REMARK   12  A    between atoms: C_22  and  O_23
REMARK   13  A    between atoms: C_25  and  C_27
REMARK   14  A    between atoms: C_30  and  O_34
REMARK   15  A    between atoms: C_31  and  C_33
REMARK   16  A    between atoms: O_34  and  C_35
REMARK   17  A    between atoms: C_35  and  C_36
REMARK   18  A    between atoms: C_35  and  C_37
REMARK                            x       y       z     vdW  Elec       q    Type
REMARK                         _______ _______ _______ _____ _____    ______ ____
ROOT
ATOM      1  C   UNL     1       0.755  -5.036   1.316  0.00  0.00    +0.148 C 
ATOM      2  C   UNL     1      -0.729  -5.247   1.506  0.00  0.00    +0.076 C 
ATOM      3  C   UNL     1      -0.925  -6.583   1.595  0.00  0.00    +0.249 C 
ATOM      4  C   UNL     1       0.376  -7.274   1.472  0.00  0.00    +0.288 C 
ATOM      5  O   UNL     1       0.533  -8.478   1.511  0.00  0.00    -0.266 OA
ATOM      6  N   UNL     1       1.362  -6.372   1.308  0.00  0.00    -0.281 N 
ATOM      7  O   UNL     1      -2.121  -7.190   1.770  0.00  0.00    -0.282 OA
ENDROOT
BRANCH   1  13
ATOM      8  C   UNL     1       2.551  -3.610   2.330  0.00  0.00    +0.126 A 
ATOM      9  C   UNL     1       3.059  -2.856   3.379  0.00  0.00    +0.046 A 
ATOM     10  C   UNL     1       2.332  -2.719   4.545  0.00  0.00    +0.004 A 
ATOM     11  C   UNL     1       1.099  -3.333   4.668  0.00  0.00    +0.001 A 
ATOM     12  C   UNL     1       0.591  -4.085   3.626  0.00  0.00    +0.009 A 
ATOM     13  C   UNL     1       1.312  -4.221   2.455  0.00  0.00    +0.019 A 
BRANCH   8  14
ATOM     14  O   UNL     1       3.264  -3.745   1.182  0.00  0.00    -0.492 OA
BRANCH  14  15
ATOM     15  C   UNL     1       4.475  -2.994   1.077  0.00  0.00    +0.229 C 
BRANCH  15  17
ATOM     16  C   UNL     1       6.428  -2.475  -0.392  0.00  0.00    +0.007 C 
ATOM     17  C   UNL     1       5.071  -3.178  -0.320  0.00  0.00    +0.038 C 
ENDBRANCH  15  17
ENDBRANCH  14  15
ENDBRANCH   8  14
ENDBRANCH   1  13
BRANCH   2  18
ATOM     18  C   UNL     1      -1.758  -4.205   1.579  0.00  0.00    +0.195 C 
ATOM     19  O   UNL     1      -2.379  -4.034   2.612  0.00  0.00    -0.287 OA
BRANCH  18  20
ATOM     20  C   UNL     1      -2.043  -3.365   0.399  0.00  0.00    +0.023 A 
ATOM     21  C   UNL     1      -1.422  -3.639  -0.823  0.00  0.00    +0.015 A 
ATOM     22  C   UNL     1      -1.689  -2.852  -1.921  0.00  0.00    +0.046 A 
ATOM     23  C   UNL     1      -2.576  -1.786  -1.814  0.00  0.00    +0.124 A 
ATOM     24  C   UNL     1      -3.195  -1.510  -0.601  0.00  0.00    -0.008 A 
ATOM     25  C   UNL     1      -2.938  -2.295   0.500  0.00  0.00    +0.018 A 
ATOM     26  C   UNL     1      -4.154  -0.352  -0.491  0.00  0.00    +0.047 C 
BRANCH  23  27
ATOM     27  O   UNL     1      -2.837  -1.013  -2.899  0.00  0.00    -0.489 OA
BRANCH  27  28
ATOM     28  C   UNL     1      -2.264  -1.423  -4.141  0.00  0.00    +0.167 C 
ATOM     29  C   UNL     1      -3.104  -0.875  -5.297  0.00  0.00    +0.051 C 
ATOM     30  C   UNL     1      -0.836  -0.882  -4.248  0.00  0.00    +0.051 C 
ENDBRANCH  27  28
ENDBRANCH  23  27
ENDBRANCH  18  20
ENDBRANCH   2  18
BRANCH   6  31
ATOM     31  C   UNL     1       2.788  -6.670   1.149  0.00  0.00    +0.137 C 
BRANCH  31  32
ATOM     32  C   UNL     1       3.432  -6.830   2.528  0.00  0.00    +0.179 C 
BRANCH  32  33
ATOM     33  O   UNL     1       2.886  -7.980   3.177  0.00  0.00    -0.376 OA
BRANCH  33  34
ATOM     34  C   UNL     1       3.423  -8.222   4.479  0.00  0.00    +0.187 C 
BRANCH  34  35
ATOM     35  C   UNL     1       2.771  -9.470   5.077  0.00  0.00    +0.184 C 
BRANCH  35  36
ATOM     36  O   UNL     1       3.132 -10.614   4.300  0.00  0.00    -0.393 OA
ATOM     37  H   UNL     1       2.753 -11.444   4.622  0.00  0.00    +0.209 HD
ENDBRANCH  35  36
ENDBRANCH  34  35
ENDBRANCH  33  34
ENDBRANCH  32  33
ENDBRANCH  31  32
ENDBRANCH   6  31
TORSDOF 14
