REMARK  Name = ZINC37198764
REMARK  10 active torsions:
REMARK  status: ('A' for Active; 'I' for Inactive)
REMARK    1  A    between atoms: C_1  and  C_2
REMARK    2  A    between atoms: N_5  and  S_11
REMARK    3  A    between atoms: C_7  and  C_10
REMARK    4  A    between atoms: S_11  and  C_14
REMARK    5  A    between atoms: C_17  and  C_20
REMARK    6  A    between atoms: N_22  and  C_23
REMARK    7  A    between atoms: C_28  and  C_29
REMARK    8  A    between atoms: C_29  and  N_30
REMARK    9  A    between atoms: N_30  and  C_31
REMARK   10  A    between atoms: N_30  and  C_32
REMARK                            x       y       z     vdW  Elec       q    Type
REMARK                         _______ _______ _______ _____ _____    ______ ____
ROOT
ATOM      1  C   UNL     1       2.275   6.547  -1.424  0.00  0.00    +0.248 C 
ATOM      2  O   UNL     1       1.319   7.138  -1.885  0.00  0.00    -0.270 OA
ATOM      3  N   UNL     1       3.198   7.215  -0.705  0.00  0.00    -0.281 N 
ATOM      4  H   UNL     1       3.926   6.733  -0.282  0.00  0.00    +0.155 HD
ENDROOT
BRANCH   1   8
ATOM      5  C   UNL     1       2.708   2.373  -2.079  0.00  0.00    +0.106 A 
ATOM      6  C   UNL     1       1.618   3.043  -2.605  0.00  0.00    +0.029 A 
ATOM      7  C   UNL     1       1.471   4.399  -2.396  0.00  0.00    +0.015 A 
ATOM      8  C   UNL     1       2.426   5.094  -1.652  0.00  0.00    +0.037 A 
ATOM      9  C   UNL     1       3.523   4.412  -1.124  0.00  0.00    +0.015 A 
ATOM     10  C   UNL     1       3.655   3.055  -1.336  0.00  0.00    +0.029 A 
BRANCH   5  11
ATOM     11  S   UNL     1       2.887   0.641  -2.351  0.00  0.00    +0.061 S 
ATOM     12  O   UNL     1       4.271   0.349  -2.212  0.00  0.00    -0.153 OA
ATOM     13  O   UNL     1       2.161   0.338  -3.534  0.00  0.00    -0.153 OA
BRANCH  11  17
ATOM     14  C   UNL     1      -0.042   1.544   0.046  0.00  0.00    +0.039 C 
ATOM     15  C   UNL     1      -0.028   0.014   0.047  0.00  0.00    +0.131 C 
ATOM     16  C   UNL     1       0.690  -0.492  -1.210  0.00  0.00    +0.140 C 
ATOM     17  N   UNL     1       2.113  -0.133  -1.109  0.00  0.00    -0.172 NA
ATOM     18  C   UNL     1       2.828  -0.481   0.130  0.00  0.00    +0.140 C 
ATOM     19  C   UNL     1       2.006   0.024   1.321  0.00  0.00    +0.131 C 
ATOM     20  O   UNL     1       0.664  -0.457   1.206  0.00  0.00    -0.371 OA
ATOM     21  C   UNL     1       2.624  -0.490   2.623  0.00  0.00    +0.039 C 
ENDBRANCH  11  17
ENDBRANCH   5  11
ENDBRANCH   1   8
BRANCH   3  22
ATOM     22  C   UNL     1       3.107   8.604  -0.568  0.00  0.00    +0.035 A 
ATOM     23  C   UNL     1       1.863   9.216  -0.490  0.00  0.00    +0.023 A 
ATOM     24  C   UNL     1       1.776  10.587  -0.355  0.00  0.00    +0.002 A 
ATOM     25  C   UNL     1       2.927  11.352  -0.299  0.00  0.00    +0.000 A 
ATOM     26  C   UNL     1       4.168  10.746  -0.378  0.00  0.00    +0.003 A 
ATOM     27  C   UNL     1       4.261   9.374  -0.506  0.00  0.00    -0.043 A 
BRANCH  27  28
ATOM     28  C   UNL     1       5.614   8.714  -0.584  0.00  0.00    -0.041 C 
BRANCH  28  29
ATOM     29  N   UNL     1       5.933   8.417  -1.987  0.00  0.00    +0.382 N 
ATOM     30  C   UNL     1       6.069   9.674  -2.735  0.00  0.00    -0.095 C 
ATOM     31  H   UNL     1       5.191   7.865  -2.391  0.00  0.00    -0.081 HD
BRANCH  29  32
ATOM     32  C   UNL     1       7.194   7.668  -2.054  0.00  0.00    -0.069 C 
ATOM     33  C   UNL     1       7.527   7.359  -3.515  0.00  0.00    -0.015 C 
ATOM     34  C   UNL     1       8.841   6.578  -3.586  0.00  0.00    -0.002 C 
ATOM     35  C   UNL     1       8.698   5.269  -2.807  0.00  0.00    -0.000 C 
ATOM     36  C   UNL     1       8.366   5.578  -1.345  0.00  0.00    -0.002 C 
ATOM     37  C   UNL     1       7.052   6.359  -1.276  0.00  0.00    -0.015 C 
ENDBRANCH  29  32
ENDBRANCH  28  29
ENDBRANCH  27  28
ENDBRANCH   3  22
TORSDOF 7
