REMARK  Name = ZINC11377250
REMARK  12 active torsions:
REMARK  status: ('A' for Active; 'I' for Inactive)
REMARK    1  A    between atoms: C_1  and  C_2
REMARK    2  A    between atoms: C_2  and  C_4
REMARK    3  A    between atoms: C_2  and  O_26
REMARK    4  A    between atoms: C_4  and  O_6
REMARK    5  A    between atoms: O_6  and  C_7
REMARK    6  A    between atoms: C_7  and  C_8
REMARK    7  A    between atoms: N_10  and  C_11
REMARK    8  A    between atoms: C_16  and  O_17
REMARK    9  A    between atoms: O_17  and  C_18
REMARK   10  A    between atoms: O_26  and  C_27
REMARK   11  A    between atoms: C_30  and  O_33
REMARK   12  A    between atoms: O_33  and  C_34
REMARK                            x       y       z     vdW  Elec       q    Type
REMARK                         _______ _______ _______ _____ _____    ______ ____
ROOT
ATOM      1  C   UNL     1       3.562   2.036  -0.099  0.00  0.00    +0.255 C 
ATOM      2  O   UNL     1       3.544   3.249  -0.119  0.00  0.00    -0.272 OA
ATOM      3  N   UNL     1       2.410   1.348   0.031  0.00  0.00    -0.280 N 
ATOM      4  H   UNL     1       2.429   0.381   0.107  0.00  0.00    +0.155 HD
ENDROOT
BRANCH   3   5
ATOM      5  C   UNL     1       1.187   2.028   0.055  0.00  0.00    +0.079 A 
ATOM      6  C   UNL     1       1.105   3.278   0.645  0.00  0.00    +0.074 A 
ATOM      7  C   UNL     1      -0.105   3.958   0.673  0.00  0.00    +0.138 A 
ATOM      8  C   UNL     1      -1.239   3.366   0.098  0.00  0.00    +0.031 A 
ATOM      9  C   UNL     1      -1.152   2.112  -0.500  0.00  0.00    +0.059 A 
ATOM     10  C   UNL     1       0.056   1.442  -0.517  0.00  0.00    +0.142 A 
ATOM     11  C   UNL     1      -2.336   4.332   0.294  0.00  0.00    +0.028 A 
ATOM     12  C   UNL     1      -3.686   4.343  -0.041  0.00  0.00    +0.012 A 
ATOM     13  C   UNL     1      -4.466   5.429   0.295  0.00  0.00    +0.001 A 
ATOM     14  C   UNL     1      -3.908   6.507   0.963  0.00  0.00    +0.004 A 
ATOM     15  C   UNL     1      -2.570   6.507   1.300  0.00  0.00    +0.047 A 
ATOM     16  C   UNL     1      -1.768   5.421   0.970  0.00  0.00    +0.136 A 
ATOM     17  O   UNL     1      -0.458   5.163   1.174  0.00  0.00    -0.455 OA
BRANCH  10  18
ATOM     18  O   UNL     1       0.145   0.214  -1.095  0.00  0.00    -0.493 OA
ATOM     19  C   UNL     1      -1.052  -0.325  -1.660  0.00  0.00    +0.277 C 
ENDBRANCH  10  18
ENDBRANCH   3   5
BRANCH   1  20
ATOM     20  C   UNL     1       4.871   1.300  -0.217  0.00  0.00    +0.328 C 
BRANCH  20  21
ATOM     21  O   UNL     1       5.955   2.257  -0.345  0.00  0.00    -0.453 OA
BRANCH  21  22
ATOM     22  C   UNL     1       7.197   1.760  -0.461  0.00  0.00    +0.348 C 
ATOM     23  O   UNL     1       7.372   0.564  -0.457  0.00  0.00    -0.247 OA
BRANCH  22  25
ATOM     24  C   UNL     1       8.525   3.511   0.686  0.00  0.00    +0.064 C 
ATOM     25  C   UNL     1       8.372   2.693  -0.598  0.00  0.00    +0.278 C 
BRANCH  25  26
ATOM     26  O   UNL     1       9.561   1.932  -0.822  0.00  0.00    -0.478 OA
BRANCH  26  27
ATOM     27  C   UNL     1      10.588   2.563  -1.450  0.00  0.00    +0.122 A 
ATOM     28  C   UNL     1      11.804   1.916  -1.613  0.00  0.00    +0.049 A 
ATOM     29  C   UNL     1      12.847   2.555  -2.255  0.00  0.00    +0.049 A 
ATOM     30  C   UNL     1      12.681   3.848  -2.729  0.00  0.00    +0.120 A 
ATOM     31  C   UNL     1      11.467   4.497  -2.561  0.00  0.00    +0.049 A 
ATOM     32  C   UNL     1      10.423   3.856  -1.923  0.00  0.00    +0.049 A 
BRANCH  30  33
ATOM     33  O   UNL     1      13.708   4.479  -3.358  0.00  0.00    -0.495 OA
ATOM     34  C   UNL     1      14.930   3.750  -3.495  0.00  0.00    +0.277 C 
ENDBRANCH  30  33
ENDBRANCH  26  27
ENDBRANCH  25  26
ENDBRANCH  22  25
ENDBRANCH  21  22
ENDBRANCH  20  21
ENDBRANCH   1  20
TORSDOF 9
