REMARK  Name = ZINC17316868
REMARK  12 active torsions:
REMARK  status: ('A' for Active; 'I' for Inactive)
REMARK    1  A    between atoms: C_1  and  C_2
REMARK    2  A    between atoms: C_2  and  S_3
REMARK    3  A    between atoms: S_3  and  C_4
REMARK    4  A    between atoms: C_9  and  C_26
REMARK    5  A    between atoms: C_11  and  C_15
REMARK    6  A    between atoms: C_12  and  C_14
REMARK    7  A    between atoms: N_17  and  C_18
REMARK    8  A    between atoms: C_23  and  O_24
REMARK    9  A    between atoms: O_24  and  C_25
REMARK   10  A    between atoms: C_29  and  C_32
REMARK   11  A    between atoms: C_32  and  C_33
REMARK   12  A    between atoms: C_32  and  C_34
REMARK                            x       y       z     vdW  Elec       q    Type
REMARK                         _______ _______ _______ _____ _____    ______ ____
ROOT
ATOM      1  C   UNL     1       0.982  -2.342  -1.293  0.00  0.00    +0.210 A 
ATOM      2  N   UNL     1       0.380  -3.036  -0.316  0.00  0.00    -0.187 NA
ATOM      3  C   UNL     1       0.495  -4.314  -0.554  0.00  0.00    +0.219 A 
ATOM      4  N   UNL     1       1.182  -4.467  -1.713  0.00  0.00    -0.220 N 
ATOM      5  N   UNL     1       1.482  -3.185  -2.171  0.00  0.00    -0.141 NA
ATOM      6  C   UNL     1       1.494  -5.766  -2.302  0.00  0.00    +0.177 C 
ATOM      7  C   UNL     1       1.211  -6.852  -1.299  0.00  0.00    +0.060 C 
ATOM      8  C   UNL     1       0.527  -6.641  -0.165  0.00  0.00    +0.018 C 
ATOM      9  N   UNL     1       0.040  -5.403   0.176  0.00  0.00    -0.287 N 
ATOM     10  C   UNL     1       0.286  -7.801   0.767  0.00  0.00    +0.061 C 
ATOM     11  H   UNL     1      -0.598  -5.295   0.899  0.00  0.00    +0.155 HD
ENDROOT
BRANCH   6  12
ATOM     12  C   UNL     1       0.644  -5.979  -3.528  0.00  0.00    -0.018 A 
ATOM     13  C   UNL     1      -0.734  -5.978  -3.421  0.00  0.00    +0.006 A 
ATOM     14  C   UNL     1      -1.514  -6.174  -4.546  0.00  0.00    +0.004 A 
ATOM     15  C   UNL     1      -0.916  -6.370  -5.777  0.00  0.00    -0.045 A 
ATOM     16  C   UNL     1       0.462  -6.371  -5.883  0.00  0.00    +0.004 A 
ATOM     17  C   UNL     1       1.242  -6.171  -4.759  0.00  0.00    +0.006 A 
BRANCH  15  18
ATOM     18  C   UNL     1      -1.767  -6.585  -7.002  0.00  0.00    +0.013 C 
ATOM     19  C   UNL     1      -1.475  -5.484  -8.024  0.00  0.00    +0.012 C 
ATOM     20  C   UNL     1      -1.443  -7.949  -7.615  0.00  0.00    +0.012 C 
ENDBRANCH  15  18
ENDBRANCH   6  12
BRANCH   7  21
ATOM     21  C   UNL     1       1.688  -8.158  -1.566  0.00  0.00    +0.248 C 
ATOM     22  O   UNL     1       2.870  -8.415  -1.425  0.00  0.00    -0.270 OA
ATOM     23  N   UNL     1       0.834  -9.116  -1.976  0.00  0.00    -0.279 N 
ATOM     24  H   UNL     1      -0.095  -8.897  -2.148  0.00  0.00    +0.155 HD
BRANCH  23  25
ATOM     25  C   UNL     1       1.288 -10.429  -2.154  0.00  0.00    +0.076 A 
ATOM     26  C   UNL     1       2.575 -10.664  -2.615  0.00  0.00    +0.027 A 
ATOM     27  C   UNL     1       3.021 -11.960  -2.789  0.00  0.00    +0.002 A 
ATOM     28  C   UNL     1       2.187 -13.026  -2.505  0.00  0.00    +0.004 A 
ATOM     29  C   UNL     1       0.903 -12.800  -2.045  0.00  0.00    +0.047 A 
ATOM     30  C   UNL     1       0.450 -11.504  -1.862  0.00  0.00    +0.141 A 
BRANCH  30  31
ATOM     31  O   UNL     1      -0.811 -11.280  -1.405  0.00  0.00    -0.493 OA
ATOM     32  C   UNL     1      -1.613 -12.429  -1.127  0.00  0.00    +0.277 C 
ENDBRANCH  30  31
ENDBRANCH  23  25
ENDBRANCH   7  21
BRANCH   1  33
ATOM     33  S   UNL     1       1.081  -0.586  -1.390  0.00  0.00    -0.085 S 
BRANCH  33  35
ATOM     34  C   UNL     1       0.224   1.514   0.140  0.00  0.00    +0.016 C 
ATOM     35  C   UNL     1       0.213  -0.015   0.098  0.00  0.00    +0.074 C 
ENDBRANCH  33  35
ENDBRANCH   1  33
TORSDOF 7
