REMARK  Name = ZINC63648891
REMARK  4 active torsions:
REMARK  status: ('A' for Active; 'I' for Inactive)
REMARK    1  A    between atoms: C_4  and  C_7
REMARK    2  A    between atoms: C_7  and  C_8
REMARK    3  A    between atoms: C_14  and  C_16
REMARK    4  A    between atoms: C_16  and  N_17
REMARK                            x       y       z     vdW  Elec       q    Type
REMARK                         _______ _______ _______ _____ _____    ______ ____
ROOT
ATOM      1  C   UNL     1       6.791  -4.218   4.167  0.00  0.00    +0.207 C 
ENDROOT
BRANCH   1   2
ATOM      2  N   UNL     1       6.899  -5.466   4.928  0.00  0.00    -0.288 N 
ATOM      3  C   UNL     1       7.161  -5.347   6.284  0.00  0.00    +0.060 A 
ATOM      4  C   UNL     1       6.858  -4.149   6.931  0.00  0.00    +0.025 A 
ATOM      5  C   UNL     1       7.117  -4.001   8.277  0.00  0.00    +0.002 A 
ATOM      6  C   UNL     1       7.679  -5.038   8.998  0.00  0.00    +0.002 A 
ATOM      7  C   UNL     1       7.981  -6.231   8.365  0.00  0.00    +0.029 A 
ATOM      8  C   UNL     1       7.720  -6.384   7.020  0.00  0.00    +0.115 A 
ATOM      9  S   UNL     1       8.087  -7.911   6.215  0.00  0.00    +0.029 S 
ATOM     10  O   UNL     1       7.487  -8.940   6.990  0.00  0.00    -0.164 OA
ATOM     11  O   UNL     1       9.475  -7.893   5.910  0.00  0.00    -0.164 OA
ATOM     12  C   UNL     1       7.223  -7.859   4.677  0.00  0.00    +0.115 A 
ATOM     13  C   UNL     1       6.723  -6.644   4.220  0.00  0.00    +0.060 A 
ATOM     14  C   UNL     1       6.031  -6.611   3.010  0.00  0.00    +0.025 A 
ATOM     15  C   UNL     1       5.848  -7.767   2.281  0.00  0.00    +0.002 A 
ATOM     16  C   UNL     1       6.348  -8.970   2.744  0.00  0.00    +0.002 A 
ATOM     17  C   UNL     1       7.045  -9.013   3.945  0.00  0.00    +0.029 A 
ENDBRANCH   1   2
BRANCH   1  24
ATOM     18  C   UNL     1       4.171  -0.963   1.399  0.00  0.00    -0.004 C 
ATOM     19  C   UNL     1       3.186  -1.909   2.089  0.00  0.00    +0.023 C 
ATOM     20  C   UNL     1       3.631  -2.136   3.537  0.00  0.00    +0.108 C 
ATOM     21  N   UNL     1       5.021  -2.610   3.536  0.00  0.00    -0.300 N 
ATOM     22  C   UNL     1       6.036  -1.821   2.823  0.00  0.00    +0.108 C 
ATOM     23  C   UNL     1       5.564  -1.598   1.383  0.00  0.00    +0.023 C 
ATOM     24  C   UNL     1       5.360  -3.745   4.177  0.00  0.00    +0.233 C 
ATOM     25  O   UNL     1       4.514  -4.387   4.763  0.00  0.00    -0.274 OA
BRANCH  18  26
ATOM     26  C   UNL     1       3.711  -0.707  -0.038  0.00  0.00    +0.038 C 
BRANCH  26  30
ATOM     27  C   UNL     1      -0.017   1.378   0.010  0.00  0.00    +0.000 A 
ATOM     28  C   UNL     1       1.171   2.086   0.002  0.00  0.00    +0.000 A 
ATOM     29  C   UNL     1       2.377   1.411  -0.013  0.00  0.00    +0.003 A 
ATOM     30  C   UNL     1       2.396   0.029  -0.020  0.00  0.00    -0.047 A 
ATOM     31  C   UNL     1       1.208  -0.679  -0.012  0.00  0.00    +0.003 A 
ATOM     32  C   UNL     1       0.002  -0.004   0.002  0.00  0.00    +0.000 A 
ENDBRANCH  26  30
ENDBRANCH  18  26
ENDBRANCH   1  24
TORSDOF 4
