REMARK  Name = ZINC13536377
REMARK  9 active torsions:
REMARK  status: ('A' for Active; 'I' for Inactive)
REMARK    1  A    between atoms: C_1  and  C_2
REMARK    2  A    between atoms: C_2  and  O_3
REMARK    3  A    between atoms: O_3  and  C_4
REMARK    4  A    between atoms: C_4  and  C_6
REMARK    5  A    between atoms: C_10  and  N_11
REMARK    6  A    between atoms: C_12  and  C_33
REMARK    7  A    between atoms: C_14  and  C_17
REMARK    8  A    between atoms: C_15  and  C_16
REMARK    9  A    between atoms: N_24  and  C_27
REMARK                            x       y       z     vdW  Elec       q    Type
REMARK                         _______ _______ _______ _____ _____    ______ ____
ROOT
ATOM      1  N   UNL     1      -0.254  -2.478  -3.753  0.00  0.00    -0.311 N 
ATOM      2  C   UNL     1      -0.977  -2.445  -2.591  0.00  0.00    +0.022 A 
ATOM      3  C   UNL     1      -2.284  -2.355  -2.884  0.00  0.00    +0.031 A 
ATOM      4  C   UNL     1      -2.381  -2.330  -4.352  0.00  0.00    -0.003 A 
ATOM      5  C   UNL     1      -1.075  -2.405  -4.819  0.00  0.00    +0.029 A 
ATOM      6  C   UNL     1      -0.652  -2.408  -6.265  0.00  0.00    +0.064 C 
ATOM      7  C   UNL     1      -0.397  -2.500  -1.201  0.00  0.00    +0.064 C 
ENDROOT
BRANCH   4   8
ATOM      8  C   UNL     1      -3.559  -2.243  -5.126  0.00  0.00    +0.028 C 
ATOM      9  C   UNL     1      -4.548  -1.328  -4.786  0.00  0.00    +0.102 C 
ATOM     10  C   UNL     1      -5.865  -1.342  -5.438  0.00  0.00    +0.276 C 
ATOM     11  O   UNL     1      -6.152  -2.252  -6.393  0.00  0.00    -0.268 OA
ATOM     12  N   UNL     1      -6.762  -0.444  -5.068  0.00  0.00    -0.123 NA
ATOM     13  C   UNL     1      -6.507   0.464  -4.129  0.00  0.00    +0.336 C 
ATOM     14  O   UNL     1      -7.385   1.258  -3.842  0.00  0.00    -0.250 OA
ATOM     15  N   UNL     1      -5.336   0.552  -3.481  0.00  0.00    -0.217 N 
ATOM     16  C   UNL     1      -4.325  -0.303  -3.749  0.00  0.00    +0.259 C 
ATOM     17  O   UNL     1      -3.264  -0.227  -3.158  0.00  0.00    -0.269 OA
BRANCH  15  18
ATOM     18  C   UNL     1      -5.152   1.588  -2.462  0.00  0.00    +0.086 C 
ATOM     19  C   UNL     1      -6.186   1.398  -1.350  0.00  0.00    +0.023 C 
ATOM     20  C   UNL     1      -5.994   2.481  -0.286  0.00  0.00    +0.002 C 
ATOM     21  C   UNL     1      -6.177   3.860  -0.922  0.00  0.00    +0.000 C 
ATOM     22  C   UNL     1      -5.144   4.050  -2.035  0.00  0.00    +0.002 C 
ATOM     23  C   UNL     1      -5.336   2.967  -3.099  0.00  0.00    +0.023 C 
ENDBRANCH  15  18
ENDBRANCH   4   8
BRANCH   1  28
ATOM     24  C   UNL     1       1.890  -3.558  -4.427  0.00  0.00    +0.093 A 
ATOM     25  C   UNL     1       3.334  -3.416  -4.368  0.00  0.00    -0.021 A 
ATOM     26  C   UNL     1       3.754  -2.313  -3.710  0.00  0.00    -0.004 A 
ATOM     27  S   UNL     1       2.268  -1.504  -3.197  0.00  0.00    -0.075 S 
ATOM     28  C   UNL     1       1.131  -2.568  -3.824  0.00  0.00    +0.099 A 
ATOM     29  C   UNL     1       5.172  -1.890  -3.478  0.00  0.00    +0.043 C 
ATOM     30  C   UNL     1       6.087  -3.088  -3.771  0.00  0.00    +0.005 C 
ATOM     31  C   UNL     1       5.681  -3.706  -5.112  0.00  0.00    +0.005 C 
ATOM     32  C   UNL     1       4.323  -4.398  -4.978  0.00  0.00    +0.037 C 
BRANCH  24  33
ATOM     33  C   UNL     1       1.262  -4.698  -5.102  0.00  0.00    +0.342 C 
ATOM     34  O   UNL     1       1.098  -4.676  -6.307  0.00  0.00    -0.245 OA
BRANCH  33  35
ATOM     35  O   UNL     1       0.867  -5.771  -4.387  0.00  0.00    -0.461 OA
BRANCH  35  37
ATOM     36  C   UNL     1       0.085  -8.046  -4.158  0.00  0.00    +0.048 C 
ATOM     37  C   UNL     1       0.366  -6.890  -5.120  0.00  0.00    +0.229 C 
ENDBRANCH  35  37
ENDBRANCH  33  35
ENDBRANCH  24  33
ENDBRANCH   1  28
TORSDOF 6
