REMARK  Name = ZINC56652574
REMARK  9 active torsions:
REMARK  status: ('A' for Active; 'I' for Inactive)
REMARK    1  A    between atoms: C_1  and  C_2
REMARK    2  A    between atoms: C_2  and  C_4
REMARK    3  A    between atoms: C_2  and  C_21
REMARK    4  A    between atoms: C_4  and  N_5
REMARK    5  A    between atoms: N_8  and  C_9
REMARK    6  A    between atoms: C_14  and  C_15
REMARK    7  A    between atoms: N_17  and  C_18
REMARK    8  A    between atoms: N_17  and  C_19
REMARK    9  A    between atoms: C_21  and  N_22
REMARK                            x       y       z     vdW  Elec       q    Type
REMARK                         _______ _______ _______ _____ _____    ______ ____
ROOT
ATOM      1  N   UNL     1       2.288  -0.299   0.945  0.00  0.00    -0.299 N 
ATOM      2  C   UNL     1       3.179  -0.526   1.930  0.00  0.00    +0.304 C 
ATOM      3  O   UNL     1       2.809  -0.998   2.987  0.00  0.00    -0.253 OA
ATOM      4  N   UNL     1       4.481  -0.229   1.743  0.00  0.00    -0.269 N 
ATOM      5  H   UNL     1       2.583   0.078   0.101  0.00  0.00    +0.150 HD
ATOM      6  H   UNL     1       4.765   0.214   0.928  0.00  0.00    +0.156 HD
ENDROOT
BRANCH   4   7
ATOM      7  C   UNL     1       5.417  -0.558   2.720  0.00  0.00    +0.048 A 
ATOM      8  C   UNL     1       5.069  -0.515   4.062  0.00  0.00    +0.044 A 
ATOM      9  C   UNL     1       6.000  -0.842   5.029  0.00  0.00    +0.043 A 
ATOM     10  C   UNL     1       7.287  -1.214   4.668  0.00  0.00    +0.021 A 
ATOM     11  C   UNL     1       7.649  -1.262   3.340  0.00  0.00    +0.016 A 
ATOM     12  C   UNL     1       6.716  -0.940   2.350  0.00  0.00    +0.058 A 
ATOM     13 CL   UNL     1       5.558  -0.786   6.707  0.00  0.00    -0.083 Cl
BRANCH  12  14
ATOM     14  C   UNL     1       7.096  -0.996   0.927  0.00  0.00    +0.248 C 
ATOM     15  O   UNL     1       6.426  -1.641   0.143  0.00  0.00    -0.270 OA
ATOM     16  N   UNL     1       8.186  -0.332   0.494  0.00  0.00    -0.304 N 
ATOM     17  C   UNL     1       8.502  -0.297  -0.936  0.00  0.00    +0.132 C 
ATOM     18  C   UNL     1       9.054   0.356   1.453  0.00  0.00    +0.132 C 
ENDBRANCH  12  14
ENDBRANCH   4   7
BRANCH   1  19
ATOM     19  C   UNL     1       0.874  -0.622   1.148  0.00  0.00    +0.107 C 
BRANCH  19  21
ATOM     20  C   UNL     1       0.126   1.243  -0.338  0.00  0.00    +0.007 C 
ATOM     21  C   UNL     1       0.084  -0.270  -0.115  0.00  0.00    -0.014 C 
BRANCH  21  22
ATOM     22  C   UNL     1      -1.369  -0.722   0.051  0.00  0.00    -0.074 C 
BRANCH  22  23
ATOM     23  N   UNL     1      -2.100  -0.487  -1.202  0.00  0.00    +0.380 N 
ATOM     24  C   UNL     1      -3.524  -0.776  -0.997  0.00  0.00    -0.079 C 
ATOM     25  C   UNL     1      -4.303  -0.456  -2.274  0.00  0.00    -0.019 C 
ATOM     26  C   UNL     1      -3.766  -1.316  -3.422  0.00  0.00    -0.004 C 
ATOM     27  C   UNL     1      -2.264  -1.061  -3.578  0.00  0.00    -0.019 C 
ATOM     28  C   UNL     1      -1.561  -1.359  -2.252  0.00  0.00    -0.079 C 
ATOM     29  H   UNL     1      -1.991   0.478  -1.478  0.00  0.00    -0.082 HD
ENDBRANCH  22  23
ENDBRANCH  21  22
ENDBRANCH  19  21
ENDBRANCH   1  19
TORSDOF 6
