REMARK  Name = ZINC09588540
REMARK  10 active torsions:
REMARK  status: ('A' for Active; 'I' for Inactive)
REMARK    1  A    between atoms: C_1  and  C_2
REMARK    2  A    between atoms: C_2  and  O_3
REMARK    3  A    between atoms: O_3  and  C_4
REMARK    4  A    between atoms: C_6  and  C_19
REMARK    5  A    between atoms: C_9  and  O_10
REMARK    6  A    between atoms: O_10  and  C_11
REMARK    7  A    between atoms: C_11  and  C_12
REMARK    8  A    between atoms: C_20  and  C_21
REMARK    9  A    between atoms: C_21  and  C_23
REMARK   10  A    between atoms: C_27  and  C_31
REMARK                            x       y       z     vdW  Elec       q    Type
REMARK                         _______ _______ _______ _____ _____    ______ ____
ROOT
ATOM      1  C   UNL     1      -1.800  -0.973   1.223  0.00  0.00    +0.164 A 
ATOM      2  C   UNL     1      -3.024  -1.611   1.235  0.00  0.00    +0.057 A 
ATOM      3  C   UNL     1      -3.655  -1.931   0.026  0.00  0.00    -0.020 A 
ATOM      4  C   UNL     1      -3.043  -1.595  -1.189  0.00  0.00    +0.027 A 
ATOM      5  C   UNL     1      -1.824  -0.953  -1.191  0.00  0.00    +0.064 A 
ATOM      6  C   UNL     1      -1.199  -0.637   0.010  0.00  0.00    +0.176 A 
ATOM      7 BR   UNL     1      -0.999  -0.501  -2.831  0.00  0.00    -0.046 Br
ENDROOT
BRANCH   3   8
ATOM      8  C   UNL     1      -4.954  -2.615   0.031  0.00  0.00    +0.012 C 
ATOM      9  C   UNL     1      -5.562  -2.924  -1.140  0.00  0.00    +0.052 C 
BRANCH   9  10
ATOM     10  C   UNL     1      -6.807  -3.580  -1.135  0.00  0.00    +0.197 C 
ATOM     11  O   UNL     1      -7.337  -3.870  -0.081  0.00  0.00    -0.287 OA
BRANCH  10  12
ATOM     12  C   UNL     1      -7.484  -3.924  -2.437  0.00  0.00    +0.152 A 
ATOM     13  C   UNL     1      -8.438  -5.081  -2.233  0.00  0.00    +0.200 A 
ATOM     14  O   UNL     1      -8.031  -6.226  -2.240  0.00  0.00    -0.287 OA
ATOM     15  C   UNL     1      -9.806  -4.807  -2.036  0.00  0.00    +0.093 A 
ATOM     16  C   UNL     1     -10.275  -3.547  -2.061  0.00  0.00    +0.110 A 
ATOM     17  O   UNL     1      -9.461  -2.492  -2.261  0.00  0.00    -0.427 OA
ATOM     18  C   UNL     1      -8.305  -2.744  -2.920  0.00  0.00    +0.352 A 
ATOM     19  O   UNL     1      -7.944  -2.061  -3.849  0.00  0.00    -0.244 OA
ATOM     20  C   UNL     1     -11.750  -3.309  -1.859  0.00  0.00    +0.086 C 
ENDBRANCH  10  12
ENDBRANCH   9  10
ENDBRANCH   3   8
BRANCH   1  21
ATOM     21  O   UNL     1      -1.183  -0.666   2.395  0.00  0.00    -0.489 OA
BRANCH  21  23
ATOM     22  C   UNL     1      -1.014  -0.615   4.805  0.00  0.00    +0.048 C 
ATOM     23  C   UNL     1      -1.855  -1.039   3.600  0.00  0.00    +0.226 C 
ENDBRANCH  21  23
ENDBRANCH   1  21
BRANCH   6  24
ATOM     24  O   UNL     1       0.002  -0.004   0.002  0.00  0.00    -0.483 OA
BRANCH  24  25
ATOM     25  C   UNL     1      -0.017   1.425   0.010  0.00  0.00    +0.264 C 
BRANCH  25  26
ATOM     26  C   UNL     1       1.397   1.946  -0.001  0.00  0.00    -0.010 A 
ATOM     27  C   UNL     1       2.054   2.185   1.191  0.00  0.00    +0.007 A 
ATOM     28  C   UNL     1       3.353   2.658   1.181  0.00  0.00    +0.000 A 
ATOM     29  C   UNL     1       3.990   2.904  -0.020  0.00  0.00    +0.000 A 
ATOM     30  C   UNL     1       3.330   2.671  -1.213  0.00  0.00    +0.000 A 
ATOM     31  C   UNL     1       2.034   2.192  -1.203  0.00  0.00    +0.007 A 
ENDBRANCH  25  26
ENDBRANCH  24  25
ENDBRANCH   6  24
TORSDOF 8
