REMARK  Name = ZINC61697924
REMARK  6 active torsions:
REMARK  status: ('A' for Active; 'I' for Inactive)
REMARK    1  A    between atoms: C_1  and  C_2
REMARK    2  A    between atoms: C_2  and  C_4
REMARK    3  A    between atoms: C_2  and  O_22
REMARK    4  A    between atoms: C_7  and  O_11
REMARK    5  A    between atoms: O_11  and  C_12
REMARK    6  A    between atoms: C_15  and  N_19
REMARK                            x       y       z     vdW  Elec       q    Type
REMARK                         _______ _______ _______ _____ _____    ______ ____
ROOT
ATOM      1  C   UNL     1      -1.190  -1.434   0.034  0.00  0.00    -0.018 A 
ATOM      2  C   UNL     1      -1.865  -1.572   1.233  0.00  0.00    +0.010 A 
ATOM      3  C   UNL     1      -3.236  -1.746   1.239  0.00  0.00    +0.048 A 
ATOM      4  C   UNL     1      -3.935  -1.782   0.041  0.00  0.00    +0.147 A 
ATOM      5  C   UNL     1      -3.254  -1.643  -1.161  0.00  0.00    +0.083 A 
ATOM      6  C   UNL     1      -1.883  -1.464  -1.161  0.00  0.00    +0.029 A 
ATOM      7 CL   UNL     1      -4.125  -1.688  -2.663  0.00  0.00    -0.080 Cl
ENDROOT
BRANCH   1   9
ATOM      8  C   UNL     1       0.635   0.216   0.348  0.00  0.00    +0.043 C 
ATOM      9  C   UNL     1       0.305  -1.244   0.031  0.00  0.00    +0.141 C 
BRANCH   9  10
ATOM     10  O   UNL     1       0.895  -2.091   1.020  0.00  0.00    -0.387 OA
ATOM     11  H   UNL     1       1.858  -2.021   1.074  0.00  0.00    +0.210 HD
ENDBRANCH   9  10
ENDBRANCH   1   9
BRANCH   4  12
ATOM     12  O   UNL     1      -5.283  -1.954   0.044  0.00  0.00    -0.455 OA
BRANCH  12  13
ATOM     13  C   UNL     1      -5.907  -2.078   1.245  0.00  0.00    +0.130 A 
ATOM     14  C   UNL     1      -6.378  -0.951   1.903  0.00  0.00    +0.048 A 
ATOM     15  C   UNL     1      -7.013  -1.079   3.123  0.00  0.00    +0.038 A 
ATOM     16  C   UNL     1      -7.180  -2.329   3.689  0.00  0.00    +0.145 A 
ATOM     17  C   UNL     1      -6.711  -3.455   3.036  0.00  0.00    +0.075 A 
ATOM     18  C   UNL     1      -6.080  -3.332   1.812  0.00  0.00    +0.068 A 
ATOM     19 CL   UNL     1      -6.921  -5.023   3.750  0.00  0.00    -0.081 Cl
BRANCH  16  20
ATOM     20  N   UNL     1      -7.860  -2.464   4.997  0.00  0.00    +0.058 N 
ATOM     21  O   UNL     1      -8.270  -1.480   5.569  0.00  0.00    -0.126 OA
ATOM     22  O   UNL     1      -8.006  -3.556   5.493  0.00  0.00    -0.126 OA
ENDBRANCH  16  20
ENDBRANCH  12  13
ENDBRANCH   4  12
TORSDOF 5
