REMARK  Name = ZINC13215340
REMARK  9 active torsions:
REMARK  status: ('A' for Active; 'I' for Inactive)
REMARK    1  A    between atoms: C_1  and  C_2
REMARK    2  A    between atoms: C_5  and  C_9
REMARK    3  A    between atoms: C_6  and  C_8
REMARK    4  A    between atoms: C_9  and  C_11
REMARK    5  A    between atoms: N_15  and  C_27
REMARK    6  A    between atoms: C_16  and  C_18
REMARK    7  A    between atoms: C_22  and  N_24
REMARK    8  A    between atoms: C_29  and  C_34
REMARK    9  A    between atoms: C_32  and  C_33
REMARK                            x       y       z     vdW  Elec       q    Type
REMARK                         _______ _______ _______ _____ _____    ______ ____
ROOT
ATOM      1  C   UNL     1      -0.182  -5.196  -1.505  0.00  0.00    +0.077 C 
ATOM      2  C   UNL     1      -0.218  -6.482  -1.927  0.00  0.00    +0.250 C 
ATOM      3  C   UNL     1      -0.154  -6.510  -3.403  0.00  0.00    +0.292 C 
ATOM      4  O   UNL     1      -0.167  -7.518  -4.082  0.00  0.00    -0.266 OA
ATOM      5  N   UNL     1      -0.079  -5.256  -3.884  0.00  0.00    -0.253 N 
ATOM      6  C   UNL     1      -0.095  -4.333  -2.742  0.00  0.00    +0.150 C 
ATOM      7  O   UNL     1      -0.300  -7.568  -1.125  0.00  0.00    -0.282 OA
ENDROOT
BRANCH   5   8
ATOM      8  C   UNL     1      -0.002  -4.895  -5.232  0.00  0.00    +0.041 A 
ATOM      9  C   UNL     1      -1.163  -4.659  -5.953  0.00  0.00    +0.039 A 
ATOM     10  C   UNL     1      -1.081  -4.299  -7.299  0.00  0.00    +0.065 A 
ATOM     11  C   UNL     1       0.170  -4.179  -7.910  0.00  0.00    +0.015 A 
ATOM     12  C   UNL     1       1.318  -4.416  -7.183  0.00  0.00    +0.006 A 
ATOM     13  C   UNL     1       1.237  -4.767  -5.848  0.00  0.00    -0.029 A 
ATOM     14  C   UNL     1       2.497  -5.019  -5.060  0.00  0.00    +0.045 C 
BRANCH  10  15
ATOM     15  C   UNL     1      -2.311  -4.046  -8.074  0.00  0.00    +0.387 C 
ATOM     16  O   UNL     1      -3.405  -4.152  -7.537  0.00  0.00    -0.241 OA
ATOM     17  O   UNL     1      -2.237  -3.731  -9.253  0.00  0.00    -0.241 OA
ENDBRANCH  10  15
ENDBRANCH   5   8
BRANCH   6  18
ATOM     18  C   UNL     1      -1.294  -3.424  -2.825  0.00  0.00    -0.020 A 
ATOM     19  C   UNL     1      -2.541  -3.949  -3.110  0.00  0.00    +0.006 A 
ATOM     20  C   UNL     1      -3.641  -3.115  -3.186  0.00  0.00    +0.003 A 
ATOM     21  C   UNL     1      -3.494  -1.757  -2.976  0.00  0.00    +0.033 A 
ATOM     22  C   UNL     1      -2.248  -1.232  -2.690  0.00  0.00    +0.127 A 
ATOM     23  C   UNL     1      -1.149  -2.067  -2.610  0.00  0.00    +0.038 A 
BRANCH  22  24
ATOM     24  N   UNL     1      -2.091   0.222  -2.466  0.00  0.00    +0.056 N 
ATOM     25  O   UNL     1      -3.062   0.942  -2.465  0.00  0.00    -0.126 OA
ATOM     26  O   UNL     1      -0.991   0.691  -2.284  0.00  0.00    -0.126 OA
ENDBRANCH  22  24
ENDBRANCH   6  18
BRANCH   1  27
ATOM     27  C   UNL     1      -0.224  -4.730  -0.116  0.00  0.00    +0.195 C 
ATOM     28  O   UNL     1      -0.358  -5.531   0.790  0.00  0.00    -0.287 OA
BRANCH  27  33
ATOM     29  C   UNL     1       0.244   0.885   1.054  0.00  0.00    +0.044 C 
ATOM     30  C   UNL     1       0.121  -0.585   0.748  0.00  0.00    -0.050 A 
ATOM     31  C   UNL     1      -1.116  -1.202   0.812  0.00  0.00    +0.004 A 
ATOM     32  C   UNL     1      -1.236  -2.547   0.533  0.00  0.00    +0.012 A 
ATOM     33  C   UNL     1      -0.104  -3.287   0.184  0.00  0.00    +0.025 A 
ATOM     34  C   UNL     1       1.141  -2.659   0.120  0.00  0.00    -0.039 A 
ATOM     35  C   UNL     1       1.246  -1.312   0.397  0.00  0.00    +0.007 A 
ATOM     36  C   UNL     1       2.368  -3.450  -0.255  0.00  0.00    +0.044 C 
ENDBRANCH  27  33
ENDBRANCH   1  27
TORSDOF 6
