REMARK  Name = ZINC33717587
REMARK  9 active torsions:
REMARK  status: ('A' for Active; 'I' for Inactive)
REMARK    1  A    between atoms: C_1  and  C_2
REMARK    2  A    between atoms: C_4  and  C_35
REMARK    3  A    between atoms: C_5  and  S_9
REMARK    4  A    between atoms: C_6  and  C_8
REMARK    5  A    between atoms: S_9  and  N_12
REMARK    6  A    between atoms: C_20  and  C_27
REMARK    7  A    between atoms: C_21  and  C_26
REMARK    8  A    between atoms: C_23  and  C_25
REMARK    9  A    between atoms: C_27  and  C_28
REMARK                            x       y       z     vdW  Elec       q    Type
REMARK                         _______ _______ _______ _____ _____    ______ ____
ROOT
ATOM      1  N   UNL     1       4.566  -1.280   0.533  0.00  0.00    -0.175 NA
ATOM      2  C   UNL     1       4.148  -0.983  -0.851  0.00  0.00    +0.111 C 
ATOM      3  C   UNL     1       2.665  -0.578  -0.913  0.00  0.00    +0.036 C 
ATOM      4  C   UNL     1       1.862  -1.445   0.031  0.00  0.00    +0.108 C 
ATOM      5  N   UNL     1       1.767  -0.779   1.329  0.00  0.00    -0.314 N 
ATOM      6  C   UNL     1       2.824  -1.020   2.237  0.00  0.00    +0.123 C 
ATOM      7  C   UNL     1       4.152  -0.471   1.661  0.00  0.00    +0.128 C 
ATOM      8  C   UNL     1       0.538  -1.020   1.922  0.00  0.00    +0.128 A 
ATOM      9  C   UNL     1      -0.097  -0.024   2.667  0.00  0.00    +0.016 A 
ATOM     10  C   UNL     1      -1.323  -0.311   3.234  0.00  0.00    +0.021 A 
ATOM     11  N   UNL     1      -1.851  -1.515   3.058  0.00  0.00    -0.347 N 
ATOM     12  C   UNL     1      -1.224  -2.434   2.353  0.00  0.00    +0.106 A 
ATOM     13  N   UNL     1      -0.053  -2.204   1.795  0.00  0.00    -0.219 NA
ATOM     14  C   UNL     1      -1.864  -3.788   2.180  0.00  0.00    +0.086 C 
ATOM     15  C   UNL     1      -2.053   0.730   4.043  0.00  0.00    +0.064 C 
ATOM     16  H   UNL     1      -2.827  -1.758   3.503  0.00  0.00    +0.167 HD
ENDROOT
BRANCH   1  17
ATOM     17  S   UNL     1       5.545  -2.587   0.806  0.00  0.00    +0.061 S 
ATOM     18  O   UNL     1       6.082  -2.963  -0.454  0.00  0.00    -0.153 OA
ATOM     19  O   UNL     1       6.368  -2.252   1.915  0.00  0.00    -0.153 OA
BRANCH  17  24
ATOM     20  C   UNL     1       2.001  -7.130   2.596  0.00  0.00    +0.044 C 
ATOM     21  C   UNL     1       2.886  -5.995   2.149  0.00  0.00    -0.050 A 
ATOM     22  C   UNL     1       3.395  -5.108   3.079  0.00  0.00    +0.008 A 
ATOM     23  C   UNL     1       4.207  -4.067   2.669  0.00  0.00    -0.024 A 
ATOM     24  C   UNL     1       4.510  -3.914   1.329  0.00  0.00    +0.111 A 
ATOM     25  C   UNL     1       3.997  -4.798   0.399  0.00  0.00    -0.024 A 
ATOM     26  C   UNL     1       3.188  -5.841   0.809  0.00  0.00    +0.008 A 
ATOM     27  C   UNL     1       4.322  -4.627  -1.063  0.00  0.00    +0.046 C 
ATOM     28  C   UNL     1       4.762  -3.100   3.683  0.00  0.00    +0.046 C 
ENDBRANCH  17  24
ENDBRANCH   1  17
BRANCH   9  29
ATOM     29  C   UNL     1       0.536   1.332   2.844  0.00  0.00    +0.075 C 
BRANCH  29  30
ATOM     30  C   UNL     1       0.055   2.257   1.756  0.00  0.00    -0.040 A 
ATOM     31  C   UNL     1       0.776   2.379   0.583  0.00  0.00    +0.004 A 
ATOM     32  C   UNL     1       0.334   3.224  -0.417  0.00  0.00    +0.003 A 
ATOM     33  C   UNL     1      -0.826   3.955  -0.242  0.00  0.00    +0.038 A 
ATOM     34  C   UNL     1      -1.547   3.837   0.934  0.00  0.00    +0.124 A 
ATOM     35  C   UNL     1      -1.105   2.987   1.934  0.00  0.00    +0.042 A 
ATOM     36  F   UNL     1      -2.680   4.552   1.107  0.00  0.00    -0.205 F 
ENDBRANCH  29  30
ENDBRANCH   9  29
TORSDOF 4
