REMARK  Name = ZINC45513226
REMARK  5 active torsions:
REMARK  status: ('A' for Active; 'I' for Inactive)
REMARK    1  A    between atoms: C_1  and  C_2
REMARK    2  A    between atoms: C_2  and  C_4
REMARK    3  A    between atoms: C_2  and  N_20
REMARK    4  A    between atoms: C_9  and  C_12
REMARK    5  A    between atoms: C_23  and  N_26
REMARK                            x       y       z     vdW  Elec       q    Type
REMARK                         _______ _______ _______ _____ _____    ______ ____
ROOT
ATOM      1  C   UNL     1      -0.557   1.414   0.134  0.00  0.00    -0.004 C 
ATOM      2  C   UNL     1       0.002  -0.004   0.002  0.00  0.00    +0.016 C 
ENDROOT
BRANCH   2   3
ATOM      3  C   UNL     1       0.673  -0.401   1.292  0.00  0.00    +0.205 C 
ATOM      4  O   UNL     1       0.041  -0.974   2.153  0.00  0.00    -0.277 OA
ATOM      5  N   UNL     1       1.977  -0.120   1.487  0.00  0.00    -0.266 N 
ATOM      6  C   UNL     1       2.596  -0.486   2.676  0.00  0.00    +0.165 A 
ATOM      7  N   UNL     1       3.845  -0.300   3.059  0.00  0.00    -0.225 NA
ATOM      8  C   UNL     1       4.272  -0.719   4.241  0.00  0.00    +0.080 A 
ATOM      9  C   UNL     1       3.402  -1.356   5.081  0.00  0.00    +0.076 A 
ATOM     10  S   UNL     1       1.910  -1.328   4.096  0.00  0.00    -0.060 S 
ATOM     11  H   UNL     1       2.483   0.338   0.798  0.00  0.00    +0.157 HD
BRANCH   8  12
ATOM     12  C   UNL     1       5.681  -0.498   4.649  0.00  0.00    +0.004 A 
ATOM     13  C   UNL     1       6.126  -0.946   5.892  0.00  0.00    +0.013 A 
ATOM     14  C   UNL     1       7.438  -0.740   6.269  0.00  0.00    +0.042 A 
ATOM     15  C   UNL     1       8.312  -0.088   5.415  0.00  0.00    +0.158 A 
ATOM     16  C   UNL     1       7.874   0.359   4.177  0.00  0.00    +0.159 A 
ATOM     17  C   UNL     1       6.564   0.152   3.790  0.00  0.00    +0.051 A 
ATOM     18  F   UNL     1       8.730   0.995   3.347  0.00  0.00    -0.202 F 
ATOM     19  F   UNL     1       9.595   0.112   5.788  0.00  0.00    -0.202 F 
ENDBRANCH   8  12
ENDBRANCH   2   3
BRANCH   2  20
ATOM     20  N   UNL     1      -1.094  -0.938  -0.287  0.00  0.00    +0.387 N 
ATOM     21  C   UNL     1      -0.559  -2.300  -0.395  0.00  0.00    -0.076 C 
ATOM     22  C   UNL     1      -1.707  -3.288  -0.616  0.00  0.00    +0.006 C 
ATOM     23  C   UNL     1      -2.445  -2.924  -1.907  0.00  0.00    +0.089 C 
ATOM     24  C   UNL     1      -2.934  -1.476  -1.813  0.00  0.00    +0.006 C 
ATOM     25  C   UNL     1      -1.741  -0.556  -1.548  0.00  0.00    -0.076 C 
ATOM     26  H   UNL     1      -1.771  -0.903   0.461  0.00  0.00    -0.081 HD
BRANCH  23  27
ATOM     27  N   UNL     1      -3.591  -3.818  -2.085  0.00  0.00    -0.289 N 
ATOM     28  C   UNL     1      -3.794  -4.680  -3.161  0.00  0.00    +0.070 A 
ATOM     29  C   UNL     1      -3.065  -4.959  -4.307  0.00  0.00    +0.028 A 
ATOM     30  C   UNL     1      -3.537  -5.888  -5.213  0.00  0.00    +0.002 A 
ATOM     31  C   UNL     1      -4.736  -6.542  -4.982  0.00  0.00    +0.002 A 
ATOM     32  C   UNL     1      -5.469  -6.270  -3.843  0.00  0.00    +0.028 A 
ATOM     33  C   UNL     1      -5.002  -5.339  -2.928  0.00  0.00    +0.067 A 
ATOM     34  N   UNL     1      -5.497  -4.858  -1.718  0.00  0.00    -0.306 N 
ATOM     35  H   UNL     1      -6.325  -5.132  -1.293  0.00  0.00    +0.170 HD
ATOM     36  C   UNL     1      -4.626  -3.952  -1.234  0.00  0.00    +0.328 A 
ATOM     37  O   UNL     1      -4.756  -3.344  -0.188  0.00  0.00    -0.247 OA
ENDBRANCH  23  27
ENDBRANCH   2  20
TORSDOF 4
