REMARK  Name = ZINC44168980
REMARK  11 active torsions:
REMARK  status: ('A' for Active; 'I' for Inactive)
REMARK    1  A    between atoms: C_1  and  C_2
REMARK    2  A    between atoms: C_2  and  C_40
REMARK    3  A    between atoms: C_5  and  C_38
REMARK    4  A    between atoms: C_5  and  C_39
REMARK    5  A    between atoms: C_10  and  C_12
REMARK    6  A    between atoms: C_17  and  C_20
REMARK    7  A    between atoms: N_22  and  C_23
REMARK    8  A    between atoms: C_23  and  C_24
REMARK    9  A    between atoms: C_24  and  C_25
REMARK   10  A    between atoms: C_25  and  C_26
REMARK   11  A    between atoms: C_25  and  C_32
REMARK                            x       y       z     vdW  Elec       q    Type
REMARK                         _______ _______ _______ _____ _____    ______ ____
ROOT
ATOM      1  C   UNL     1       3.379  -2.516   2.725  0.00  0.00    -0.030 C 
ATOM      2  C   UNL     1       2.248  -3.273   3.431  0.00  0.00    +0.058 C 
ATOM      3  S   UNL     1       2.728  -3.523   5.169  0.00  0.00    -0.163 S 
ATOM      4  C   UNL     1       3.240  -1.854   5.685  0.00  0.00    +0.062 C 
ATOM      5  C   UNL     1       4.223  -1.310   4.641  0.00  0.00    +0.027 C 
ATOM      6  N   UNL     1       3.556  -1.200   3.342  0.00  0.00    +0.392 N 
ATOM      7  H   UNL     1       4.114  -0.621   2.732  0.00  0.00    -0.084 HD
ATOM      8  H   UNL     1       2.652  -0.770   3.468  0.00  0.00    -0.084 HD
ENDROOT
BRANCH   1  18
ATOM      9  C   UNL     1       2.008  -0.322  -3.153  0.00  0.00    +0.016 C 
ATOM     10  C   UNL     1       2.011  -1.822  -2.852  0.00  0.00    -0.010 C 
ATOM     11  C   UNL     1       2.996  -2.521  -3.787  0.00  0.00    +0.012 C 
ATOM     12  C   UNL     1       3.147  -3.977  -3.329  0.00  0.00    +0.012 C 
ATOM     13  C   UNL     1       3.902  -3.988  -2.001  0.00  0.00    -0.010 C 
ATOM     14  C   UNL     1       3.266  -3.036  -1.022  0.00  0.00    -0.038 A 
ATOM     15  C   UNL     1       2.400  -2.039  -1.413  0.00  0.00    -0.038 A 
ATOM     16  C   UNL     1       1.853  -1.191  -0.460  0.00  0.00    +0.004 A 
ATOM     17  C   UNL     1       2.167  -1.341   0.875  0.00  0.00    +0.002 A 
ATOM     18  C   UNL     1       3.033  -2.344   1.268  0.00  0.00    -0.060 A 
ATOM     19  C   UNL     1       3.579  -3.187   0.322  0.00  0.00    +0.006 A 
ATOM     20  C   UNL     1       5.354  -3.567  -2.243  0.00  0.00    +0.016 C 
ATOM     21  C   UNL     1       3.878  -5.402  -1.419  0.00  0.00    +0.016 C 
ATOM     22  C   UNL     1       0.608  -2.386  -3.086  0.00  0.00    +0.016 C 
ENDBRANCH   1  18
BRANCH   5  23
ATOM     23  C   UNL     1       5.398  -2.245   4.523  0.00  0.00    +0.200 C 
ATOM     24  O   UNL     1       5.910  -2.442   3.442  0.00  0.00    -0.278 OA
ATOM     25  N   UNL     1       5.879  -2.864   5.619  0.00  0.00    -0.317 N 
ATOM     26  H   UNL     1       5.470  -2.707   6.484  0.00  0.00    +0.149 HD
BRANCH  25  27
ATOM     27  C   UNL     1       7.022  -3.774   5.505  0.00  0.00    +0.105 C 
BRANCH  27  28
ATOM     28  C   UNL     1       7.365  -4.338   6.885  0.00  0.00    +0.031 C 
BRANCH  28  29
ATOM     29  C   UNL     1       8.558  -5.288   6.765  0.00  0.00    +0.050 C 
BRANCH  29  30
ATOM     30  C   UNL     1       9.777  -4.513   6.337  0.00  0.00    -0.040 A 
ATOM     31  C   UNL     1      10.498  -4.914   5.227  0.00  0.00    +0.004 A 
ATOM     32  C   UNL     1      11.616  -4.203   4.835  0.00  0.00    +0.000 A 
ATOM     33  C   UNL     1      12.013  -3.089   5.551  0.00  0.00    +0.000 A 
ATOM     34  C   UNL     1      11.293  -2.687   6.659  0.00  0.00    +0.000 A 
ATOM     35  C   UNL     1      10.172  -3.396   7.050  0.00  0.00    +0.004 A 
ENDBRANCH  29  30
BRANCH  29  36
ATOM     36  C   UNL     1       8.819  -5.937   8.100  0.00  0.00    -0.040 A 
ATOM     37  C   UNL     1       8.981  -5.156   9.229  0.00  0.00    +0.004 A 
ATOM     38  C   UNL     1       9.220  -5.751  10.453  0.00  0.00    +0.000 A 
ATOM     39  C   UNL     1       9.298  -7.128  10.549  0.00  0.00    +0.000 A 
ATOM     40  C   UNL     1       9.135  -7.910   9.420  0.00  0.00    +0.000 A 
ATOM     41  C   UNL     1       8.892  -7.314   8.196  0.00  0.00    +0.004 A 
ENDBRANCH  29  36
ENDBRANCH  28  29
ENDBRANCH  27  28
ENDBRANCH  25  27
ENDBRANCH   5  23
TORSDOF 7
