REMARK  Name = ZINC04711890
REMARK  9 active torsions:
REMARK  status: ('A' for Active; 'I' for Inactive)
REMARK    1  A    between atoms: C_1  and  C_2
REMARK    2  A    between atoms: C_5  and  N_8
REMARK    3  A    between atoms: N_8  and  C_9
REMARK    4  A    between atoms: C_9  and  C_10
REMARK    5  A    between atoms: N_12  and  N_13
REMARK    6  A    between atoms: C_14  and  C_15
REMARK    7  A    between atoms: C_17  and  N_22
REMARK    8  A    between atoms: C_20  and  O_21
REMARK    9  A    between atoms: N_23  and  C_24
REMARK                            x       y       z     vdW  Elec       q    Type
REMARK                         _______ _______ _______ _____ _____    ______ ____
ROOT
ATOM      1  N   UNL     1       4.748   0.323  -0.042  0.00  0.00    -0.188 NA
ATOM      2  C   UNL     1       5.965   0.772  -0.051  0.00  0.00    +0.142 C 
ENDROOT
BRANCH   2   3
ATOM      3  C   UNL     1       7.098  -0.171  -0.067  0.00  0.00    +0.038 A 
ATOM      4  C   UNL     1       8.406   0.309  -0.082  0.00  0.00    +0.042 A 
ATOM      5  C   UNL     1       9.473  -0.591  -0.091  0.00  0.00    +0.087 A 
ATOM      6  C   UNL     1       9.226  -1.968  -0.097  0.00  0.00    +0.033 A 
ATOM      7  C   UNL     1       7.931  -2.441  -0.087  0.00  0.00    +0.048 A 
ATOM      8  C   UNL     1       6.863  -1.554  -0.072  0.00  0.00    +0.126 A 
BRANCH   8   9
ATOM      9  O   UNL     1       5.591  -2.026  -0.063  0.00  0.00    -0.506 OA
ATOM     10  H   UNL     1       5.214  -2.158  -0.943  0.00  0.00    +0.292 HD
ENDBRANCH   8   9
BRANCH   5  11
ATOM     11  N   UNL     1      10.757  -0.127  -0.101  0.00  0.00    -0.149 NA
ATOM     12  N   UNL     1      11.743  -0.959  -0.115  0.00  0.00    -0.149 NA
BRANCH  12  13
ATOM     13  C   UNL     1      13.029  -0.495  -0.125  0.00  0.00    +0.086 A 
ATOM     14  C   UNL     1      13.279   0.880  -0.126  0.00  0.00    +0.029 A 
ATOM     15  C   UNL     1      14.579   1.341  -0.131  0.00  0.00    +0.002 A 
ATOM     16  C   UNL     1      15.634   0.446  -0.145  0.00  0.00    +0.000 A 
ATOM     17  C   UNL     1      15.394  -0.917  -0.150  0.00  0.00    +0.002 A 
ATOM     18  C   UNL     1      14.100  -1.393  -0.140  0.00  0.00    +0.029 A 
ENDBRANCH  12  13
ENDBRANCH   5  11
ENDBRANCH   2   3
BRANCH   1  21
ATOM     19  C   UNL     1       2.406   0.752  -0.017  0.00  0.00    +0.249 C 
ATOM     20  O   UNL     1       2.201  -0.444  -0.021  0.00  0.00    -0.272 OA
ATOM     21  N   UNL     1       3.671   1.218  -0.026  0.00  0.00    -0.206 N 
ATOM     22  H   UNL     1       3.835   2.174  -0.023  0.00  0.00    +0.177 HD
BRANCH  19  23
ATOM     23  C   UNL     1       1.248   1.716  -0.001  0.00  0.00    +0.199 C 
BRANCH  23  24
ATOM     24  N   UNL     1      -0.011   0.966   0.007  0.00  0.00    -0.335 N 
ATOM     25  H   UNL     1       0.002  -0.004   0.002  0.00  0.00    +0.147 HD
BRANCH  24  30
ATOM     26  C   UNL     1      -4.960   3.734   0.047  0.00  0.00    +0.044 C 
ATOM     27  C   UNL     1      -3.645   2.998   0.037  0.00  0.00    -0.050 A 
ATOM     28  C   UNL     1      -3.628   1.616   0.029  0.00  0.00    +0.005 A 
ATOM     29  C   UNL     1      -2.424   0.938   0.019  0.00  0.00    +0.023 A 
ATOM     30  C   UNL     1      -1.230   1.648   0.017  0.00  0.00    +0.028 A 
ATOM     31  C   UNL     1      -1.251   3.037   0.030  0.00  0.00    +0.023 A 
ATOM     32  C   UNL     1      -2.458   3.708   0.035  0.00  0.00    +0.005 A 
ENDBRANCH  24  30
ENDBRANCH  23  24
ENDBRANCH  19  23
ENDBRANCH   1  21
TORSDOF 8
