REMARK  Name = ZINC38676603
REMARK  6 active torsions:
REMARK  status: ('A' for Active; 'I' for Inactive)
REMARK    1  A    between atoms: C_6  and  C_7
REMARK    2  A    between atoms: C_11  and  C_13
REMARK    3  A    between atoms: C_16  and  O_20
REMARK    4  A    between atoms: C_18  and  O_19
REMARK    5  A    between atoms: O_20  and  C_21
REMARK    6  A    between atoms: C_21  and  C_22
REMARK                            x       y       z     vdW  Elec       q    Type
REMARK                         _______ _______ _______ _____ _____    ______ ____
ROOT
ATOM      1  C   UNL     1      -2.012  -0.926   2.378  0.00  0.00    +0.022 A 
ATOM      2  C   UNL     1      -3.282  -0.508   2.729  0.00  0.00    +0.013 A 
ATOM      3  C   UNL     1      -3.483   0.185   3.907  0.00  0.00    +0.046 A 
ATOM      4  C   UNL     1      -2.410   0.464   4.741  0.00  0.00    +0.124 A 
ATOM      5  C   UNL     1      -1.135   0.046   4.392  0.00  0.00    +0.091 A 
ATOM      6  C   UNL     1      -0.936  -0.654   3.212  0.00  0.00    +0.126 A 
ENDROOT
BRANCH   1  11
ATOM      7  C   UNL     1      -1.260  -0.761   0.011  0.00  0.00    +0.008 C 
ATOM      8  C   UNL     1      -2.216  -0.805  -0.947  0.00  0.00    +0.139 C 
ATOM      9  N   UNL     1      -3.220  -1.608  -0.573  0.00  0.00    -0.185 NA
ATOM     10  N   UNL     1      -3.082  -2.132   0.533  0.00  0.00    -0.297 N 
ATOM     11  C   UNL     1      -1.796  -1.682   1.093  0.00  0.00    +0.164 C 
ATOM     12  H   UNL     1      -3.708  -2.739   0.960  0.00  0.00    +0.183 HD
BRANCH   7  18
ATOM     13  C   UNL     1      -0.017   1.394   0.010  0.00  0.00    +0.010 A 
ATOM     14  C   UNL     1       1.169   2.096   0.002  0.00  0.00    +0.020 A 
ATOM     15  C   UNL     1       2.378   1.420  -0.013  0.00  0.00    +0.041 A 
ATOM     16  C   UNL     1       2.405   0.035  -0.021  0.00  0.00    +0.020 A 
ATOM     17  C   UNL     1       1.226  -0.680  -0.014  0.00  0.00    +0.010 A 
ATOM     18  C   UNL     1       0.002  -0.004   0.002  0.00  0.00    -0.018 A 
ATOM     19 CL   UNL     1       3.867   2.313  -0.022  0.00  0.00    -0.084 Cl
ENDBRANCH   7  18
ENDBRANCH   1  11
BRANCH   6  20
ATOM     20  O   UNL     1       0.311  -1.070   2.870  0.00  0.00    -0.506 OA
ATOM     21  H   UNL     1       0.810  -0.429   2.346  0.00  0.00    +0.292 HD
ENDBRANCH   6  20
BRANCH   4  22
ATOM     22  O   UNL     1      -2.608   1.147   5.899  0.00  0.00    -0.487 OA
BRANCH  22  23
ATOM     23  C   UNL     1      -3.948   1.546   6.195  0.00  0.00    +0.266 C 
BRANCH  23  24
ATOM     24  C   UNL     1      -3.973   2.285   7.508  0.00  0.00    +0.008 A 
ATOM     25  C   UNL     1      -2.800   2.481   8.214  0.00  0.00    +0.011 A 
ATOM     26  C   UNL     1      -2.822   3.159   9.418  0.00  0.00    +0.039 A 
ATOM     27  C   UNL     1      -4.020   3.642   9.919  0.00  0.00    +0.125 A 
ATOM     28  C   UNL     1      -5.194   3.446   9.213  0.00  0.00    +0.058 A 
ATOM     29  C   UNL     1      -5.169   2.772   8.005  0.00  0.00    +0.050 A 
ATOM     30 CL   UNL     1      -6.641   2.531   7.115  0.00  0.00    -0.083 Cl
ATOM     31  F   UNL     1      -4.042   4.303  11.097  0.00  0.00    -0.205 F 
ENDBRANCH  23  24
ENDBRANCH  22  23
ENDBRANCH   4  22
TORSDOF 6
