REMARK  Name = ZINC04452517
REMARK  4 active torsions:
REMARK  status: ('A' for Active; 'I' for Inactive)
REMARK    1  A    between atoms: C_4  and  C_7
REMARK    2  A    between atoms: C_10  and  C_25
REMARK    3  A    between atoms: N_11  and  O_24
REMARK    4  A    between atoms: C_12  and  C_14
REMARK                            x       y       z     vdW  Elec       q    Type
REMARK                         _______ _______ _______ _____ _____    ______ ____
ROOT
ATOM      1  C   UNL     1       0.072   0.240  -0.103  0.00  0.00    +0.100 C 
ATOM      2  N   UNL     1       0.192   1.492   0.235  0.00  0.00    -0.149 NA
ATOM      3  N   UNL     1       1.327   2.065   0.400  0.00  0.00    -0.129 NA
ATOM      4  C   UNL     1       2.452   1.389   0.484  0.00  0.00    +0.183 C 
ATOM      5  N   UNL     1       2.411   0.005   0.416  0.00  0.00    -0.222 N 
ATOM      6  C   UNL     1       1.309  -0.592  -0.359  0.00  0.00    +0.196 C 
ENDROOT
BRANCH   6   7
ATOM      7  C   UNL     1       1.645  -0.570  -1.828  0.00  0.00    +0.008 A 
ATOM      8  C   UNL     1       1.141   0.265  -2.750  0.00  0.00    +0.089 A 
ATOM      9  N   UNL     1       1.681  -0.014  -3.976  0.00  0.00    -0.360 N 
ATOM     10  H   UNL     1       1.470   0.456  -4.798  0.00  0.00    +0.165 HD
ATOM     11  C   UNL     1       2.569  -1.061  -3.870  0.00  0.00    +0.047 A 
ATOM     12  C   UNL     1       2.590  -1.452  -2.518  0.00  0.00    +0.005 A 
ATOM     13  C   UNL     1       3.415  -2.501  -2.109  0.00  0.00    +0.010 A 
ATOM     14  C   UNL     1       4.202  -3.142  -3.024  0.00  0.00    +0.001 A 
ATOM     15  C   UNL     1       4.187  -2.758  -4.358  0.00  0.00    +0.002 A 
ATOM     16  C   UNL     1       3.375  -1.730  -4.785  0.00  0.00    +0.026 A 
ENDBRANCH   6   7
BRANCH   4  17
ATOM     17  C   UNL     1       3.738   2.093   0.650  0.00  0.00    +0.021 A 
ATOM     18  C   UNL     1       4.941   1.389   0.550  0.00  0.00    +0.013 A 
ATOM     19  C   UNL     1       6.140   2.054   0.700  0.00  0.00    +0.021 A 
ATOM     20  C   UNL     1       6.153   3.414   0.959  0.00  0.00    +0.041 A 
ATOM     21  C   UNL     1       4.964   4.117   1.065  0.00  0.00    +0.021 A 
ATOM     22  C   UNL     1       3.759   3.465   0.911  0.00  0.00    +0.013 A 
ATOM     23 CL   UNL     1       7.666   4.243   1.153  0.00  0.00    -0.084 Cl
ENDBRANCH   4  17
BRANCH   1  27
ATOM     24  C   UNL     1      -3.777  -1.500  -0.486  0.00  0.00    +0.000 A 
ATOM     25  C   UNL     1      -3.647  -0.222   0.031  0.00  0.00    +0.001 A 
ATOM     26  C   UNL     1      -2.399   0.350   0.159  0.00  0.00    +0.010 A 
ATOM     27  C   UNL     1      -1.263  -0.363  -0.236  0.00  0.00    +0.000 A 
ATOM     28  C   UNL     1      -1.403  -1.651  -0.763  0.00  0.00    +0.010 A 
ATOM     29  C   UNL     1      -2.657  -2.212  -0.879  0.00  0.00    +0.001 A 
ENDBRANCH   1  27
BRANCH   5  30
ATOM     30  O   UNL     1       3.382  -0.797   1.062  0.00  0.00    -0.284 OA
ATOM     31  H   UNL     1       4.017  -0.296   1.592  0.00  0.00    +0.244 HD
ENDBRANCH   5  30
TORSDOF 4
