REMARK  Name = ZINC36660364
REMARK  12 active torsions:
REMARK  status: ('A' for Active; 'I' for Inactive)
REMARK    1  A    between atoms: C_1  and  C_2
REMARK    2  A    between atoms: C_2  and  N_3
REMARK    3  A    between atoms: N_3  and  C_4
REMARK    4  A    between atoms: N_3  and  C_6
REMARK    5  A    between atoms: C_4  and  C_5
REMARK    6  A    between atoms: C_6  and  C_7
REMARK    7  A    between atoms: C_7  and  N_8
REMARK    8  A    between atoms: C_13  and  C_19
REMARK    9  A    between atoms: C_15  and  C_18
REMARK   10  A    between atoms: C_20  and  C_22
REMARK   11  A    between atoms: N_27  and  S_28
REMARK   12  A    between atoms: S_28  and  C_31
REMARK                            x       y       z     vdW  Elec       q    Type
REMARK                         _______ _______ _______ _____ _____    ______ ____
ROOT
ATOM      1  N   UNL     1       1.751  -4.496   2.843  0.00  0.00    -0.251 N 
ATOM      2  C   UNL     1       2.973  -4.947   2.372  0.00  0.00    +0.168 A 
ATOM      3  N   UNL     1       3.986  -4.251   1.912  0.00  0.00    -0.224 NA
ATOM      4  C   UNL     1       5.129  -4.829   1.482  0.00  0.00    +0.081 A 
ATOM      5  C   UNL     1       6.286  -4.199   0.968  0.00  0.00    +0.032 A 
ATOM      6  C   UNL     1       7.369  -4.939   0.572  0.00  0.00    -0.048 A 
ATOM      7  C   UNL     1       7.372  -6.324   0.661  0.00  0.00    +0.008 A 
ATOM      8  C   UNL     1       6.257  -6.973   1.160  0.00  0.00    -0.034 A 
ATOM      9  C   UNL     1       5.168  -6.240   1.558  0.00  0.00    +0.044 A 
ATOM     10  S   UNL     1       3.575  -6.626   2.244  0.00  0.00    -0.052 S 
ATOM     11  C   UNL     1       6.239  -8.476   1.264  0.00  0.00    +0.045 C 
ATOM     12  C   UNL     1       8.584  -4.234   0.028  0.00  0.00    +0.044 C 
ATOM     13  C   UNL     1       0.831  -5.378   3.283  0.00  0.00    +0.240 C 
ATOM     14  O   UNL     1       1.107  -6.557   3.354  0.00  0.00    -0.273 OA
ENDROOT
BRANCH  13  15
ATOM     15  C   UNL     1      -0.539  -4.898   3.688  0.00  0.00    +0.166 C 
ATOM     16  C   UNL     1      -0.549  -4.545   5.190  0.00  0.00    +0.031 C 
ATOM     17  C   UNL     1      -1.942  -5.045   5.655  0.00  0.00    +0.019 C 
ATOM     18  C   UNL     1      -2.123  -6.315   4.787  0.00  0.00    +0.110 C 
ATOM     19  N   UNL     1      -1.525  -5.970   3.481  0.00  0.00    -0.165 NA
BRANCH  19  20
ATOM     20  S   UNL     1      -1.899  -6.669   2.028  0.00  0.00    +0.062 S 
ATOM     21  O   UNL     1      -3.258  -7.078   2.112  0.00  0.00    -0.153 OA
ATOM     22  O   UNL     1      -1.432  -5.785   1.019  0.00  0.00    -0.153 OA
BRANCH  20  23
ATOM     23  C   UNL     1      -0.938  -8.139   1.894  0.00  0.00    +0.106 A 
ATOM     24  C   UNL     1       0.257  -8.123   1.198  0.00  0.00    +0.031 A 
ATOM     25  C   UNL     1       1.012  -9.275   1.093  0.00  0.00    +0.040 A 
ATOM     26  C   UNL     1       0.572 -10.447   1.685  0.00  0.00    +0.124 A 
ATOM     27  C   UNL     1      -0.624 -10.463   2.382  0.00  0.00    +0.040 A 
ATOM     28  C   UNL     1      -1.375  -9.308   2.490  0.00  0.00    +0.031 A 
ATOM     29  F   UNL     1       1.309 -11.575   1.583  0.00  0.00    -0.205 F 
ENDBRANCH  20  23
ENDBRANCH  19  20
ENDBRANCH  13  15
BRANCH   1  30
ATOM     30  C   UNL     1       1.458  -3.061   2.861  0.00  0.00    +0.097 C 
BRANCH  30  31
ATOM     31  C   UNL     1       0.767  -2.665   1.555  0.00  0.00    -0.059 C 
BRANCH  31  32
ATOM     32  N   UNL     1       0.363  -1.254   1.623  0.00  0.00    +0.380 N 
ATOM     33  H   UNL     1      -0.193  -1.103   2.451  0.00  0.00    -0.082 HD
BRANCH  32  35
ATOM     34  C   UNL     1       1.143   1.054   1.872  0.00  0.00    -0.017 C 
ATOM     35  C   UNL     1       1.561  -0.404   1.676  0.00  0.00    -0.082 C 
ENDBRANCH  32  35
BRANCH  32  36
ATOM     36  C   UNL     1      -0.426  -0.912   0.432  0.00  0.00    -0.082 C 
ATOM     37  C   UNL     1      -1.740  -1.696   0.450  0.00  0.00    -0.017 C 
ENDBRANCH  32  36
ENDBRANCH  31  32
ENDBRANCH  30  31
ENDBRANCH   1  30
TORSDOF 8
