REMARK  Name = ZINC39738934
REMARK  7 active torsions:
REMARK  status: ('A' for Active; 'I' for Inactive)
REMARK    1  A    between atoms: C_1  and  C_2
REMARK    2  A    between atoms: C_2  and  C_4
REMARK    3  A    between atoms: C_2  and  N_30
REMARK    4  A    between atoms: C_8  and  S_17
REMARK    5  A    between atoms: N_9  and  C_10
REMARK    6  A    between atoms: S_17  and  C_18
REMARK    7  A    between atoms: C_18  and  C_19
REMARK                            x       y       z     vdW  Elec       q    Type
REMARK                         _______ _______ _______ _____ _____    ______ ____
ROOT
ATOM      1  C   UNL     1       0.801  -0.396   1.189  0.00  0.00    +0.168 C 
ATOM      2  N   UNL     1       0.888  -1.860   1.327  0.00  0.00    -0.248 N 
ATOM      3  N   UNL     1       0.320  -2.168   2.570  0.00  0.00    -0.162 NA
ATOM      4  C   UNL     1      -0.086  -1.107   3.180  0.00  0.00    +0.180 C 
ATOM      5  N   UNL     1       0.155   0.044   2.437  0.00  0.00    -0.260 N 
ATOM      6  H   UNL     1       1.262  -2.485   0.687  0.00  0.00    +0.170 HD
ENDROOT
BRANCH   5   7
ATOM      7  C   UNL     1      -0.155   1.358   2.800  0.00  0.00    +0.037 A 
ATOM      8  C   UNL     1      -1.482   1.750   2.925  0.00  0.00    +0.025 A 
ATOM      9  C   UNL     1      -1.786   3.049   3.284  0.00  0.00    +0.022 A 
ATOM     10  C   UNL     1      -0.770   3.959   3.518  0.00  0.00    +0.041 A 
ATOM     11  C   UNL     1       0.553   3.571   3.393  0.00  0.00    +0.022 A 
ATOM     12  C   UNL     1       0.862   2.272   3.041  0.00  0.00    +0.025 A 
ATOM     13 CL   UNL     1      -1.155   5.590   3.968  0.00  0.00    -0.084 Cl
ENDBRANCH   5   7
BRANCH   1  15
ATOM     14  C   UNL     1      -1.471  -0.574   0.166  0.00  0.00    -0.010 C 
ATOM     15  C   UNL     1      -0.057  -0.021  -0.021  0.00  0.00    -0.031 C 
BRANCH  15  16
ATOM     16  N   UNL     1      -0.115   1.442  -0.146  0.00  0.00    +0.384 N 
ATOM     17  C   UNL     1      -0.933   1.800  -1.311  0.00  0.00    -0.078 C 
ATOM     18  C   UNL     1      -1.065   3.322  -1.398  0.00  0.00    -0.019 C 
ATOM     19  C   UNL     1       0.329   3.942  -1.541  0.00  0.00    -0.004 C 
ATOM     20  C   UNL     1       1.196   3.501  -0.358  0.00  0.00    -0.019 C 
ATOM     21  C   UNL     1       1.244   1.972  -0.309  0.00  0.00    -0.078 C 
ATOM     22  H   UNL     1      -0.530   1.833   0.687  0.00  0.00    -0.081 HD
ENDBRANCH  15  16
ENDBRANCH   1  15
BRANCH   4  23
ATOM     23  S   UNL     1      -0.851  -1.113   4.768  0.00  0.00    -0.081 S 
BRANCH  23  24
ATOM     24  C   UNL     1      -0.890  -2.866   5.230  0.00  0.00    +0.150 C 
BRANCH  24  25
ATOM     25  C   UNL     1      -1.529  -3.014   6.586  0.00  0.00    +0.133 C 
ATOM     26  N   UNL     1      -1.947  -1.929   7.204  0.00  0.00    -0.164 NA
ATOM     27  C   UNL     1      -2.306  -1.915   8.495  0.00  0.00    +0.257 C 
ATOM     28  O   UNL     1      -2.856  -0.951   8.991  0.00  0.00    -0.272 OA
ATOM     29  C   UNL     1      -1.999  -3.140   9.298  0.00  0.00    +0.187 C 
ATOM     30  C   UNL     1      -2.074  -4.338   8.359  0.00  0.00    +0.066 C 
ATOM     31  N   UNL     1      -1.648  -4.233   7.099  0.00  0.00    -0.237 NA
ATOM     32  C   UNL     1      -2.816  -5.357   8.901  0.00  0.00    +0.032 C 
ATOM     33  C   UNL     1      -3.547  -5.173  10.033  0.00  0.00    +0.043 C 
ATOM     34  S   UNL     1      -3.285  -3.562  10.520  0.00  0.00    -0.114 S 
ENDBRANCH  24  25
ENDBRANCH  23  24
ENDBRANCH   4  23
TORSDOF 6
