REMARK  Name = ZINC66952853
REMARK  8 active torsions:
REMARK  status: ('A' for Active; 'I' for Inactive)
REMARK    1  A    between atoms: C_1  and  C_2
REMARK    2  A    between atoms: C_3  and  N_13
REMARK    3  A    between atoms: C_5  and  C_9
REMARK    4  A    between atoms: C_9  and  O_11
REMARK    5  A    between atoms: O_11  and  C_12
REMARK    6  A    between atoms: N_16  and  C_17
REMARK    7  A    between atoms: C_17  and  C_18
REMARK    8  A    between atoms: C_18  and  O_28
REMARK                            x       y       z     vdW  Elec       q    Type
REMARK                         _______ _______ _______ _____ _____    ______ ____
ROOT
ATOM      1  N   UNL     1      -0.014   0.019  -2.413  0.00  0.00    -0.269 N 
ATOM      2  C   UNL     1       0.092  -0.640  -3.584  0.00  0.00    +0.304 C 
ATOM      3  O   UNL     1       0.111  -1.856  -3.597  0.00  0.00    -0.253 OA
ATOM      4  N   UNL     1       0.179   0.047  -4.740  0.00  0.00    -0.296 N 
ATOM      5  H   UNL     1      -0.111   0.985  -2.408  0.00  0.00    +0.156 HD
ATOM      6  H   UNL     1       0.165   1.017  -4.729  0.00  0.00    +0.150 HD
ENDROOT
BRANCH   1   9
ATOM      7  C   UNL     1      -1.269   1.188  -0.148  0.00  0.00    +0.048 C 
ATOM      8  C   UNL     1      -0.588  -0.154  -0.074  0.00  0.00    +0.006 A 
ATOM      9  C   UNL     1       0.014  -0.688  -1.206  0.00  0.00    +0.041 A 
ATOM     10  C   UNL     1       0.642  -1.922  -1.141  0.00  0.00    +0.038 A 
ATOM     11  C   UNL     1       0.668  -2.625   0.064  0.00  0.00    +0.063 A 
ATOM     12  C   UNL     1       0.061  -2.081   1.198  0.00  0.00    +0.053 A 
ATOM     13  C   UNL     1      -0.558  -0.847   1.124  0.00  0.00    +0.129 A 
ATOM     14  F   UNL     1      -1.141  -0.319   2.223  0.00  0.00    -0.205 F 
BRANCH  11  15
ATOM     15  C   UNL     1       1.336  -3.941   0.141  0.00  0.00    +0.339 C 
ATOM     16  O   UNL     1       1.863  -4.412  -0.847  0.00  0.00    -0.245 OA
BRANCH  15  17
ATOM     17  O   UNL     1       1.360  -4.617   1.305  0.00  0.00    -0.464 OA
ATOM     18  C   UNL     1       2.022  -5.883   1.306  0.00  0.00    +0.280 C 
ENDBRANCH  15  17
ENDBRANCH  11  15
ENDBRANCH   1   9
BRANCH   4  19
ATOM     19  C   UNL     1       0.295  -0.670  -6.012  0.00  0.00    +0.145 C 
BRANCH  19  20
ATOM     20  C   UNL     1       0.501   0.335  -7.147  0.00  0.00    +0.107 C 
ATOM     21  C   UNL     1      -0.680   1.303  -7.183  0.00  0.00    +0.041 C 
ATOM     22  C   UNL     1      -0.566   2.158  -8.451  0.00  0.00    +0.008 C 
ATOM     23  C   UNL     1      -0.845   1.267  -9.659  0.00  0.00    +0.035 C 
ATOM     24  C   UNL     1       0.003   0.023  -9.607  0.00  0.00    -0.041 A 
ATOM     25  C   UNL     1       0.618  -0.407  -8.453  0.00  0.00    -0.011 A 
ATOM     26  C   UNL     1       1.382  -1.567  -8.471  0.00  0.00    +0.007 A 
ATOM     27  C   UNL     1       1.532  -2.289  -9.637  0.00  0.00    +0.000 A 
ATOM     28  C   UNL     1       0.918  -1.856 -10.797  0.00  0.00    +0.000 A 
ATOM     29  C   UNL     1       0.157  -0.705 -10.780  0.00  0.00    +0.004 A 
BRANCH  20  30
ATOM     30  O   UNL     1       1.704   1.070  -6.913  0.00  0.00    -0.382 OA
ATOM     31  H   UNL     1       2.499   0.520  -6.869  0.00  0.00    +0.211 HD
ENDBRANCH  20  30
ENDBRANCH  19  20
ENDBRANCH   4  19
TORSDOF 6
