REMARK  Name = ZINC27987951
REMARK  18 active torsions:
REMARK  status: ('A' for Active; 'I' for Inactive)
REMARK    1  A    between atoms: C_1  and  C_2
REMARK    2  A    between atoms: C_2  and  O_3
REMARK    3  A    between atoms: O_3  and  C_4
REMARK    4  A    between atoms: C_7  and  C_12
REMARK    5  A    between atoms: C_9  and  O_10
REMARK    6  A    between atoms: O_10  and  C_11
REMARK    7  A    between atoms: C_14  and  C_24
REMARK    8  A    between atoms: N_18  and  C_19
REMARK    9  A    between atoms: C_19  and  C_20
REMARK   10  A    between atoms: C_20  and  O_21
REMARK   11  A    between atoms: O_21  and  C_22
REMARK   12  A    between atoms: C_24  and  C_26
REMARK   13  A    between atoms: C_29  and  O_33
REMARK   14  A    between atoms: C_31  and  C_32
REMARK   15  A    between atoms: O_33  and  C_34
REMARK   16  A    between atoms: C_34  and  C_35
REMARK   17  A    between atoms: C_35  and  C_36
REMARK   18  A    between atoms: C_35  and  C_37
REMARK                            x       y       z     vdW  Elec       q    Type
REMARK                         _______ _______ _______ _____ _____    ______ ____
ROOT
ATOM      1  C   UNL     1       1.421   3.317   0.465  0.00  0.00    +0.145 C 
ATOM      2  C   UNL     1      -0.013   3.011   0.829  0.00  0.00    +0.076 C 
ATOM      3  C   UNL     1      -0.203   1.692   0.592  0.00  0.00    +0.249 C 
ATOM      4  C   UNL     1       1.051   1.106   0.073  0.00  0.00    +0.288 C 
ATOM      5  O   UNL     1       1.200  -0.059  -0.238  0.00  0.00    -0.266 OA
ATOM      6  N   UNL     1       2.003   2.054  -0.003  0.00  0.00    -0.281 N 
ATOM      7  O   UNL     1      -1.359   1.018   0.793  0.00  0.00    -0.282 OA
ENDROOT
BRANCH   1  11
ATOM      8  C   UNL     1       1.538   6.234  -2.661  0.00  0.00    +0.162 A 
ATOM      9  C   UNL     1       0.781   5.083  -2.811  0.00  0.00    +0.050 A 
ATOM     10  C   UNL     1       0.745   4.142  -1.799  0.00  0.00    +0.009 A 
ATOM     11  C   UNL     1       1.464   4.346  -0.635  0.00  0.00    -0.019 A 
ATOM     12  C   UNL     1       2.217   5.494  -0.477  0.00  0.00    +0.055 A 
ATOM     13  C   UNL     1       2.262   6.439  -1.490  0.00  0.00    +0.162 A 
BRANCH  13  14
ATOM     14  O   UNL     1       3.006   7.567  -1.337  0.00  0.00    -0.491 OA
ATOM     15  C   UNL     1       3.806   7.662  -0.157  0.00  0.00    +0.277 C 
ENDBRANCH  13  14
BRANCH   8  16
ATOM     16  O   UNL     1       1.574   7.161  -3.655  0.00  0.00    -0.489 OA
BRANCH  16  18
ATOM     17  C   UNL     1       0.969   8.031  -5.827  0.00  0.00    +0.048 C 
ATOM     18  C   UNL     1       0.806   6.884  -4.828  0.00  0.00    +0.226 C 
ENDBRANCH  16  18
ENDBRANCH   8  16
ENDBRANCH   1  11
BRANCH   2  19
ATOM     19  C   UNL     1      -1.006   3.959   1.344  0.00  0.00    +0.195 C 
ATOM     20  O   UNL     1      -2.118   3.569   1.651  0.00  0.00    -0.287 OA
BRANCH  19  21
ATOM     21  C   UNL     1      -0.659   5.386   1.489  0.00  0.00    +0.025 A 
ATOM     22  C   UNL     1      -1.128   6.320   0.560  0.00  0.00    +0.015 A 
ATOM     23  C   UNL     1      -0.806   7.650   0.702  0.00  0.00    +0.046 A 
ATOM     24  C   UNL     1      -0.006   8.065   1.761  0.00  0.00    +0.121 A 
ATOM     25  C   UNL     1       0.468   7.139   2.684  0.00  0.00    +0.049 A 
ATOM     26  C   UNL     1       0.146   5.807   2.552  0.00  0.00    -0.036 A 
ATOM     27  C   UNL     1       0.659   4.804   3.553  0.00  0.00    +0.044 C 
BRANCH  24  28
ATOM     28  O   UNL     1       0.314   9.377   1.894  0.00  0.00    -0.492 OA
BRANCH  28  29
ATOM     29  C   UNL     1      -0.298  10.290   0.981  0.00  0.00    +0.232 C 
BRANCH  29  30
ATOM     30  C   UNL     1       0.084  11.723   1.359  0.00  0.00    +0.020 C 
ATOM     31  C   UNL     1      -0.469  12.691   0.312  0.00  0.00    +0.010 C 
ATOM     32  C   UNL     1      -0.506  12.063   2.730  0.00  0.00    +0.010 C 
ENDBRANCH  29  30
ENDBRANCH  28  29
ENDBRANCH  24  28
ENDBRANCH  19  21
ENDBRANCH   2  19
BRANCH   6  33
ATOM     33  C   UNL     1       3.378   1.859  -0.470  0.00  0.00    +0.137 C 
BRANCH  33  34
ATOM     34  C   UNL     1       3.413   1.937  -1.997  0.00  0.00    +0.178 C 
BRANCH  34  35
ATOM     35  O   UNL     1       3.136   3.276  -2.412  0.00  0.00    -0.381 OA
ATOM     36  C   UNL     1       3.102   3.451  -3.830  0.00  0.00    +0.194 C 
ENDBRANCH  34  35
ENDBRANCH  33  34
ENDBRANCH   6  33
TORSDOF 12
