REMARK  Name = ZINC63505705
REMARK  4 active torsions:
REMARK  status: ('A' for Active; 'I' for Inactive)
REMARK    1  A    between atoms: C_1  and  O_2
REMARK    2  A    between atoms: O_2  and  C_3
REMARK    3  A    between atoms: C_3  and  C_5
REMARK    4  A    between atoms: C_6  and  N_18
REMARK                            x       y       z     vdW  Elec       q    Type
REMARK                         _______ _______ _______ _____ _____    ______ ____
ROOT
ATOM      1  C   UNL     1       0.678  -2.030   1.090  0.00  0.00    +0.170 C 
ATOM      2  C   UNL     1       1.281  -2.759   2.102  0.00  0.00    +0.067 C 
ATOM      3  C   UNL     1       1.084  -4.193   1.740  0.00  0.00    +0.030 C 
ATOM      4  C   UNL     1       1.329  -5.408   2.258  0.00  0.00    -0.045 C 
ATOM      5  C   UNL     1       1.844  -5.640   3.675  0.00  0.00    +0.032 C 
ATOM      6  C   UNL     1       0.863  -6.604   4.354  0.00  0.00    +0.004 C 
ATOM      7  C   UNL     1       0.672  -7.853   3.494  0.00  0.00    +0.002 C 
ATOM      8  C   UNL     1       0.033  -7.494   2.150  0.00  0.00    +0.019 C 
ATOM      9  C   UNL     1       1.002  -6.602   1.369  0.00  0.00    +0.079 C 
ATOM     10  S   UNL     1       0.127  -5.808  -0.032  0.00  0.00    -0.097 S 
ATOM     11  C   UNL     1       0.350  -4.113   0.455  0.00  0.00    +0.107 C 
ATOM     12  N   UNL     1       0.143  -2.869   0.160  0.00  0.00    -0.231 NA
ENDROOT
BRANCH   2  13
ATOM     13  N   UNL     1       1.932  -2.261   3.217  0.00  0.00    -0.356 N 
ATOM     14  H   UNL     1       2.000  -1.303   3.351  0.00  0.00    +0.142 HD
ATOM     15  H   UNL     1       2.320  -2.870   3.865  0.00  0.00    +0.142 HD
ENDBRANCH   2  13
BRANCH   1  16
ATOM     16  C   UNL     1       0.622  -0.614   1.034  0.00  0.00    +0.359 C 
ATOM     17  O   UNL     1       1.131   0.051   1.917  0.00  0.00    -0.243 OA
BRANCH  16  19
ATOM     18  C   UNL     1      -0.017   1.425   0.010  0.00  0.00    +0.280 C 
ATOM     19  O   UNL     1       0.002  -0.004   0.002  0.00  0.00    -0.463 OA
ENDBRANCH  16  19
ENDBRANCH   1  16
TORSDOF 3
