REMARK  Name = ZINC21671163
REMARK  14 active torsions:
REMARK  status: ('A' for Active; 'I' for Inactive)
REMARK    1  A    between atoms: C_1  and  C_2
REMARK    2  A    between atoms: C_2  and  O_3
REMARK    3  A    between atoms: O_3  and  C_4
REMARK    4  A    between atoms: C_7  and  N_13
REMARK    5  A    between atoms: C_9  and  O_10
REMARK    6  A    between atoms: O_10  and  C_11
REMARK    7  A    between atoms: C_11  and  C_12
REMARK    8  A    between atoms: C_14  and  C_16
REMARK    9  A    between atoms: C_16  and  N_17
REMARK   10  A    between atoms: N_17  and  C_18
REMARK   11  A    between atoms: N_17  and  C_19
REMARK   12  A    between atoms: C_19  and  C_21
REMARK   13  A    between atoms: C_19  and  C_22
REMARK   14  A    between atoms: N_24  and  C_25
REMARK                            x       y       z     vdW  Elec       q    Type
REMARK                         _______ _______ _______ _____ _____    ______ ____
ROOT
ATOM      1  N   UNL     1       5.239  -1.690   6.358  0.00  0.00    +0.391 N 
ATOM      2  C   UNL     1       5.772  -0.446   6.929  0.00  0.00    -0.094 C 
ATOM      3  H   UNL     1       4.370  -1.993   6.960  0.00  0.00    -0.080 HD
ENDROOT
BRANCH   1   4
ATOM      4  C   UNL     1       6.234  -2.769   6.425  0.00  0.00    +0.017 C 
ATOM      5  C   UNL     1       7.534  -2.304   5.767  0.00  0.00    -0.004 C 
BRANCH   4   6
ATOM      6  C   UNL     1       6.497  -3.120   7.866  0.00  0.00    +0.203 C 
ATOM      7  O   UNL     1       5.914  -2.530   8.751  0.00  0.00    -0.277 OA
ATOM      8  N   UNL     1       7.381  -4.091   8.172  0.00  0.00    -0.287 N 
ATOM      9  H   UNL     1       7.971  -4.568   7.376  0.00  0.00    +0.155 HD
BRANCH   8  10
ATOM     10  C   UNL     1       7.548  -4.491   9.502  0.00  0.00    +0.034 A 
ATOM     11  C   UNL     1       6.467  -4.478  10.375  0.00  0.00    +0.023 A 
ATOM     12  C   UNL     1       6.637  -4.874  11.685  0.00  0.00    +0.006 A 
ATOM     13  C   UNL     1       7.882  -5.284  12.136  0.00  0.00    -0.044 A 
ATOM     14  C   UNL     1       8.960  -5.298  11.270  0.00  0.00    -0.042 A 
ATOM     15  C   UNL     1       8.792  -4.907   9.953  0.00  0.00    +0.027 A 
ATOM     16  C   UNL     1      10.195  -5.782  11.999  0.00  0.00    +0.036 C 
ATOM     17  C   UNL     1       9.667  -6.474  13.273  0.00  0.00    +0.009 C 
ATOM     18  C   UNL     1       8.320  -5.758  13.505  0.00  0.00    +0.036 C 
ENDBRANCH   8  10
ENDBRANCH   4   6
ENDBRANCH   1   4
BRANCH   1  19
ATOM     19  C   UNL     1       4.780  -1.481   4.978  0.00  0.00    +0.020 C 
BRANCH  19  21
ATOM     20  N   UNL     1       3.004  -0.212   3.815  0.00  0.00    -0.287 N 
ATOM     21  C   UNL     1       3.595  -0.550   4.978  0.00  0.00    +0.201 C 
ATOM     22  O   UNL     1       3.175  -0.103   6.024  0.00  0.00    -0.278 OA
ATOM     23  H   UNL     1       3.337  -0.675   2.874  0.00  0.00    +0.155 HD
BRANCH  20  27
ATOM     24  C   UNL     1      -0.090   2.588   3.791  0.00  0.00    +0.162 A 
ATOM     25  C   UNL     1       0.036   1.701   4.849  0.00  0.00    +0.051 A 
ATOM     26  C   UNL     1       1.062   0.776   4.858  0.00  0.00    +0.027 A 
ATOM     27  C   UNL     1       1.965   0.727   3.804  0.00  0.00    +0.037 A 
ATOM     28  C   UNL     1       1.838   1.610   2.740  0.00  0.00    +0.072 A 
ATOM     29  C   UNL     1       0.810   2.538   2.731  0.00  0.00    +0.164 A 
BRANCH  24  30
ATOM     30  O   UNL     1      -1.097   3.503   3.786  0.00  0.00    -0.489 OA
BRANCH  30  32
ATOM     31  C   UNL     1      -3.043   4.587   4.725  0.00  0.00    +0.048 C 
ATOM     32  C   UNL     1      -1.984   3.497   4.907  0.00  0.00    +0.226 C 
ENDBRANCH  30  32
ENDBRANCH  24  30
BRANCH  29  33
ATOM     33  O   UNL     1       0.684   3.404   1.690  0.00  0.00    -0.489 OA
BRANCH  33  34
ATOM     34  C   UNL     1       1.647   3.300   0.639  0.00  0.00    +0.226 C 
ATOM     35  C   UNL     1       1.345   4.346  -0.435  0.00  0.00    +0.048 C 
ENDBRANCH  33  34
ENDBRANCH  29  33
ENDBRANCH  20  27
ENDBRANCH  19  21
ENDBRANCH   1  19
TORSDOF 10
