REMARK  Name = ZINC33937182
REMARK  14 active torsions:
REMARK  status: ('A' for Active; 'I' for Inactive)
REMARK    1  A    between atoms: C_1  and  C_2
REMARK    2  A    between atoms: C_2  and  C_3
REMARK    3  A    between atoms: C_3  and  C_5
REMARK    4  A    between atoms: C_3  and  N_17
REMARK    5  A    between atoms: N_9  and  C_10
REMARK    6  A    between atoms: C_10  and  C_11
REMARK    7  A    between atoms: N_17  and  C_18
REMARK    8  A    between atoms: N_17  and  C_27
REMARK    9  A    between atoms: C_18  and  C_19
REMARK   10  A    between atoms: C_19  and  C_20
REMARK   11  A    between atoms: C_25  and  C_26
REMARK   12  A    between atoms: C_27  and  C_28
REMARK   13  A    between atoms: C_32  and  C_41
REMARK   14  A    between atoms: C_34  and  C_40
REMARK                            x       y       z     vdW  Elec       q    Type
REMARK                         _______ _______ _______ _____ _____    ______ ____
ROOT
ATOM      1  N   UNL     1      -2.242  -0.341  -2.611  0.00  0.00    +0.389 N 
ATOM      2  H   UNL     1      -1.931  -0.768  -3.470  0.00  0.00    -0.080 HD
ENDROOT
BRANCH   1   3
ATOM      3  C   UNL     1      -1.087  -0.107  -1.734  0.00  0.00    +0.003 C 
BRANCH   3   4
ATOM      4  C   UNL     1      -1.553   0.514  -0.443  0.00  0.00    +0.138 A 
ATOM      5  N   UNL     1      -2.793   0.641  -0.038  0.00  0.00    -0.115 NA
ATOM      6  N   UNL     1      -2.779   1.220   1.112  0.00  0.00    -0.023 NA
ATOM      7  N   UNL     1      -1.562   1.467   1.452  0.00  0.00    -0.044 NA
ATOM      8  N   UNL     1      -0.776   1.042   0.521  0.00  0.00    -0.228 N 
BRANCH   8   9
ATOM      9  C   UNL     1       0.687   1.121   0.514  0.00  0.00    +0.178 C 
BRANCH   9  10
ATOM     10  C   UNL     1       1.120   2.509   0.039  0.00  0.00    +0.140 C 
ATOM     11  C   UNL     1       2.666   2.608   0.004  0.00  0.00    +0.035 C 
ATOM     12  C   UNL     1       2.866   3.729  -1.051  0.00  0.00    +0.031 C 
ATOM     13  C   UNL     1       1.694   3.477  -2.024  0.00  0.00    +0.160 C 
ATOM     14  O   UNL     1       0.698   2.726  -1.317  0.00  0.00    -0.375 OA
ENDBRANCH   9  10
ENDBRANCH   8   9
ENDBRANCH   3   4
BRANCH   3  16
ATOM     15  C   UNL     1       0.078  -2.071  -2.750  0.00  0.00    +0.002 C 
ATOM     16  C   UNL     1      -0.393  -1.438  -1.439  0.00  0.00    -0.011 C 
ENDBRANCH   3  16
ENDBRANCH   1   3
BRANCH   1  17
ATOM     17  C   UNL     1      -2.898   0.939  -2.908  0.00  0.00    -0.073 C 
BRANCH  17  18
ATOM     18  C   UNL     1      -1.959   1.811  -3.743  0.00  0.00    +0.017 C 
BRANCH  18  19
ATOM     19  C   UNL     1      -2.668   3.083  -4.132  0.00  0.00    -0.046 A 
ATOM     20  C   UNL     1      -3.342   3.158  -5.337  0.00  0.00    +0.004 A 
ATOM     21  C   UNL     1      -3.992   4.324  -5.693  0.00  0.00    +0.000 A 
ATOM     22  C   UNL     1      -3.968   5.416  -4.845  0.00  0.00    +0.000 A 
ATOM     23  C   UNL     1      -3.295   5.341  -3.641  0.00  0.00    +0.003 A 
ATOM     24  C   UNL     1      -2.648   4.173  -3.282  0.00  0.00    -0.047 A 
ATOM     25  C   UNL     1      -1.919   4.089  -1.966  0.00  0.00    +0.044 C 
ENDBRANCH  18  19
ENDBRANCH  17  18
ENDBRANCH   1  17
BRANCH   1  26
ATOM     26  C   UNL     1      -3.194  -1.234  -1.937  0.00  0.00    -0.037 C 
BRANCH  26  27
ATOM     27  C   UNL     1      -4.327  -1.561  -2.875  0.00  0.00    +0.001 A 
ATOM     28  C   UNL     1      -4.288  -2.697  -3.613  0.00  0.00    +0.017 A 
ATOM     29  C   UNL     1      -5.404  -2.986  -4.515  0.00  0.00    -0.001 A 
ATOM     30  C   UNL     1      -5.420  -4.143  -5.301  0.00  0.00    +0.013 A 
ATOM     31  C   UNL     1      -6.477  -4.383  -6.132  0.00  0.00    -0.050 A 
ATOM     32  C   UNL     1      -7.537  -3.488  -6.204  0.00  0.00    +0.008 A 
ATOM     33  C   UNL     1      -7.542  -2.341  -5.439  0.00  0.00    -0.026 A 
ATOM     34  C   UNL     1      -6.477  -2.076  -4.585  0.00  0.00    +0.052 A 
ATOM     35  N   UNL     1      -6.457  -0.938  -3.808  0.00  0.00    -0.322 N 
ATOM     36  H   UNL     1      -7.197  -0.312  -3.857  0.00  0.00    +0.169 HD
ATOM     37  C   UNL     1      -5.429  -0.684  -2.979  0.00  0.00    +0.251 A 
ATOM     38  O   UNL     1      -5.447   0.330  -2.303  0.00  0.00    -0.268 OA
ATOM     39  C   UNL     1      -8.698  -1.378  -5.528  0.00  0.00    +0.046 C 
ATOM     40  C   UNL     1      -6.494  -5.629  -6.978  0.00  0.00    +0.044 C 
ENDBRANCH  26  27
ENDBRANCH   1  26
TORSDOF 10
