REMARK  Name = ZINC04132629
REMARK  7 active torsions:
REMARK  status: ('A' for Active; 'I' for Inactive)
REMARK    1  A    between atoms: C_1  and  C_2
REMARK    2  A    between atoms: C_2  and  C_3
REMARK    3  A    between atoms: C_2  and  C_4
REMARK    4  A    between atoms: C_2  and  C_5
REMARK    5  A    between atoms: C_17  and  C_20
REMARK    6  A    between atoms: C_23  and  O_27
REMARK    7  A    between atoms: C_25  and  O_26
REMARK                            x       y       z     vdW  Elec       q    Type
REMARK                         _______ _______ _______ _____ _____    ______ ____
ROOT
ATOM      1  C   UNL     1       2.802   2.006  -6.426  0.00  0.00    -0.000 C 
ATOM      2  C   UNL     1       3.575   2.897  -5.450  0.00  0.00    +0.009 C 
ATOM      3  C   UNL     1       3.379   2.393  -4.019  0.00  0.00    +0.037 C 
ATOM      4  C   UNL     1       1.885   2.255  -3.747  0.00  0.00    -0.023 A 
ATOM      5  C   UNL     1       0.998   2.196  -4.764  0.00  0.00    -0.004 A 
ATOM      6  S   UNL     1      -0.586   2.042  -3.982  0.00  0.00    -0.078 S 
ATOM      7  C   UNL     1      -0.080   2.057  -2.347  0.00  0.00    +0.080 A 
ATOM      8  C   UNL     1       1.316   2.179  -2.410  0.00  0.00    +0.068 A 
ATOM      9  C   UNL     1       2.059   2.216  -1.130  0.00  0.00    +0.248 C 
ATOM     10  O   UNL     1       3.256   2.433  -1.098  0.00  0.00    -0.270 OA
ATOM     11  N   UNL     1       1.354   2.000  -0.000  0.00  0.00    -0.289 N 
ATOM     12  C   UNL     1      -0.018   1.503   0.010  0.00  0.00    +0.194 C 
ATOM     13  N   UNL     1      -0.770   1.982  -1.164  0.00  0.00    -0.316 N 
ATOM     14  C   UNL     1       1.298   2.248  -6.230  0.00  0.00    +0.046 C 
ATOM     15  H   UNL     1       1.782   2.184   0.851  0.00  0.00    +0.151 HD
ATOM     16  H   UNL     1      -1.705   2.231  -1.103  0.00  0.00    +0.149 HD
ENDROOT
BRANCH  12  17
ATOM     17  C   UNL     1       0.002  -0.004   0.002  0.00  0.00    +0.032 A 
ATOM     18  C   UNL     1      -0.979  -0.704  -0.674  0.00  0.00    +0.014 A 
ATOM     19  C   UNL     1      -0.960  -2.086  -0.688  0.00  0.00    +0.046 A 
ATOM     20  C   UNL     1       0.038  -2.774  -0.013  0.00  0.00    +0.120 A 
ATOM     21  C   UNL     1       1.020  -2.074   0.671  0.00  0.00    +0.091 A 
ATOM     22  C   UNL     1       1.002  -0.688   0.678  0.00  0.00    +0.127 A 
BRANCH  22  23
ATOM     23  O   UNL     1       1.964   0.001   1.348  0.00  0.00    -0.506 OA
ATOM     24  H   UNL     1       1.742   0.190   2.270  0.00  0.00    +0.292 HD
ENDBRANCH  22  23
BRANCH  20  25
ATOM     25  O   UNL     1       0.054  -4.133  -0.023  0.00  0.00    -0.507 OA
ATOM     26  H   UNL     1      -0.441  -4.537   0.703  0.00  0.00    +0.292 HD
ENDBRANCH  20  25
ENDBRANCH  12  17
BRANCH   1  28
ATOM     27  C   UNL     1       2.878   3.828  -8.134  0.00  0.00    +0.011 C 
ATOM     28  C   UNL     1       3.195   2.356  -7.863  0.00  0.00    -0.035 C 
ATOM     29  C   UNL     1       4.693   2.113  -8.055  0.00  0.00    +0.011 C 
ATOM     30  C   UNL     1       2.407   1.477  -8.836  0.00  0.00    +0.011 C 
ENDBRANCH   1  28
TORSDOF 4
