REMARK  Name = ZINC40548403
REMARK  7 active torsions:
REMARK  status: ('A' for Active; 'I' for Inactive)
REMARK    1  A    between atoms: C_1  and  C_2
REMARK    2  A    between atoms: C_4  and  C_35
REMARK    3  A    between atoms: C_5  and  O_34
REMARK    4  A    between atoms: C_6  and  C_8
REMARK    5  A    between atoms: N_16  and  C_26
REMARK    6  A    between atoms: C_17  and  C_19
REMARK    7  A    between atoms: C_22  and  O_25
REMARK                            x       y       z     vdW  Elec       q    Type
REMARK                         _______ _______ _______ _____ _____    ______ ____
ROOT
ATOM      1  C   UNL     1       0.047  -2.837   2.465  0.00  0.00    +0.102 A 
ATOM      2  C   UNL     1       0.140  -2.289   3.748  0.00  0.00    +0.035 A 
ATOM      3  C   UNL     1       0.118  -3.362   4.619  0.00  0.00    +0.126 A 
ATOM      4  N   UNL     1       0.015  -4.479   3.841  0.00  0.00    -0.272 N 
ATOM      5  H   UNL     1      -0.023  -5.389   4.175  0.00  0.00    +0.189 HD
ATOM      6  N   UNL     1      -0.029  -4.146   2.600  0.00  0.00    -0.173 NA
ATOM      7  C   UNL     1       0.213  -2.851   5.991  0.00  0.00    +0.266 C 
ATOM      8  O   UNL     1       0.219  -3.544   6.991  0.00  0.00    -0.268 OA
ATOM      9  N   UNL     1       0.292  -1.508   5.987  0.00  0.00    -0.280 N 
ATOM     10  C   UNL     1       0.253  -1.049   4.593  0.00  0.00    +0.142 C 
ENDROOT
BRANCH   1  16
ATOM     11  C   UNL     1      -1.676   0.949  -0.295  0.00  0.00    +0.044 C 
ATOM     12  C   UNL     1      -0.795  -0.264  -0.144  0.00  0.00    -0.049 A 
ATOM     13  C   UNL     1      -0.002  -0.675  -1.201  0.00  0.00    +0.010 A 
ATOM     14  C   UNL     1       0.809  -1.787  -1.072  0.00  0.00    -0.008 A 
ATOM     15  C   UNL     1       0.831  -2.496   0.118  0.00  0.00    +0.129 A 
ATOM     16  C   UNL     1       0.031  -2.083   1.187  0.00  0.00    +0.044 A 
ATOM     17  C   UNL     1      -0.778  -0.958   1.048  0.00  0.00    +0.017 A 
ATOM     18  C   UNL     1       1.670  -2.228  -2.228  0.00  0.00    +0.047 C 
BRANCH  15  19
ATOM     19  O   UNL     1       1.627  -3.590   0.245  0.00  0.00    -0.506 OA
ATOM     20  H   UNL     1       2.515  -3.394   0.576  0.00  0.00    +0.292 HD
ENDBRANCH  15  19
ENDBRANCH   1  16
BRANCH   9  21
ATOM     21  C   UNL     1       0.399  -0.651   7.170  0.00  0.00    +0.100 C 
ATOM     22  C   UNL     1      -0.825  -0.875   8.075  0.00  0.00    +0.047 C 
ATOM     23  C   UNL     1      -0.540  -0.205   9.449  0.00  0.00    +0.168 C 
ATOM     24  S   UNL     1       1.228  -0.664   9.688  0.00  0.00    -0.029 S 
ATOM     25  O   UNL     1       1.295  -1.878  10.425  0.00  0.00    -0.174 OA
ATOM     26  O   UNL     1       1.944   0.474  10.149  0.00  0.00    -0.174 OA
ATOM     27  C   UNL     1       1.694  -1.000   7.942  0.00  0.00    +0.188 C 
ENDBRANCH   9  21
BRANCH  10  28
ATOM     28  C   UNL     1       1.520  -0.306   4.256  0.00  0.00    -0.022 A 
ATOM     29  C   UNL     1       2.742  -0.802   4.673  0.00  0.00    +0.009 A 
ATOM     30  C   UNL     1       3.905  -0.122   4.366  0.00  0.00    +0.046 A 
ATOM     31  C   UNL     1       3.847   1.058   3.639  0.00  0.00    +0.117 A 
ATOM     32  C   UNL     1       2.619   1.553   3.223  0.00  0.00    +0.046 A 
ATOM     33  C   UNL     1       1.460   0.867   3.527  0.00  0.00    +0.009 A 
BRANCH  31  34
ATOM     34  O   UNL     1       4.989   1.728   3.337  0.00  0.00    -0.507 OA
ATOM     35  H   UNL     1       5.390   1.464   2.498  0.00  0.00    +0.292 HD
ENDBRANCH  31  34
ENDBRANCH  10  28
TORSDOF 5
