REMARK  Name = ZINC12311226
REMARK  9 active torsions:
REMARK  status: ('A' for Active; 'I' for Inactive)
REMARK    1  A    between atoms: C_1  and  O_2
REMARK    2  A    between atoms: O_2  and  C_3
REMARK    3  A    between atoms: C_6  and  C_9
REMARK    4  A    between atoms: N_18  and  C_29
REMARK    5  A    between atoms: C_19  and  C_21
REMARK    6  A    between atoms: C_24  and  O_27
REMARK    7  A    between atoms: O_27  and  C_28
REMARK    8  A    between atoms: C_29  and  N_31
REMARK    9  A    between atoms: C_32  and  C_34
REMARK                            x       y       z     vdW  Elec       q    Type
REMARK                         _______ _______ _______ _____ _____    ______ ____
ROOT
ATOM      1  C   UNL     1       1.250  -2.156  -0.021  0.00  0.00    +0.013 C 
ATOM      2  C   UNL     1       2.425  -2.809  -0.138  0.00  0.00    -0.024 C 
ATOM      3  C   UNL     1       3.705  -2.030  -0.151  0.00  0.00    +0.037 C 
ATOM      4  C   UNL     1       4.933  -2.858  -0.463  0.00  0.00    +0.005 C 
ATOM      5  C   UNL     1       4.846  -4.285   0.074  0.00  0.00    +0.012 C 
ATOM      6  C   UNL     1       3.689  -4.991  -0.635  0.00  0.00    +0.066 C 
ATOM      7  C   UNL     1       2.430  -4.219  -0.251  0.00  0.00    +0.068 C 
ATOM      8  N   UNL     1       1.484  -5.070  -0.051  0.00  0.00    -0.182 NA
ATOM      9  N   UNL     1       1.924  -6.399  -0.027  0.00  0.00    -0.196 N 
ATOM     10  C   UNL     1       3.405  -6.384  -0.048  0.00  0.00    +0.139 C 
ENDROOT
BRANCH   1  14
ATOM     11  C   UNL     1       1.210   2.011   0.780  0.00  0.00    +0.120 A 
ATOM     12  C   UNL     1       0.341   1.479  -0.165  0.00  0.00    +0.046 A 
ATOM     13  C   UNL     1       0.350   0.127  -0.429  0.00  0.00    +0.011 A 
ATOM     14  C   UNL     1       1.236  -0.711   0.257  0.00  0.00    -0.024 A 
ATOM     15  C   UNL     1       2.109  -0.170   1.207  0.00  0.00    +0.011 A 
ATOM     16  C   UNL     1       2.092   1.183   1.464  0.00  0.00    +0.046 A 
BRANCH  11  18
ATOM     17  C   UNL     1       2.116   3.825   2.020  0.00  0.00    +0.277 C 
ATOM     18  O   UNL     1       1.197   3.345   1.037  0.00  0.00    -0.495 OA
ENDBRANCH  11  18
ENDBRANCH   1  14
BRANCH  10  19
ATOM     19  C   UNL     1       3.945  -7.468  -0.944  0.00  0.00    -0.024 A 
ATOM     20  C   UNL     1       3.232  -7.859  -2.062  0.00  0.00    +0.009 A 
ATOM     21  C   UNL     1       3.727  -8.849  -2.888  0.00  0.00    +0.046 A 
ATOM     22  C   UNL     1       4.937  -9.460  -2.588  0.00  0.00    +0.120 A 
ATOM     23  C   UNL     1       5.648  -9.070  -1.463  0.00  0.00    +0.046 A 
ATOM     24  C   UNL     1       5.151  -8.075  -0.643  0.00  0.00    +0.009 A 
BRANCH  22  25
ATOM     25  O   UNL     1       5.424 -10.437  -3.397  0.00  0.00    -0.495 OA
ATOM     26  C   UNL     1       4.638 -10.787  -4.538  0.00  0.00    +0.277 C 
ENDBRANCH  22  25
ENDBRANCH  10  19
BRANCH   9  27
ATOM     27  C   UNL     1       1.141  -7.495   0.008  0.00  0.00    +0.160 C 
ATOM     28  S   UNL     1       1.849  -9.053   0.033  0.00  0.00    -0.017 S 
BRANCH  27  29
ATOM     29  N   UNL     1      -0.201  -7.365   0.024  0.00  0.00    -0.260 N 
ATOM     30  C   UNL     1      -0.984  -8.461   0.059  0.00  0.00    +0.285 C 
ATOM     31  O   UNL     1      -0.480  -9.569   0.077  0.00  0.00    -0.266 OA
ATOM     32  H   UNL     1      -0.603  -6.482   0.009  0.00  0.00    +0.157 HD
BRANCH  30  33
ATOM     33  C   UNL     1      -2.443  -8.319   0.075  0.00  0.00    +0.189 A 
ATOM     34  C   UNL     1      -3.348  -9.342   0.105  0.00  0.00    +0.054 A 
ATOM     35  C   UNL     1      -4.622  -8.752   0.114  0.00  0.00    +0.042 A 
ATOM     36  C   UNL     1      -4.441  -7.413   0.081  0.00  0.00    +0.196 A 
ATOM     37  O   UNL     1      -3.127  -7.156   0.058  0.00  0.00    -0.458 OA
ENDBRANCH  30  33
ENDBRANCH  27  29
ENDBRANCH   9  27
TORSDOF 7
