REMARK  Name = ZINC15105676
REMARK  8 active torsions:
REMARK  status: ('A' for Active; 'I' for Inactive)
REMARK    1  A    between atoms: C_1  and  O_2
REMARK    2  A    between atoms: O_2  and  C_3
REMARK    3  A    between atoms: C_6  and  C_9
REMARK    4  A    between atoms: C_16  and  C_17
REMARK    5  A    between atoms: C_16  and  N_58
REMARK    6  A    between atoms: N_19  and  C_20
REMARK    7  A    between atoms: C_20  and  C_21
REMARK    8  A    between atoms: N_23  and  C_24
REMARK                            x       y       z     vdW  Elec       q    Type
REMARK                         _______ _______ _______ _____ _____    ______ ____
ROOT
ATOM      1  C   UNL     1       1.545   1.847   2.060  0.00  0.00    +0.197 C 
ATOM      2  O   UNL     1       1.537   2.824   2.779  0.00  0.00    -0.278 OA
ATOM      3  N   UNL     1       1.780   0.628   2.583  0.00  0.00    -0.308 N 
ATOM      4  H   UNL     1       1.783  -0.154   2.008  0.00  0.00    +0.149 HD
ENDROOT
BRANCH   1   5
ATOM      5  C   UNL     1       1.287   1.997   0.583  0.00  0.00    +0.019 C 
BRANCH   5  12
ATOM      6  C   UNL     1       2.075   4.295   0.584  0.00  0.00    -0.037 C 
ATOM      7  C   UNL     1       2.052   5.519  -0.209  0.00  0.00    -0.011 C 
ATOM      8  C   UNL     1       0.779   6.350   0.066  0.00  0.00    -0.001 C 
ATOM      9  C   UNL     1      -0.379   5.721  -0.661  0.00  0.00    -0.002 C 
ATOM     10  C   UNL     1      -1.154   4.705   0.204  0.00  0.00    -0.019 C 
ATOM     11  C   UNL     1      -0.216   3.812   1.038  0.00  0.00    -0.077 C 
ATOM     12  N   UNL     1       0.937   3.401   0.268  0.00  0.00    +0.390 N 
ATOM     13  H   UNL     1       0.718   3.474  -0.733  0.00  0.00    -0.080 HD
BRANCH   6  17
ATOM     14  C   UNL     1       5.728   2.218  -0.195  0.00  0.00    +0.120 A 
ATOM     15  C   UNL     1       5.505   2.789   1.049  0.00  0.00    +0.046 A 
ATOM     16  C   UNL     1       4.323   3.460   1.299  0.00  0.00    +0.005 A 
ATOM     17  C   UNL     1       3.363   3.562   0.309  0.00  0.00    -0.061 A 
ATOM     18  C   UNL     1       3.580   2.989  -0.930  0.00  0.00    +0.005 A 
ATOM     19  C   UNL     1       4.762   2.322  -1.186  0.00  0.00    +0.046 A 
BRANCH  14  21
ATOM     20  C   UNL     1       7.050   0.995  -1.747  0.00  0.00    +0.277 C 
ATOM     21  O   UNL     1       6.889   1.558  -0.443  0.00  0.00    -0.495 OA
ENDBRANCH  14  21
ENDBRANCH   6  17
ENDBRANCH   5  12
ENDBRANCH   1   5
BRANCH   3  22
ATOM     22  C   UNL     1       2.031   0.482   4.019  0.00  0.00    +0.200 C 
BRANCH  22  23
ATOM     23  C   UNL     1       2.262  -0.972   4.343  0.00  0.00    +0.234 C 
ATOM     24  O   UNL     1       2.221  -1.804   3.462  0.00  0.00    -0.274 OA
ATOM     25  N   UNL     1       2.514  -1.347   5.613  0.00  0.00    -0.282 N 
ATOM     26  H   UNL     1       2.476  -0.693   6.329  0.00  0.00    +0.155 HD
BRANCH  25  27
ATOM     27  C   UNL     1       2.831  -2.681   5.900  0.00  0.00    +0.072 A 
ATOM     28  C   UNL     1       3.537  -3.442   4.977  0.00  0.00    +0.029 A 
ATOM     29  C   UNL     1       3.850  -4.757   5.261  0.00  0.00    +0.043 A 
ATOM     30  C   UNL     1       3.461  -5.319   6.464  0.00  0.00    +0.161 A 
ATOM     31  C   UNL     1       2.755  -4.564   7.388  0.00  0.00    +0.195 A 
ATOM     32  C   UNL     1       2.444  -3.244   7.110  0.00  0.00    +0.182 A 
ATOM     33  F   UNL     1       1.762  -2.505   8.012  0.00  0.00    -0.200 F 
ATOM     34  F   UNL     1       2.376  -5.115   8.562  0.00  0.00    -0.199 F 
ATOM     35  F   UNL     1       3.769  -6.606   6.739  0.00  0.00    -0.202 F 
ENDBRANCH  25  27
ENDBRANCH  22  23
ENDBRANCH   3  22
TORSDOF 7
