REMARK  Name = ZINC59437155
REMARK  9 active torsions:
REMARK  status: ('A' for Active; 'I' for Inactive)
REMARK    1  A    between atoms: C_1  and  C_2
REMARK    2  A    between atoms: C_2  and  O_3
REMARK    3  A    between atoms: O_3  and  C_4
REMARK    4  A    between atoms: C_4  and  C_5
REMARK    5  A    between atoms: C_9  and  C_10
REMARK    6  A    between atoms: C_13  and  C_15
REMARK    7  A    between atoms: N_25  and  C_26
REMARK    8  A    between atoms: C_29  and  O_32
REMARK    9  A    between atoms: O_32  and  C_33
REMARK                            x       y       z     vdW  Elec       q    Type
REMARK                         _______ _______ _______ _____ _____    ______ ____
ROOT
ATOM      1  C   UNL     1      -2.840  -2.416   0.016  0.00  0.00    +0.139 C 
ATOM      2  C   UNL     1      -3.042  -3.775   0.017  0.00  0.00    +0.209 C 
ATOM      3  O   UNL     1      -1.992  -4.628   0.008  0.00  0.00    -0.286 OA
ATOM      4  C   UNL     1      -4.364  -4.263   0.026  0.00  0.00    +0.065 C 
ATOM      5  C   UNL     1      -4.791  -5.577   0.029  0.00  0.00    +0.065 C 
ATOM      6  S   UNL     1      -5.356  -2.781   0.035  0.00  0.00    -0.065 S 
ATOM      7  C   UNL     1      -4.044  -1.571   0.032  0.00  0.00    +0.120 C 
ATOM      8  N   UNL     1      -4.132  -0.253   0.041  0.00  0.00    -0.240 NA
ENDROOT
BRANCH   8   9
ATOM      9  C   UNL     1      -5.358   0.349   0.056  0.00  0.00    +0.065 A 
ATOM     10  C   UNL     1      -6.375  -0.107  -0.789  0.00  0.00    +0.031 A 
ATOM     11  C   UNL     1      -7.610   0.504  -0.769  0.00  0.00    +0.048 A 
ATOM     12  C   UNL     1      -7.846   1.572   0.086  0.00  0.00    +0.120 A 
ATOM     13  C   UNL     1      -6.840   2.030   0.926  0.00  0.00    +0.048 A 
ATOM     14  C   UNL     1      -5.603   1.421   0.919  0.00  0.00    +0.031 A 
BRANCH  12  15
ATOM     15  O   UNL     1      -9.066   2.172   0.101  0.00  0.00    -0.495 OA
ATOM     16  C   UNL     1      -9.241   3.265   1.005  0.00  0.00    +0.277 C 
ENDBRANCH  12  15
ENDBRANCH   8   9
BRANCH   5  17
ATOM     17  C   UNL     1      -6.167  -5.871   0.039  0.00  0.00    +0.130 A 
ATOM     18  C   UNL     1      -6.728  -7.138   0.048  0.00  0.00    +0.050 A 
ATOM     19  C   UNL     1      -8.113  -6.966   0.057  0.00  0.00    +0.050 A 
ATOM     20  C   UNL     1      -8.351  -5.609   0.052  0.00  0.00    +0.137 A 
ATOM     21  O   UNL     1      -7.169  -4.966   0.047  0.00  0.00    -0.455 OA
BRANCH  20  22
ATOM     22  C   UNL     1      -9.679  -4.969   0.058  0.00  0.00    +0.036 A 
ATOM     23  C   UNL     1     -10.657  -5.371  -0.857  0.00  0.00    +0.014 A 
ATOM     24  C   UNL     1     -11.896  -4.769  -0.846  0.00  0.00    +0.021 A 
ATOM     25  C   UNL     1     -12.175  -3.765   0.068  0.00  0.00    +0.042 A 
ATOM     26  C   UNL     1     -11.213  -3.361   0.977  0.00  0.00    +0.040 A 
ATOM     27  C   UNL     1      -9.969  -3.959   0.982  0.00  0.00    +0.053 A 
ATOM     28 CL   UNL     1      -8.765  -3.456   2.126  0.00  0.00    -0.083 Cl
ATOM     29 CL   UNL     1     -13.739  -3.011   0.073  0.00  0.00    -0.083 Cl
ENDBRANCH  20  22
ENDBRANCH   5  17
BRANCH   1  30
ATOM     30  C   UNL     1      -1.497  -1.839   0.006  0.00  0.00    +0.346 C 
ATOM     31  O   UNL     1      -0.522  -2.567  -0.007  0.00  0.00    -0.245 OA
BRANCH  30  32
ATOM     32  O   UNL     1      -1.339  -0.499   0.012  0.00  0.00    -0.461 OA
BRANCH  32  34
ATOM     33  C   UNL     1      -0.019   1.526   0.010  0.00  0.00    +0.048 C 
ATOM     34  C   UNL     1       0.002  -0.004   0.002  0.00  0.00    +0.229 C 
ENDBRANCH  32  34
ENDBRANCH  30  32
ENDBRANCH   1  30
TORSDOF 7
