REMARK  Name = ZINC01944211
REMARK  18 active torsions:
REMARK  status: ('A' for Active; 'I' for Inactive)
REMARK    1  A    between atoms: C_1  and  C_2
REMARK    2  A    between atoms: C_2  and  O_3
REMARK    3  A    between atoms: O_3  and  C_4
REMARK    4  A    between atoms: C_4  and  C_6
REMARK    5  A    between atoms: C_7  and  C_27
REMARK    6  A    between atoms: C_10  and  N_11
REMARK    7  A    between atoms: C_12  and  C_14
REMARK    8  A    between atoms: C_14  and  O_15
REMARK    9  A    between atoms: O_15  and  C_16
REMARK   10  A    between atoms: C_19  and  C_26
REMARK   11  A    between atoms: C_21  and  C_22
REMARK   12  A    between atoms: C_22  and  C_23
REMARK   13  A    between atoms: C_22  and  C_24
REMARK   14  A    between atoms: C_22  and  C_25
REMARK   15  A    between atoms: C_30  and  O_35
REMARK   16  A    between atoms: C_31  and  O_33
REMARK   17  A    between atoms: O_33  and  C_34
REMARK   18  A    between atoms: O_35  and  C_36
REMARK                            x       y       z     vdW  Elec       q    Type
REMARK                         _______ _______ _______ _____ _____    ______ ____
ROOT
ATOM      1  C   UNL     1      -1.248  -2.095   0.003  0.00  0.00    +0.095 A 
ATOM      2  C   UNL     1      -1.290  -2.848  -1.236  0.00  0.00    +0.005 A 
ATOM      3  C   UNL     1      -1.340  -4.200  -1.127  0.00  0.00    +0.056 A 
ATOM      4  S   UNL     1      -1.333  -4.469   0.633  0.00  0.00    -0.080 S 
ATOM      5  C   UNL     1      -1.259  -2.829   1.181  0.00  0.00    +0.086 A 
ENDROOT
BRANCH   2   6
ATOM      6  C   UNL     1      -1.277  -2.175  -2.557  0.00  0.00    -0.013 A 
ATOM      7  C   UNL     1      -2.169  -1.136  -2.819  0.00  0.00    +0.012 A 
ATOM      8  C   UNL     1      -2.154  -0.507  -4.048  0.00  0.00    +0.050 A 
ATOM      9  C   UNL     1      -1.260  -0.912  -5.026  0.00  0.00    +0.162 A 
ATOM     10  C   UNL     1      -0.370  -1.953  -4.772  0.00  0.00    +0.162 A 
ATOM     11  C   UNL     1      -0.378  -2.583  -3.540  0.00  0.00    +0.058 A 
BRANCH  10  12
ATOM     12  O   UNL     1       0.507  -2.348  -5.733  0.00  0.00    -0.491 OA
ATOM     13  C   UNL     1       1.391  -3.422  -5.403  0.00  0.00    +0.277 C 
ENDBRANCH  10  12
BRANCH   9  14
ATOM     14  O   UNL     1      -1.251  -0.293  -6.237  0.00  0.00    -0.491 OA
ATOM     15  C   UNL     1      -2.191   0.767  -6.430  0.00  0.00    +0.277 C 
ENDBRANCH   9  14
ENDBRANCH   2   6
BRANCH   5  16
ATOM     16  N   UNL     1      -1.222  -2.361   2.485  0.00  0.00    -0.277 N 
ATOM     17  C   UNL     1      -1.241  -3.230   3.514  0.00  0.00    +0.255 C 
ATOM     18  O   UNL     1      -1.290  -4.423   3.300  0.00  0.00    -0.272 OA
ATOM     19  H   UNL     1      -1.178  -1.279   2.680  0.00  0.00    +0.155 HD
BRANCH  17  20
ATOM     20  C   UNL     1      -1.201  -2.721   4.932  0.00  0.00    +0.324 C 
BRANCH  20  21
ATOM     21  O   UNL     1      -1.230  -3.826   5.837  0.00  0.00    -0.482 OA
BRANCH  21  22
ATOM     22  C   UNL     1      -1.200  -3.538   7.165  0.00  0.00    +0.125 A 
ATOM     23  C   UNL     1      -1.143  -2.218   7.588  0.00  0.00    +0.046 A 
ATOM     24  C   UNL     1      -1.112  -1.928   8.938  0.00  0.00    +0.007 A 
ATOM     25  C   UNL     1      -1.138  -2.952   9.867  0.00  0.00    -0.050 A 
ATOM     26  C   UNL     1      -1.195  -4.268   9.448  0.00  0.00    +0.011 A 
ATOM     27  C   UNL     1      -1.231  -4.563   8.099  0.00  0.00    -0.000 A 
ATOM     28  C   UNL     1      -1.105  -2.632  11.340  0.00  0.00    +0.044 C 
BRANCH  27  29
ATOM     29  C   UNL     1      -1.299  -5.998   7.642  0.00  0.00    -0.009 C 
ATOM     30  C   UNL     1      -1.322  -6.921   8.862  0.00  0.00    +0.015 C 
ATOM     31  C   UNL     1      -2.570  -6.211   6.817  0.00  0.00    +0.015 C 
ATOM     32  C   UNL     1      -0.074  -6.319   6.784  0.00  0.00    +0.015 C 
ENDBRANCH  27  29
ENDBRANCH  21  22
ENDBRANCH  20  21
ENDBRANCH  17  20
ENDBRANCH   5  16
BRANCH   1  33
ATOM     33  C   UNL     1      -1.191  -0.633   0.010  0.00  0.00    +0.342 C 
ATOM     34  O   UNL     1      -2.220   0.016   0.023  0.00  0.00    -0.245 OA
BRANCH  33  35
ATOM     35  O   UNL     1       0.002  -0.004   0.002  0.00  0.00    -0.461 OA
BRANCH  35  37
ATOM     36  C   UNL     1       1.418   1.977  -0.001  0.00  0.00    +0.048 C 
ATOM     37  C   UNL     1      -0.018   1.448   0.010  0.00  0.00    +0.229 C 
ENDBRANCH  35  37
ENDBRANCH  33  35
ENDBRANCH   1  33
TORSDOF 11
