REMARK  Name = ZINC22569717
REMARK  9 active torsions:
REMARK  status: ('A' for Active; 'I' for Inactive)
REMARK    1  A    between atoms: C_1  and  C_2
REMARK    2  A    between atoms: C_5  and  C_17
REMARK    3  A    between atoms: N_8  and  C_10
REMARK    4  A    between atoms: C_17  and  O_19
REMARK    5  A    between atoms: O_19  and  C_20
REMARK    6  A    between atoms: C_20  and  C_22
REMARK    7  A    between atoms: C_20  and  C_25
REMARK    8  A    between atoms: C_22  and  C_23
REMARK    9  A    between atoms: C_22  and  C_24
REMARK                            x       y       z     vdW  Elec       q    Type
REMARK                         _______ _______ _______ _____ _____    ______ ____
ROOT
ATOM      1  C   UNL     1       4.627  -2.496   0.184  0.00  0.00    +0.068 C 
ATOM      2  C   UNL     1       3.271  -1.948  -0.181  0.00  0.00    +0.069 A 
ATOM      3  C   UNL     1       2.910  -0.561  -0.192  0.00  0.00    +0.031 A 
ATOM      4  C   UNL     1       3.491   0.690   0.066  0.00  0.00    +0.034 A 
ATOM      5  C   UNL     1       2.746   1.823  -0.077  0.00  0.00    +0.099 A 
ATOM      6  S   UNL     1       1.160   1.186  -0.591  0.00  0.00    -0.062 S 
ATOM      7  C   UNL     1       1.564  -0.541  -0.590  0.00  0.00    +0.113 A 
ATOM      8  N   UNL     1       1.158  -1.811  -0.797  0.00  0.00    -0.225 N 
ATOM      9  N   UNL     1       2.242  -2.659  -0.534  0.00  0.00    -0.170 NA
ENDROOT
BRANCH   8  10
ATOM     10  C   UNL     1      -0.122  -2.211  -1.204  0.00  0.00    +0.067 A 
ATOM     11  C   UNL     1      -1.240  -1.517  -0.761  0.00  0.00    +0.029 A 
ATOM     12  C   UNL     1      -2.500  -1.910  -1.168  0.00  0.00    +0.022 A 
ATOM     13  C   UNL     1      -2.649  -3.001  -2.006  0.00  0.00    +0.041 A 
ATOM     14  C   UNL     1      -1.536  -3.698  -2.444  0.00  0.00    +0.022 A 
ATOM     15  C   UNL     1      -0.274  -3.305  -2.045  0.00  0.00    +0.029 A 
ATOM     16 CL   UNL     1      -4.235  -3.497  -2.509  0.00  0.00    -0.084 Cl
ENDBRANCH   8  10
BRANCH   5  17
ATOM     17  C   UNL     1       3.147   3.215   0.136  0.00  0.00    +0.347 C 
ATOM     18  O   UNL     1       4.282   3.473   0.490  0.00  0.00    -0.244 OA
BRANCH  17  19
ATOM     19  O   UNL     1       2.258   4.210  -0.060  0.00  0.00    -0.448 OA
BRANCH  19  20
ATOM     20  C   UNL     1       2.725   5.566   0.171  0.00  0.00    +0.265 C 
BRANCH  20  21
ATOM     21  C   UNL     1       1.976   6.515  -0.729  0.00  0.00    +0.261 C 
ATOM     22  O   UNL     1       2.345   7.665  -0.838  0.00  0.00    -0.271 OA
ATOM     23  N   UNL     1       0.897   6.085  -1.413  0.00  0.00    -0.237 N 
ATOM     24  C   UNL     1       0.287   6.904  -2.292  0.00  0.00    +0.303 C 
ATOM     25  O   UNL     1       0.710   8.030  -2.469  0.00  0.00    -0.253 OA
ATOM     26  N   UNL     1      -0.792   6.475  -2.976  0.00  0.00    -0.313 N 
ATOM     27  H   UNL     1       0.515   5.066  -1.253  0.00  0.00    +0.159 HD
ATOM     28  H   UNL     1      -1.290   7.143  -3.694  0.00  0.00    +0.146 HD
ATOM     29  H   UNL     1      -1.175   5.456  -2.816  0.00  0.00    +0.146 HD
ENDBRANCH  20  21
BRANCH  20  30
ATOM     30  C   UNL     1       2.480   5.948   1.632  0.00  0.00    +0.033 C 
ATOM     31  C   UNL     1       3.227   4.974   2.546  0.00  0.00    +0.011 C 
ATOM     32  C   UNL     1       2.988   7.370   1.879  0.00  0.00    +0.011 C 
ENDBRANCH  20  30
ENDBRANCH  19  20
ENDBRANCH  17  19
ENDBRANCH   5  17
TORSDOF 6
