REMARK  Name = ZINC19236996
REMARK  8 active torsions:
REMARK  status: ('A' for Active; 'I' for Inactive)
REMARK    1  A    between atoms: C_1  and  C_2
REMARK    2  A    between atoms: C_7  and  C_8
REMARK    3  A    between atoms: N_16  and  C_19
REMARK    4  A    between atoms: C_28  and  C_30
REMARK    5  A    between atoms: C_28  and  C_37
REMARK    6  A    between atoms: C_30  and  C_31
REMARK    7  A    between atoms: C_37  and  O_39
REMARK    8  A    between atoms: O_39  and  C_40
REMARK                            x       y       z     vdW  Elec       q    Type
REMARK                         _______ _______ _______ _____ _____    ______ ____
ROOT
ATOM      1  C   UNL     1       0.058  -0.146   2.604  0.00  0.00    +0.098 C 
ATOM      2  C   UNL     1      -1.355  -0.037   3.169  0.00  0.00    +0.111 C 
ATOM      3  C   UNL     1      -0.947   0.184   4.675  0.00  0.00    +0.121 C 
ATOM      4  C   UNL     1      -2.165   0.712   5.240  0.00  0.00    +0.232 C 
ATOM      5  O   UNL     1      -2.592   0.542   6.362  0.00  0.00    -0.274 OA
ATOM      6  N   UNL     1      -2.734   1.448   4.231  0.00  0.00    -0.210 N 
ATOM      7  C   UNL     1      -2.160   1.212   2.999  0.00  0.00    +0.232 C 
ATOM      8  O   UNL     1      -2.273   1.875   1.991  0.00  0.00    -0.274 OA
ATOM      9  C   UNL     1       0.043  -0.872   4.920  0.00  0.00    +0.133 C 
ATOM     10  N   UNL     1       0.758  -1.024   3.598  0.00  0.00    -0.293 NA
ATOM     11  H   UNL     1       0.748  -1.988   3.299  0.00  0.00    +0.124 HD
ENDROOT
BRANCH   6  12
ATOM     12  C   UNL     1      -3.800   2.340   4.427  0.00  0.00    +0.048 A 
ATOM     13  C   UNL     1      -4.331   2.519   5.697  0.00  0.00    +0.028 A 
ATOM     14  C   UNL     1      -5.380   3.398   5.891  0.00  0.00    +0.051 A 
ATOM     15  C   UNL     1      -5.904   4.102   4.819  0.00  0.00    +0.166 A 
ATOM     16  C   UNL     1      -5.374   3.924   3.544  0.00  0.00    +0.168 A 
ATOM     17  C   UNL     1      -4.319   3.047   3.351  0.00  0.00    +0.073 A 
ATOM     18  O   UNL     1      -6.056   4.722   2.672  0.00  0.00    -0.453 OA
ATOM     19  C   UNL     1      -7.273   5.082   3.351  0.00  0.00    +0.466 C 
ATOM     20  O   UNL     1      -6.920   5.013   4.745  0.00  0.00    -0.453 OA
ENDBRANCH   6  12
BRANCH   1  27
ATOM     21  C   UNL     1       2.464  -0.223   1.006  0.00  0.00    +0.044 C 
ATOM     22  C   UNL     1       1.190  -0.830   0.479  0.00  0.00    -0.046 A 
ATOM     23  C   UNL     1       1.173  -1.428  -0.768  0.00  0.00    +0.003 A 
ATOM     24  C   UNL     1       0.004  -1.984  -1.252  0.00  0.00    +0.000 A 
ATOM     25  C   UNL     1      -1.148  -1.943  -0.490  0.00  0.00    +0.000 A 
ATOM     26  C   UNL     1      -1.132  -1.346   0.757  0.00  0.00    +0.005 A 
ATOM     27  C   UNL     1       0.038  -0.793   1.243  0.00  0.00    -0.027 A 
ENDBRANCH   1  27
BRANCH   9  28
ATOM     28  C   UNL     1      -0.643  -2.151   5.325  0.00  0.00    +0.328 C 
ATOM     29  O   UNL     1      -1.736  -2.114   5.838  0.00  0.00    -0.249 OA
BRANCH  28  30
ATOM     30  O   UNL     1      -0.039  -3.332   5.117  0.00  0.00    -0.467 OA
ATOM     31  C   UNL     1      -0.747  -4.504   5.525  0.00  0.00    +0.280 C 
ENDBRANCH  28  30
ENDBRANCH   9  28
BRANCH   9  32
ATOM     32  C   UNL     1       1.036  -0.433   5.998  0.00  0.00    +0.069 C 
BRANCH  32  33
ATOM     33  C   UNL     1       2.112  -1.478   6.146  0.00  0.00    -0.045 A 
ATOM     34  C   UNL     1       1.947  -2.518   7.041  0.00  0.00    +0.004 A 
ATOM     35  C   UNL     1       2.934  -3.477   7.177  0.00  0.00    +0.000 A 
ATOM     36  C   UNL     1       4.085  -3.395   6.417  0.00  0.00    +0.000 A 
ATOM     37  C   UNL     1       4.250  -2.355   5.521  0.00  0.00    +0.000 A 
ATOM     38  C   UNL     1       3.261  -1.399   5.382  0.00  0.00    +0.004 A 
ENDBRANCH  32  33
ENDBRANCH   9  32
TORSDOF 6
