REMARK  Name = ZINC39364136
REMARK  11 active torsions:
REMARK  status: ('A' for Active; 'I' for Inactive)
REMARK    1  A    between atoms: C_1  and  C_2
REMARK    2  A    between atoms: C_2  and  C_4
REMARK    3  A    between atoms: C_2  and  N_16
REMARK    4  A    between atoms: C_7  and  C_10
REMARK    5  A    between atoms: N_16  and  C_17
REMARK    6  A    between atoms: N_16  and  C_18
REMARK    7  A    between atoms: C_18  and  C_19
REMARK    8  A    between atoms: C_23  and  C_26
REMARK    9  A    between atoms: N_28  and  C_29
REMARK   10  A    between atoms: C_29  and  C_30
REMARK   11  A    between atoms: C_34  and  C_36
REMARK                            x       y       z     vdW  Elec       q    Type
REMARK                         _______ _______ _______ _____ _____    ______ ____
ROOT
ATOM      1  C   UNL     1       1.544  -0.348  -4.206  0.00  0.00    +0.033 A 
ATOM      2  N   UNL     1       2.845   0.028  -4.232  0.00  0.00    -0.324 N 
ATOM      3  C   UNL     1       3.653  -0.333  -5.247  0.00  0.00    +0.261 A 
ATOM      4  O   UNL     1       4.821   0.015  -5.252  0.00  0.00    -0.267 OA
ATOM      5  C   UNL     1       3.140  -1.118  -6.311  0.00  0.00    +0.101 A 
ATOM      6  C   UNL     1       1.800  -1.501  -6.278  0.00  0.00    +0.020 A 
ATOM      7  C   UNL     1       1.011  -1.104  -5.200  0.00  0.00    +0.023 A 
ATOM      8  H   UNL     1       3.201   0.565  -3.507  0.00  0.00    +0.169 HD
ENDROOT
BRANCH   5   9
ATOM      9  C   UNL     1       4.006  -1.521  -7.430  0.00  0.00    +0.250 C 
ATOM     10  O   UNL     1       3.585  -2.281  -8.282  0.00  0.00    -0.270 OA
ATOM     11  N   UNL     1       5.266  -1.049  -7.511  0.00  0.00    -0.307 N 
ATOM     12  H   UNL     1       5.626  -0.503  -6.794  0.00  0.00    +0.149 HD
BRANCH  11  13
ATOM     13  C   UNL     1       6.091  -1.360  -8.680  0.00  0.00    +0.139 C 
BRANCH  13  14
ATOM     14  C   UNL     1       7.445  -0.717  -8.525  0.00  0.00    -0.030 A 
ATOM     15  C   UNL     1       7.660   0.565  -8.996  0.00  0.00    +0.005 A 
ATOM     16  C   UNL     1       8.902   1.154  -8.853  0.00  0.00    +0.001 A 
ATOM     17  C   UNL     1       9.929   0.462  -8.239  0.00  0.00    +0.012 A 
ATOM     18  C   UNL     1       9.714  -0.819  -7.767  0.00  0.00    +0.055 A 
ATOM     19  C   UNL     1       8.470  -1.407  -7.906  0.00  0.00    +0.017 A 
BRANCH  18  20
ATOM     20  C   UNL     1      10.834  -1.574  -7.099  0.00  0.00    +0.417 C 
ATOM     21  F   UNL     1      11.983  -0.777  -7.073  0.00  0.00    -0.166 F 
ATOM     22  F   UNL     1      10.462  -1.897  -5.789  0.00  0.00    -0.166 F 
ATOM     23  F   UNL     1      11.096  -2.748  -7.812  0.00  0.00    -0.166 F 
ENDBRANCH  18  20
ENDBRANCH  13  14
ENDBRANCH  11  13
ENDBRANCH   5   9
BRANCH   1  24
ATOM     24  C   UNL     1       0.675   0.077  -3.051  0.00  0.00    +0.137 C 
BRANCH  24  25
ATOM     25  N   UNL     1       1.165  -0.547  -1.815  0.00  0.00    -0.295 NA
ATOM     26  C   UNL     1       0.999  -2.006  -1.859  0.00  0.00    +0.105 C 
BRANCH  25  28
ATOM     27  C   UNL     1      -1.020  -0.072  -0.816  0.00  0.00    +0.027 C 
ATOM     28  C   UNL     1       0.496   0.023  -0.637  0.00  0.00    +0.084 C 
BRANCH  28  29
ATOM     29  C   UNL     1       0.900   1.491  -0.482  0.00  0.00    +0.170 C 
ATOM     30  C   UNL     1       2.374   1.608  -0.136  0.00  0.00    +0.033 C 
ATOM     31  C   UNL     1       2.376   2.205   1.071  0.00  0.00    +0.091 C 
ATOM     32  N   UNL     1       1.104   2.454   1.479  0.00  0.00    -0.154 NA
ATOM     33  N   UNL     1       0.230   2.094   0.682  0.00  0.00    -0.178 NA
BRANCH  31  34
ATOM     34  C   UNL     1       3.595   2.543   1.846  0.00  0.00    +0.002 A 
ATOM     35  C   UNL     1       4.856   2.248   1.331  0.00  0.00    +0.010 A 
ATOM     36  C   UNL     1       5.986   2.565   2.057  0.00  0.00    +0.001 A 
ATOM     37  C   UNL     1       5.870   3.175   3.293  0.00  0.00    +0.000 A 
ATOM     38  C   UNL     1       4.621   3.471   3.808  0.00  0.00    +0.001 A 
ATOM     39  C   UNL     1       3.483   3.163   3.089  0.00  0.00    +0.010 A 
ENDBRANCH  31  34
ENDBRANCH  28  29
ENDBRANCH  25  28
ENDBRANCH  24  25
ENDBRANCH   1  24
TORSDOF 9
