REMARK  Name = ZINC11185052
REMARK  9 active torsions:
REMARK  status: ('A' for Active; 'I' for Inactive)
REMARK    1  A    between atoms: C_1  and  C_2
REMARK    2  A    between atoms: C_5  and  C_36
REMARK    3  A    between atoms: C_6  and  N_8
REMARK    4  A    between atoms: C_14  and  C_19
REMARK    5  A    between atoms: C_19  and  O_21
REMARK    6  A    between atoms: O_21  and  C_22
REMARK    7  A    between atoms: C_22  and  C_24
REMARK    8  A    between atoms: C_22  and  C_25
REMARK    9  A    between atoms: N_27  and  C_28
REMARK                            x       y       z     vdW  Elec       q    Type
REMARK                         _______ _______ _______ _____ _____    ______ ____
ROOT
ATOM      1  N   UNL     1       6.335   6.779   1.520  0.00  0.00    -0.202 N 
ATOM      2  C   UNL     1       6.694   5.671   0.847  0.00  0.00    +0.258 C 
ATOM      3  O   UNL     1       7.817   5.404   0.470  0.00  0.00    -0.269 OA
ATOM      4  C   UNL     1       5.492   4.832   0.644  0.00  0.00    +0.050 A 
ATOM      5  C   UNL     1       5.261   3.609   0.033  0.00  0.00    +0.014 A 
ATOM      6  C   UNL     1       3.982   3.079   0.013  0.00  0.00    +0.016 A 
ATOM      7  C   UNL     1       2.924   3.769   0.605  0.00  0.00    +0.060 A 
ATOM      8  C   UNL     1       3.148   5.005   1.218  0.00  0.00    +0.028 A 
ATOM      9  C   UNL     1       4.427   5.534   1.244  0.00  0.00    +0.051 A 
ATOM     10  C   UNL     1       5.017   6.774   1.791  0.00  0.00    +0.258 C 
ATOM     11  O   UNL     1       4.413   7.644   2.385  0.00  0.00    -0.269 OA
ENDROOT
BRANCH   1  17
ATOM     12  C   UNL     1       8.549  11.042   0.469  0.00  0.00    +0.044 C 
ATOM     13  C   UNL     1       8.308   9.881   1.399  0.00  0.00    -0.049 A 
ATOM     14  C   UNL     1       8.957   9.827   2.619  0.00  0.00    +0.004 A 
ATOM     15  C   UNL     1       8.738   8.763   3.474  0.00  0.00    +0.005 A 
ATOM     16  C   UNL     1       7.866   7.754   3.115  0.00  0.00    -0.029 A 
ATOM     17  C   UNL     1       7.216   7.803   1.889  0.00  0.00    +0.048 A 
ATOM     18  C   UNL     1       7.438   8.873   1.032  0.00  0.00    +0.027 A 
ATOM     19  C   UNL     1       7.623   6.598   4.051  0.00  0.00    +0.045 C 
ENDBRANCH   1  17
BRANCH   7  20
ATOM     20  C   UNL     1       1.561   3.194   0.578  0.00  0.00    +0.340 C 
ATOM     21  O   UNL     1       0.639   3.794   1.093  0.00  0.00    -0.245 OA
BRANCH  20  22
ATOM     22  O   UNL     1       1.343   2.006  -0.017  0.00  0.00    -0.449 OA
BRANCH  22  23
ATOM     23  C   UNL     1      -0.019   1.503  -0.005  0.00  0.00    +0.259 C 
ATOM     24  C   UNL     1      -0.757   2.000  -1.250  0.00  0.00    +0.062 C 
BRANCH  23  25
ATOM     25  C   UNL     1       0.002  -0.004  -0.002  0.00  0.00    +0.258 C 
ATOM     26  O   UNL     1       1.061  -0.596  -0.008  0.00  0.00    -0.271 OA
ATOM     27  N   UNL     1      -1.156  -0.694   0.009  0.00  0.00    -0.281 N 
ATOM     28  H   UNL     1      -2.000  -0.224   0.096  0.00  0.00    +0.155 HD
BRANCH  27  29
ATOM     29  C   UNL     1      -1.140  -2.090  -0.104  0.00  0.00    +0.052 A 
ATOM     30  C   UNL     1      -0.072  -2.725  -0.724  0.00  0.00    +0.027 A 
ATOM     31  C   UNL     1      -0.059  -4.102  -0.834  0.00  0.00    +0.040 A 
ATOM     32  C   UNL     1      -1.109  -4.849  -0.328  0.00  0.00    +0.125 A 
ATOM     33  C   UNL     1      -2.175  -4.218   0.290  0.00  0.00    +0.060 A 
ATOM     34  C   UNL     1      -2.191  -2.841   0.408  0.00  0.00    +0.065 A 
ATOM     35 CL   UNL     1      -3.524  -2.051   1.190  0.00  0.00    -0.082 Cl
ATOM     36  F   UNL     1      -1.094  -6.196  -0.439  0.00  0.00    -0.205 F 
ENDBRANCH  27  29
ENDBRANCH  23  25
ENDBRANCH  22  23
ENDBRANCH  20  22
ENDBRANCH   7  20
TORSDOF 6
