REMARK  Name = ZINC36599235
REMARK  16 active torsions:
REMARK  status: ('A' for Active; 'I' for Inactive)
REMARK    1  A    between atoms: C_1  and  C_2
REMARK    2  A    between atoms: C_5  and  C_7
REMARK    3  A    between atoms: C_7  and  N_8
REMARK    4  A    between atoms: N_8  and  C_9
REMARK    5  A    between atoms: C_9  and  C_11
REMARK    6  A    between atoms: C_9  and  C_20
REMARK    7  A    between atoms: C_14  and  N_17
REMARK    8  A    between atoms: N_22  and  C_23
REMARK    9  A    between atoms: C_23  and  C_24
REMARK   10  A    between atoms: C_23  and  C_25
REMARK   11  A    between atoms: C_23  and  C_26
REMARK   12  A    between atoms: C_26  and  C_27
REMARK   13  A    between atoms: C_27  and  C_28
REMARK   14  A    between atoms: C_27  and  C_29
REMARK   15  A    between atoms: C_27  and  C_30
REMARK   16  A    between atoms: C_31  and  C_33
REMARK                            x       y       z     vdW  Elec       q    Type
REMARK                         _______ _______ _______ _____ _____    ______ ____
ROOT
ATOM      1  C   UNL     1       3.113  -3.341  -1.341  0.00  0.00    +0.193 C 
ENDROOT
BRANCH   1   2
ATOM      2  C   UNL     1       2.550  -2.217  -2.172  0.00  0.00    -0.018 A 
ATOM      3  C   UNL     1       1.614  -2.485  -3.153  0.00  0.00    +0.008 A 
ATOM      4  C   UNL     1       1.097  -1.454  -3.915  0.00  0.00    +0.033 A 
ATOM      5  C   UNL     1       1.516  -0.155  -3.696  0.00  0.00    +0.126 A 
ATOM      6  C   UNL     1       2.452   0.113  -2.714  0.00  0.00    +0.033 A 
ATOM      7  C   UNL     1       2.965  -0.918  -1.949  0.00  0.00    +0.008 A 
BRANCH   5   8
ATOM      8  N   UNL     1       0.964   0.949  -4.513  0.00  0.00    +0.056 N 
ATOM      9  O   UNL     1       0.146   0.715  -5.372  0.00  0.00    -0.126 OA
ATOM     10  O   UNL     1       1.330   2.085  -4.321  0.00  0.00    -0.126 OA
ENDBRANCH   5   8
ENDBRANCH   1   2
BRANCH   1  11
ATOM     11  C   UNL     1       4.444  -3.766  -1.907  0.00  0.00    +0.239 C 
ATOM     12  O   UNL     1       4.596  -4.898  -2.315  0.00  0.00    -0.273 OA
ATOM     13  N   UNL     1       5.465  -2.888  -1.960  0.00  0.00    -0.308 N 
ATOM     14  H   UNL     1       5.343  -1.982  -1.634  0.00  0.00    +0.149 HD
BRANCH  13  15
ATOM     15  C   UNL     1       6.759  -3.300  -2.510  0.00  0.00    +0.030 C 
ATOM     16  C   UNL     1       7.446  -4.257  -1.533  0.00  0.00    +0.031 C 
ATOM     17  C   UNL     1       6.541  -4.008  -3.849  0.00  0.00    +0.031 C 
BRANCH  15  18
ATOM     18  C   UNL     1       7.639  -2.067  -2.722  0.00  0.00    +0.031 C 
BRANCH  18  19
ATOM     19  C   UNL     1       6.796  -0.933  -3.308  0.00  0.00    -0.036 C 
ATOM     20  C   UNL     1       5.790  -0.452  -2.260  0.00  0.00    +0.010 C 
ATOM     21  C   UNL     1       7.710   0.227  -3.708  0.00  0.00    +0.010 C 
ATOM     22  C   UNL     1       6.046  -1.440  -4.541  0.00  0.00    +0.010 C 
ENDBRANCH  18  19
ENDBRANCH  15  18
ENDBRANCH  13  15
ENDBRANCH   1  11
BRANCH   1  23
ATOM     23  N   UNL     1       2.188  -4.477  -1.365  0.00  0.00    -0.275 N 
ATOM     24  C   UNL     1       0.976  -4.371  -0.785  0.00  0.00    +0.248 C 
ATOM     25  O   UNL     1       0.185  -5.291  -0.857  0.00  0.00    -0.270 OA
BRANCH  24  26
ATOM     26  C   UNL     1       0.609  -3.135  -0.061  0.00  0.00    +0.037 A 
ATOM     27  C   UNL     1       1.482  -2.046  -0.045  0.00  0.00    +0.013 A 
ATOM     28  C   UNL     1       1.133  -0.896   0.632  0.00  0.00    +0.001 A 
ATOM     29  C   UNL     1      -0.079  -0.821   1.295  0.00  0.00    +0.000 A 
ATOM     30  C   UNL     1      -0.949  -1.897   1.284  0.00  0.00    +0.001 A 
ATOM     31  C   UNL     1      -0.615  -3.051   0.606  0.00  0.00    +0.013 A 
ENDBRANCH  24  26
BRANCH  23  32
ATOM     32  C   UNL     1       2.580  -5.728  -2.019  0.00  0.00    +0.183 C 
BRANCH  32  37
ATOM     33  C   UNL     1       6.332  -7.937   0.528  0.00  0.00    +0.086 C 
ATOM     34  C   UNL     1       4.945  -7.562   0.073  0.00  0.00    +0.102 A 
ATOM     35  C   UNL     1       3.795  -8.048   0.574  0.00  0.00    +0.045 A 
ATOM     36  C   UNL     1       2.743  -7.429  -0.139  0.00  0.00    +0.046 A 
ATOM     37  C   UNL     1       3.313  -6.601  -1.034  0.00  0.00    +0.122 A 
ATOM     38  O   UNL     1       4.647  -6.682  -0.896  0.00  0.00    -0.463 OA
ENDBRANCH  32  37
ENDBRANCH  23  32
ENDBRANCH   1  23
TORSDOF 10
