REMARK  Name = ZINC35742484
REMARK  12 active torsions:
REMARK  status: ('A' for Active; 'I' for Inactive)
REMARK    1  A    between atoms: C_1  and  C_2
REMARK    2  A    between atoms: C_5  and  S_8
REMARK    3  A    between atoms: S_8  and  N_11
REMARK    4  A    between atoms: N_11  and  C_12
REMARK    5  A    between atoms: N_11  and  C_34
REMARK    6  A    between atoms: C_12  and  C_13
REMARK    7  A    between atoms: C_23  and  C_25
REMARK    8  A    between atoms: C_25  and  O_26
REMARK    9  A    between atoms: O_26  and  C_27
REMARK   10  A    between atoms: C_34  and  C_35
REMARK   11  A    between atoms: C_34  and  C_36
REMARK   12  A    between atoms: C_34  and  C_37
REMARK                            x       y       z     vdW  Elec       q    Type
REMARK                         _______ _______ _______ _____ _____    ______ ____
ROOT
ATOM      1  C   UNL     1       2.391  -6.495   1.438  0.00  0.00    +0.232 C 
ATOM      2  O   UNL     1       1.653  -7.225   0.810  0.00  0.00    -0.274 OA
ATOM      3  N   UNL     1       3.056  -6.969   2.509  0.00  0.00    -0.290 N 
ATOM      4  C   UNL     1       3.948  -6.091   3.282  0.00  0.00    +0.114 C 
ATOM      5  C   UNL     1       3.365  -5.934   4.695  0.00  0.00    +0.061 C 
ATOM      6  C   UNL     1       2.899  -7.271   5.172  0.00  0.00    -0.004 A 
ATOM      7  C   UNL     1       2.669  -8.390   4.432  0.00  0.00    -0.014 A 
ATOM      8  C   UNL     1       2.227  -9.517   5.123  0.00  0.00    +0.013 A 
ATOM      9  C   UNL     1       2.053  -9.464   6.463  0.00  0.00    +0.046 A 
ATOM     10  S   UNL     1       2.515  -7.778   6.828  0.00  0.00    -0.101 S 
ATOM     11  C   UNL     1       2.896  -8.369   2.926  0.00  0.00    +0.144 C 
ENDROOT
BRANCH   1  12
ATOM     12  C   UNL     1       2.562  -5.057   1.020  0.00  0.00    +0.205 C 
BRANCH  12  13
ATOM     13  N   UNL     1       1.740  -4.791  -0.163  0.00  0.00    -0.163 NA
BRANCH  13  14
ATOM     14  C   UNL     1       2.258  -5.095  -1.499  0.00  0.00    +0.035 C 
ATOM     15  C   UNL     1       2.436  -6.607  -1.645  0.00  0.00    +0.029 C 
ATOM     16  C   UNL     1       1.270  -4.593  -2.555  0.00  0.00    +0.029 C 
ATOM     17  C   UNL     1       3.608  -4.401  -1.692  0.00  0.00    +0.029 C 
ENDBRANCH  13  14
BRANCH  13  18
ATOM     18  S   UNL     1       0.224  -4.146   0.011  0.00  0.00    +0.062 S 
ATOM     19  O   UNL     1      -0.158  -4.365   1.363  0.00  0.00    -0.153 OA
ATOM     20  O   UNL     1      -0.547  -4.620  -1.084  0.00  0.00    -0.153 OA
BRANCH  18  25
ATOM     21  C   UNL     1       0.731   1.825  -0.691  0.00  0.00    +0.044 C 
ATOM     22  C   UNL     1       0.604   0.334  -0.515  0.00  0.00    -0.050 A 
ATOM     23  C   UNL     1       0.150  -0.449  -1.560  0.00  0.00    +0.005 A 
ATOM     24  C   UNL     1       0.034  -1.817  -1.399  0.00  0.00    +0.029 A 
ATOM     25  C   UNL     1       0.373  -2.403  -0.194  0.00  0.00    +0.106 A 
ATOM     26  C   UNL     1       0.828  -1.620   0.851  0.00  0.00    +0.029 A 
ATOM     27  C   UNL     1       0.948  -0.252   0.688  0.00  0.00    +0.005 A 
ENDBRANCH  18  25
ENDBRANCH  13  18
ENDBRANCH  12  13
ENDBRANCH   1  12
BRANCH  11  28
ATOM     28  C   UNL     1       4.162  -9.159   2.586  0.00  0.00    +0.256 C 
BRANCH  28  29
ATOM     29  O   UNL     1       5.256  -8.660   3.360  0.00  0.00    -0.490 OA
BRANCH  29  30
ATOM     30  C   UNL     1       6.463  -9.258   3.177  0.00  0.00    +0.121 A 
ATOM     31  C   UNL     1       6.593 -10.297   2.268  0.00  0.00    +0.048 A 
ATOM     32  C   UNL     1       7.821 -10.903   2.083  0.00  0.00    +0.042 A 
ATOM     33  C   UNL     1       8.921 -10.473   2.805  0.00  0.00    +0.124 A 
ATOM     34  C   UNL     1       8.793  -9.436   3.713  0.00  0.00    +0.042 A 
ATOM     35  C   UNL     1       7.568  -8.824   3.895  0.00  0.00    +0.048 A 
ATOM     36  F   UNL     1      10.121 -11.067   2.624  0.00  0.00    -0.205 F 
ENDBRANCH  29  30
ENDBRANCH  28  29
ENDBRANCH  11  28
TORSDOF 8
