REMARK  Name = ZINC39357046
REMARK  6 active torsions:
REMARK  status: ('A' for Active; 'I' for Inactive)
REMARK    1  A    between atoms: C_3  and  C_8
REMARK    2  A    between atoms: C_11  and  C_34
REMARK    3  A    between atoms: C_13  and  C_14
REMARK    4  A    between atoms: N_17  and  C_20
REMARK    5  A    between atoms: C_20  and  C_21
REMARK    6  A    between atoms: C_26  and  C_27
REMARK                            x       y       z     vdW  Elec       q    Type
REMARK                         _______ _______ _______ _____ _____    ______ ____
ROOT
ATOM      1  C   UNL     1       4.505   0.764   1.895  0.00  0.00    +0.035 C 
ATOM      2  C   UNL     1       4.634   1.339   3.309  0.00  0.00    -0.009 C 
ATOM      3  C   UNL     1       4.535   0.200   4.327  0.00  0.00    -0.078 C 
ATOM      4  N   UNL     1       5.613  -0.768   4.090  0.00  0.00    +0.380 N 
ATOM      5  C   UNL     1       5.453  -1.376   2.764  0.00  0.00    -0.078 C 
ATOM      6  C   UNL     1       5.587  -0.298   1.685  0.00  0.00    -0.009 C 
ATOM      7  H   UNL     1       6.504  -0.297   4.138  0.00  0.00    -0.082 HD
ENDROOT
BRANCH   1  13
ATOM      8  C   UNL     1       3.660   2.168  -0.022  0.00  0.00    +0.022 A 
ATOM      9  C   UNL     1       3.872   3.206  -0.933  0.00  0.00    +0.123 A 
ATOM     10  N   UNL     1       5.022   3.856  -0.906  0.00  0.00    -0.232 NA
ATOM     11  C   UNL     1       5.961   3.537  -0.037  0.00  0.00    +0.234 A 
ATOM     12  N   UNL     1       5.802   2.566   0.839  0.00  0.00    -0.228 NA
ATOM     13  C   UNL     1       4.679   1.869   0.885  0.00  0.00    +0.056 A 
BRANCH   8  16
ATOM     14  C   UNL     1      -0.017   1.378   0.010  0.00  0.00    +0.003 A 
ATOM     15  C   UNL     1       1.167   2.088   0.002  0.00  0.00    +0.009 A 
ATOM     16  C   UNL     1       2.384   1.409  -0.013  0.00  0.00    -0.012 A 
ATOM     17  C   UNL     1       2.400   0.016  -0.021  0.00  0.00    +0.047 A 
ATOM     18  C   UNL     1       1.209  -0.685  -0.013  0.00  0.00    +0.124 A 
ATOM     19  C   UNL     1       0.002  -0.004   0.002  0.00  0.00    +0.038 A 
ATOM     20  F   UNL     1       1.221  -2.036  -0.021  0.00  0.00    -0.205 F 
ENDBRANCH   8  16
BRANCH  11  21
ATOM     21  C   UNL     1       7.256   4.307  -0.046  0.00  0.00    +0.452 C 
ATOM     22  F   UNL     1       7.096   5.481  -0.790  0.00  0.00    -0.163 F 
ATOM     23  F   UNL     1       7.614   4.633   1.266  0.00  0.00    -0.163 F 
ATOM     24  F   UNL     1       8.261   3.523  -0.623  0.00  0.00    -0.163 F 
ENDBRANCH  11  21
ENDBRANCH   1  13
BRANCH   4  25
ATOM     25  C   UNL     1       5.561  -1.817   5.117  0.00  0.00    -0.063 C 
BRANCH  25  26
ATOM     26  C   UNL     1       6.756  -2.757   4.946  0.00  0.00    +0.066 C 
ATOM     27  C   UNL     1       8.049  -2.047   5.295  0.00  0.00    +0.115 C 
ATOM     28  N   UNL     1       8.555  -2.693   6.295  0.00  0.00    -0.161 NA
ATOM     29  N   UNL     1       7.768  -3.771   6.686  0.00  0.00    -0.153 NA
ATOM     30  C   UNL     1       6.692  -3.891   5.951  0.00  0.00    +0.077 C 
BRANCH  30  31
ATOM     31  C   UNL     1       5.637  -4.909   6.074  0.00  0.00    -0.001 A 
ATOM     32  C   UNL     1       4.545  -4.898   5.200  0.00  0.00    +0.012 A 
ATOM     33  C   UNL     1       3.561  -5.856   5.321  0.00  0.00    +0.039 A 
ATOM     34  C   UNL     1       3.652  -6.828   6.305  0.00  0.00    +0.123 A 
ATOM     35  C   UNL     1       4.732  -6.844   7.175  0.00  0.00    +0.039 A 
ATOM     36  C   UNL     1       5.726  -5.896   7.062  0.00  0.00    +0.012 A 
ATOM     37  F   UNL     1       2.683  -7.763   6.418  0.00  0.00    -0.205 F 
ENDBRANCH  30  31
ENDBRANCH  25  26
ENDBRANCH   4  25
TORSDOF 6
