REMARK  Name = ZINC33834184
REMARK  10 active torsions:
REMARK  status: ('A' for Active; 'I' for Inactive)
REMARK    1  A    between atoms: C_1  and  C_2
REMARK    2  A    between atoms: C_5  and  C_36
REMARK    3  A    between atoms: N_8  and  C_10
REMARK    4  A    between atoms: C_10  and  C_12
REMARK    5  A    between atoms: C_10  and  C_24
REMARK    6  A    between atoms: C_17  and  N_18
REMARK    7  A    between atoms: N_26  and  C_27
REMARK    8  A    between atoms: C_30  and  C_33
REMARK    9  A    between atoms: C_33  and  C_34
REMARK   10  A    between atoms: C_33  and  C_35
REMARK                            x       y       z     vdW  Elec       q    Type
REMARK                         _______ _______ _______ _____ _____    ______ ____
ROOT
ATOM      1  C   UNL     1      -0.033   1.137  -0.085  0.00  0.00    +0.053 C 
ENDROOT
BRANCH   1   7
ATOM      2  C   UNL     1       2.330   4.305   1.364  0.00  0.00    +0.005 C 
ATOM      3  C   UNL     1       1.569   4.541   0.058  0.00  0.00    -0.031 C 
ATOM      4  C   UNL     1       2.529   4.398  -1.126  0.00  0.00    +0.003 C 
ATOM      5  C   UNL     1       3.077   2.968  -1.158  0.00  0.00    -0.031 C 
ATOM      6  C   UNL     1       1.911   1.982  -1.255  0.00  0.00    -0.074 C 
ATOM      7  N   UNL     1       1.022   2.159  -0.099  0.00  0.00    +0.390 N 
ATOM      8  C   UNL     1       0.447   3.509  -0.073  0.00  0.00    -0.074 C 
ATOM      9  C   UNL     1       3.991   2.799  -2.374  0.00  0.00    +0.005 C 
ATOM     10  H   UNL     1       1.627   2.035   0.811  0.00  0.00    -0.080 HD
ENDBRANCH   1   7
BRANCH   1  11
ATOM     11  C   UNL     1      -0.991   1.419   1.043  0.00  0.00    -0.018 A 
ATOM     12  C   UNL     1      -2.222   1.991   0.775  0.00  0.00    +0.054 A 
ATOM     13  C   UNL     1      -3.106   2.248   1.810  0.00  0.00    +0.167 A 
ATOM     14  C   UNL     1      -2.749   1.938   3.120  0.00  0.00    +0.168 A 
ATOM     15  C   UNL     1      -1.513   1.371   3.381  0.00  0.00    +0.082 A 
ATOM     16  C   UNL     1      -0.637   1.113   2.343  0.00  0.00    +0.132 A 
ATOM     17  O   UNL     1      -3.777   2.288   3.947  0.00  0.00    -0.453 OA
ATOM     18  C   UNL     1      -4.925   2.436   3.091  0.00  0.00    +0.466 C 
ATOM     19  O   UNL     1      -4.358   2.791   1.816  0.00  0.00    -0.453 OA
BRANCH  16  20
ATOM     20  N   UNL     1       0.684   0.506   2.624  0.00  0.00    +0.057 N 
ATOM     21  O   UNL     1       0.955   0.132   3.752  0.00  0.00    -0.126 OA
ATOM     22  O   UNL     1       1.500   0.382   1.729  0.00  0.00    -0.126 OA
ENDBRANCH  16  20
ENDBRANCH   1  11
BRANCH   1  23
ATOM     23  C   UNL     1      -0.776   1.164  -1.395  0.00  0.00    +0.208 C 
ATOM     24  O   UNL     1      -0.692   2.133  -2.120  0.00  0.00    -0.277 OA
ATOM     25  N   UNL     1      -1.535   0.112  -1.762  0.00  0.00    -0.287 N 
ATOM     26  H   UNL     1      -1.639  -0.752  -1.089  0.00  0.00    +0.155 HD
BRANCH  25  27
ATOM     27  C   UNL     1      -2.191   0.119  -2.998  0.00  0.00    +0.033 A 
ATOM     28  C   UNL     1      -1.681   0.867  -4.052  0.00  0.00    +0.023 A 
ATOM     29  C   UNL     1      -2.328   0.868  -5.272  0.00  0.00    +0.006 A 
ATOM     30  C   UNL     1      -3.487   0.134  -5.442  0.00  0.00    -0.045 A 
ATOM     31  C   UNL     1      -4.000  -0.607  -4.394  0.00  0.00    +0.006 A 
ATOM     32  C   UNL     1      -3.355  -0.616  -3.172  0.00  0.00    +0.023 A 
BRANCH  30  33
ATOM     33  C   UNL     1      -4.193   0.142  -6.774  0.00  0.00    +0.013 C 
ATOM     34  C   UNL     1      -4.606   1.573  -7.124  0.00  0.00    +0.012 C 
ATOM     35  C   UNL     1      -3.252  -0.396  -7.854  0.00  0.00    +0.012 C 
ENDBRANCH  30  33
ENDBRANCH  25  27
ENDBRANCH   1  23
TORSDOF 6
