REMARK  Name = ZINC36994754
REMARK  9 active torsions:
REMARK  status: ('A' for Active; 'I' for Inactive)
REMARK    1  A    between atoms: C_1  and  C_2
REMARK    2  A    between atoms: C_2  and  C_4
REMARK    3  A    between atoms: C_2  and  N_11
REMARK    4  A    between atoms: N_11  and  C_12
REMARK    5  A    between atoms: C_12  and  C_14
REMARK    6  A    between atoms: C_12  and  C_20
REMARK    7  A    between atoms: C_20  and  C_21
REMARK    8  A    between atoms: C_20  and  C_22
REMARK    9  A    between atoms: C_20  and  C_23
REMARK                            x       y       z     vdW  Elec       q    Type
REMARK                         _______ _______ _______ _____ _____    ______ ____
ROOT
ATOM      1  N   UNL     1       0.834  -0.517   1.237  0.00  0.00    +0.388 N 
ATOM      2  H   UNL     1       0.285   0.080   0.637  0.00  0.00    -0.084 HD
ATOM      3  H   UNL     1       0.560  -0.372   2.197  0.00  0.00    -0.084 HD
ENDROOT
BRANCH   1   5
ATOM      4  C   UNL     1       0.878  -2.108  -0.624  0.00  0.00    -0.009 C 
ATOM      5  C   UNL     1       0.607  -1.921   0.870  0.00  0.00    -0.043 C 
BRANCH   5   6
ATOM      6  C   UNL     1      -0.822  -2.295   1.172  0.00  0.00    -0.061 A 
ATOM      7  C   UNL     1      -1.841  -1.400   0.905  0.00  0.00    +0.002 A 
ATOM      8  C   UNL     1      -3.151  -1.742   1.182  0.00  0.00    +0.001 A 
ATOM      9  C   UNL     1      -3.443  -2.979   1.726  0.00  0.00    +0.015 A 
ATOM     10  C   UNL     1      -2.424  -3.874   1.993  0.00  0.00    +0.018 A 
ATOM     11  C   UNL     1      -1.113  -3.533   1.711  0.00  0.00    +0.017 A 
ATOM     12 BR   UNL     1      -2.822  -5.566   2.738  0.00  0.00    -0.050 Br
ENDBRANCH   5   6
ENDBRANCH   1   5
BRANCH   1  13
ATOM     13  C   UNL     1       2.258  -0.194   1.079  0.00  0.00    -0.035 C 
BRANCH  13  14
ATOM     14  C   UNL     1       3.066  -0.983   2.077  0.00  0.00    -0.061 A 
ATOM     15  C   UNL     1       2.592  -1.163   3.363  0.00  0.00    +0.002 A 
ATOM     16  C   UNL     1       3.333  -1.887   4.278  0.00  0.00    +0.000 A 
ATOM     17  C   UNL     1       4.548  -2.432   3.907  0.00  0.00    +0.000 A 
ATOM     18  C   UNL     1       5.022  -2.253   2.621  0.00  0.00    +0.000 A 
ATOM     19  C   UNL     1       4.279  -1.532   1.704  0.00  0.00    +0.002 A 
ENDBRANCH  13  14
BRANCH  13  20
ATOM     20  C   UNL     1       2.471   1.302   1.320  0.00  0.00    -0.046 C 
ATOM     21  C   UNL     1       1.895   1.687   2.684  0.00  0.00    +0.009 C 
ATOM     22  C   UNL     1       3.969   1.615   1.292  0.00  0.00    +0.009 C 
ATOM     23  C   UNL     1       1.763   2.101   0.223  0.00  0.00    +0.009 C 
ENDBRANCH  13  20
ENDBRANCH   1  13
TORSDOF 5
