REMARK  Name = ZINC12938914
REMARK  4 active torsions:
REMARK  status: ('A' for Active; 'I' for Inactive)
REMARK    1  A    between atoms: C_2  and  C_28
REMARK    2  A    between atoms: C_10  and  S_11
REMARK    3  A    between atoms: S_11  and  C_12
REMARK    4  A    between atoms: C_12  and  C_13
REMARK                            x       y       z     vdW  Elec       q    Type
REMARK                         _______ _______ _______ _____ _____    ______ ____
ROOT
ATOM      1  C   UNL     1       3.795   3.006  -0.193  0.00  0.00    +0.143 A 
ATOM      2  N   UNL     1       4.377   1.819  -0.200  0.00  0.00    -0.216 NA
ATOM      3  C   UNL     1       3.694   0.699  -0.031  0.00  0.00    +0.128 A 
ATOM      4  C   UNL     1       2.287   0.769   0.165  0.00  0.00    +0.051 A 
ATOM      5  C   UNL     1       1.337  -0.330   0.373  0.00  0.00    -0.025 A 
ATOM      6  C   UNL     1       0.042   0.011   0.531  0.00  0.00    -0.004 A 
ATOM      7  S   UNL     1       0.009   1.782   0.422  0.00  0.00    -0.073 S 
ATOM      8  C   UNL     1       1.739   2.066   0.159  0.00  0.00    +0.114 A 
ATOM      9  N   UNL     1       2.494   3.134  -0.017  0.00  0.00    -0.224 NA
ATOM     10  C   UNL     1      -1.127  -0.901   0.738  0.00  0.00    +0.043 C 
ATOM     11  C   UNL     1      -0.797  -1.906   1.850  0.00  0.00    +0.005 C 
ATOM     12  C   UNL     1      -0.148  -3.130   1.212  0.00  0.00    +0.001 C 
ATOM     13  C   UNL     1       0.675  -2.711  -0.004  0.00  0.00    +0.005 C 
ATOM     14  C   UNL     1       1.808  -1.781   0.413  0.00  0.00    +0.037 C 
ATOM     15  N   UNL     1       4.340  -0.525  -0.045  0.00  0.00    -0.343 N 
ATOM     16  H   UNL     1       5.169  -0.630  -0.537  0.00  0.00    +0.144 HD
ATOM     17  H   UNL     1       3.963  -1.278   0.436  0.00  0.00    +0.144 HD
ENDROOT
BRANCH   1  18
ATOM     18  C   UNL     1       4.636   4.240  -0.392  0.00  0.00    +0.153 C 
BRANCH  18  19
ATOM     19  S   UNL     1       4.734   4.627  -2.161  0.00  0.00    -0.078 S 
BRANCH  19  29
ATOM     20  C   UNL     1       7.170   8.516  -5.180  0.00  0.00    +0.037 A 
ATOM     21  C   UNL     1       6.375   7.431  -5.592  0.00  0.00    +0.073 A 
ATOM     22  C   UNL     1       5.861   6.576  -4.684  0.00  0.00    +0.107 A 
ATOM     23  N   UNL     1       6.106   6.752  -3.350  0.00  0.00    -0.276 N 
ATOM     24  C   UNL     1       6.879   7.808  -2.916  0.00  0.00    +0.180 A 
ATOM     25  C   UNL     1       7.418   8.710  -3.856  0.00  0.00    +0.086 A 
ATOM     26 CL   UNL     1       8.399  10.043  -3.333  0.00  0.00    -0.080 Cl
ATOM     27  N   UNL     1       6.945   7.719  -1.600  0.00  0.00    -0.127 NA
ATOM     28  N   UNL     1       6.272   6.698  -1.200  0.00  0.00    -0.122 NA
ATOM     29  C   UNL     1       5.737   6.075  -2.226  0.00  0.00    +0.196 A 
BRANCH  21  30
ATOM     30  C   UNL     1       6.096   7.221  -7.058  0.00  0.00    +0.419 C 
ATOM     31  F   UNL     1       4.931   7.909  -7.414  0.00  0.00    -0.166 F 
ATOM     32  F   UNL     1       7.172   7.705  -7.811  0.00  0.00    -0.166 F 
ATOM     33  F   UNL     1       5.927   5.856  -7.310  0.00  0.00    -0.166 F 
ENDBRANCH  21  30
ENDBRANCH  19  29
ENDBRANCH  18  19
ENDBRANCH   1  18
TORSDOF 4
