REMARK  Name = ZINC59742102
REMARK  6 active torsions:
REMARK  status: ('A' for Active; 'I' for Inactive)
REMARK    1  A    between atoms: C_4  and  O_29
REMARK    2  A    between atoms: C_5  and  C_7
REMARK    3  A    between atoms: C_13  and  C_16
REMARK    4  A    between atoms: N_18  and  C_19
REMARK    5  A    between atoms: C_21  and  N_26
REMARK    6  A    between atoms: O_29  and  C_30
REMARK                            x       y       z     vdW  Elec       q    Type
REMARK                         _______ _______ _______ _____ _____    ______ ____
ROOT
ATOM      1  C   UNL     1       1.256  -2.173  -0.076  0.00  0.00    +0.250 C 
ATOM      2  O   UNL     1       1.235  -0.961   0.018  0.00  0.00    -0.270 OA
ATOM      3  N   UNL     1       0.102  -2.862  -0.160  0.00  0.00    -0.297 N 
ATOM      4  C   UNL     1      -1.184  -2.159  -0.264  0.00  0.00    +0.108 C 
ATOM      5  C   UNL     1      -2.117  -2.670   0.839  0.00  0.00    +0.020 C 
ATOM      6  C   UNL     1      -2.224  -4.194   0.745  0.00  0.00    +0.016 C 
ATOM      7  C   UNL     1      -0.843  -4.818   0.953  0.00  0.00    +0.093 C 
ATOM      8  C   UNL     1       0.105  -4.332  -0.155  0.00  0.00    +0.120 C 
ENDROOT
BRANCH   1  13
ATOM      9  C   UNL     1       4.052  -4.431  -1.159  0.00  0.00    +0.001 A 
ATOM     10  C   UNL     1       4.971  -4.236  -0.140  0.00  0.00    +0.004 A 
ATOM     11  C   UNL     1       4.688  -3.373   0.899  0.00  0.00    +0.046 A 
ATOM     12  C   UNL     1       3.478  -2.694   0.930  0.00  0.00    +0.139 A 
ATOM     13  C   UNL     1       2.546  -2.889  -0.098  0.00  0.00    +0.079 A 
ATOM     14  C   UNL     1       2.845  -3.765  -1.144  0.00  0.00    +0.017 A 
BRANCH  12  15
ATOM     15  O   UNL     1       3.199  -1.846   1.951  0.00  0.00    -0.433 OA
BRANCH  15  16
ATOM     16  C   UNL     1       4.196  -1.698   2.964  0.00  0.00    +0.541 C 
ATOM     17  F   UNL     1       4.441  -2.939   3.562  0.00  0.00    -0.166 F 
ATOM     18  F   UNL     1       5.377  -1.217   2.388  0.00  0.00    -0.166 F 
ENDBRANCH  15  16
ENDBRANCH  12  15
ENDBRANCH   1  13
BRANCH   7  19
ATOM     19  C   UNL     1      -0.955  -6.320   0.893  0.00  0.00    +0.222 C 
ATOM     20  O   UNL     1      -2.034  -6.840   0.703  0.00  0.00    -0.275 OA
ATOM     21  N   UNL     1       0.144  -7.085   1.051  0.00  0.00    -0.283 N 
ATOM     22  H   UNL     1       0.991  -6.674   1.285  0.00  0.00    +0.155 HD
BRANCH  21  23
ATOM     23  C   UNL     1       0.062  -8.472   0.877  0.00  0.00    +0.071 A 
ATOM     24  C   UNL     1      -0.934  -9.015   0.076  0.00  0.00    +0.059 A 
ATOM     25  C   UNL     1      -1.012 -10.384  -0.094  0.00  0.00    +0.128 A 
ATOM     26  C   UNL     1      -0.099 -11.214   0.532  0.00  0.00    +0.035 A 
ATOM     27  C   UNL     1       0.894 -10.678   1.330  0.00  0.00    +0.042 A 
ATOM     28  C   UNL     1       0.982  -9.308   1.500  0.00  0.00    +0.145 A 
ATOM     29  F   UNL     1       1.956  -8.783   2.276  0.00  0.00    -0.204 F 
BRANCH  25  30
ATOM     30  N   UNL     1      -2.074 -10.963  -0.947  0.00  0.00    +0.056 N 
ATOM     31  O   UNL     1      -2.872 -10.239  -1.494  0.00  0.00    -0.126 OA
ATOM     32  O   UNL     1      -2.143 -12.161  -1.096  0.00  0.00    -0.126 OA
ENDBRANCH  25  30
ENDBRANCH  21  23
ENDBRANCH   7  19
TORSDOF 6
