REMARK  Name = ZINC65229093
REMARK  3 active torsions:
REMARK  status: ('A' for Active; 'I' for Inactive)
REMARK    1  A    between atoms: C_6  and  N_7
REMARK    2  A    between atoms: C_10  and  N_14
REMARK    3  A    between atoms: N_17  and  C_18
REMARK                            x       y       z     vdW  Elec       q    Type
REMARK                         _______ _______ _______ _____ _____    ______ ____
ROOT
ATOM      1  N   UNL     1      -4.107  -1.265  -1.229  0.00  0.00    -0.288 N 
ATOM      2  C   UNL     1      -5.207  -0.524  -1.472  0.00  0.00    +0.305 C 
ATOM      3  O   UNL     1      -5.646   0.212  -0.611  0.00  0.00    -0.252 OA
ATOM      4  N   UNL     1      -5.818  -0.600  -2.671  0.00  0.00    -0.267 N 
ATOM      5  H   UNL     1      -3.757  -1.853  -1.917  0.00  0.00    +0.151 HD
ATOM      6  H   UNL     1      -5.520  -1.248  -3.328  0.00  0.00    +0.156 HD
ENDROOT
BRANCH   4   7
ATOM      7  C   UNL     1      -6.886   0.259  -2.968  0.00  0.00    +0.070 A 
ATOM      8  C   UNL     1      -6.903   1.549  -2.458  0.00  0.00    +0.029 A 
ATOM      9  C   UNL     1      -7.956   2.394  -2.752  0.00  0.00    +0.040 A 
ATOM     10  C   UNL     1      -8.996   1.954  -3.554  0.00  0.00    +0.126 A 
ATOM     11  C   UNL     1      -8.983   0.667  -4.064  0.00  0.00    +0.078 A 
ATOM     12  C   UNL     1      -7.928  -0.180  -3.778  0.00  0.00    +0.147 A 
ATOM     13  F   UNL     1      -7.912  -1.434  -4.280  0.00  0.00    -0.203 F 
ATOM     14  F   UNL     1     -10.024   2.782  -3.840  0.00  0.00    -0.205 F 
ENDBRANCH   4   7
BRANCH   1  18
ATOM     15  N   UNL     1      -1.162  -0.656  -0.055  0.00  0.00    -0.270 N 
ATOM     16  C   UNL     1      -1.245  -2.119  -0.145  0.00  0.00    +0.116 C 
ATOM     17  C   UNL     1      -2.657  -2.484   0.363  0.00  0.00    +0.051 C 
ATOM     18  C   UNL     1      -3.442  -1.183   0.074  0.00  0.00    +0.162 C 
ATOM     19  C   UNL     1      -2.382  -0.105   0.069  0.00  0.00    +0.240 C 
ATOM     20  O   UNL     1      -2.600   1.085   0.161  0.00  0.00    -0.273 OA
BRANCH  15  26
ATOM     21  C   UNL     1       0.004   1.459  -0.108  0.00  0.00    +0.026 A 
ATOM     22  C   UNL     1       1.185   2.174  -0.140  0.00  0.00    +0.040 A 
ATOM     23  C   UNL     1       2.399   1.508  -0.152  0.00  0.00    +0.124 A 
ATOM     24  C   UNL     1       2.431   0.124  -0.132  0.00  0.00    +0.040 A 
ATOM     25  C   UNL     1       1.253  -0.595  -0.100  0.00  0.00    +0.026 A 
ATOM     26  C   UNL     1       0.034   0.071  -0.088  0.00  0.00    +0.036 A 
ATOM     27  F   UNL     1       3.553   2.209  -0.183  0.00  0.00    -0.205 F 
ENDBRANCH  15  26
ENDBRANCH   1  18
TORSDOF 3
