REMARK  Name = ZINC03628242
REMARK  13 active torsions:
REMARK  status: ('A' for Active; 'I' for Inactive)
REMARK    1  A    between atoms: C_1  and  C_2
REMARK    2  A    between atoms: C_2  and  O_3
REMARK    3  A    between atoms: O_3  and  C_4
REMARK    4  A    between atoms: C_4  and  C_6
REMARK    5  A    between atoms: C_7  and  C_34
REMARK    6  A    between atoms: N_8  and  C_27
REMARK    7  A    between atoms: C_12  and  O_15
REMARK    8  A    between atoms: O_15  and  C_16
REMARK    9  A    between atoms: C_16  and  C_17
REMARK   10  A    between atoms: C_17  and  C_19
REMARK   11  A    between atoms: C_17  and  O_26
REMARK   12  A    between atoms: C_19  and  N_70
REMARK   13  A    between atoms: C_30  and  C_33
REMARK                            x       y       z     vdW  Elec       q    Type
REMARK                         _______ _______ _______ _____ _____    ______ ____
ROOT
ATOM      1  C   UNL     1     -10.349   9.029  -0.184  0.00  0.00    +0.088 A 
ATOM      2  C   UNL     1     -11.617   8.751  -0.606  0.00  0.00    +0.036 A 
ATOM      3  N   UNL     1     -11.656   7.512  -1.155  0.00  0.00    -0.312 N 
ATOM      4  C   UNL     1     -10.404   6.926  -1.112  0.00  0.00    +0.055 A 
ATOM      5  C   UNL     1      -9.531   7.844  -0.505  0.00  0.00    +0.018 A 
ATOM      6  C   UNL     1      -8.189   7.520  -0.327  0.00  0.00    +0.056 A 
ATOM      7  C   UNL     1      -7.721   6.290  -0.751  0.00  0.00    +0.121 A 
ATOM      8  C   UNL     1      -8.585   5.384  -1.357  0.00  0.00    +0.048 A 
ATOM      9  C   UNL     1      -9.916   5.694  -1.532  0.00  0.00    +0.030 A 
ATOM     10  C   UNL     1     -12.796   9.681  -0.481  0.00  0.00    +0.065 C 
ENDROOT
BRANCH   3  11
ATOM     11  C   UNL     1     -12.802   6.909  -1.689  0.00  0.00    +0.047 A 
ATOM     12  C   UNL     1     -13.329   5.769  -1.097  0.00  0.00    +0.026 A 
ATOM     13  C   UNL     1     -14.462   5.180  -1.623  0.00  0.00    +0.005 A 
ATOM     14  C   UNL     1     -15.066   5.719  -2.744  0.00  0.00    -0.050 A 
ATOM     15  C   UNL     1     -14.541   6.852  -3.339  0.00  0.00    +0.005 A 
ATOM     16  C   UNL     1     -13.411   7.448  -2.814  0.00  0.00    +0.026 A 
ATOM     17  C   UNL     1     -16.299   5.071  -3.319  0.00  0.00    +0.044 C 
ENDBRANCH   3  11
BRANCH   1  18
ATOM     18  C   UNL     1      -9.890  10.263   0.463  0.00  0.00    +0.342 C 
ATOM     19  O   UNL     1      -9.476  11.185  -0.212  0.00  0.00    -0.245 OA
BRANCH  18  20
ATOM     20  O   UNL     1      -9.928  10.374   1.806  0.00  0.00    -0.461 OA
BRANCH  20  22
ATOM     21  C   UNL     1      -9.577  11.564   3.902  0.00  0.00    +0.048 C 
ATOM     22  C   UNL     1      -9.459  11.624   2.378  0.00  0.00    +0.229 C 
ENDBRANCH  20  22
ENDBRANCH  18  20
ENDBRANCH   1  18
BRANCH   7  23
ATOM     23  O   UNL     1      -6.411   5.968  -0.580  0.00  0.00    -0.489 OA
BRANCH  23  24
ATOM     24  C   UNL     1      -5.994   4.681  -1.041  0.00  0.00    +0.258 C 
BRANCH  24  25
ATOM     25  C   UNL     1      -4.500   4.500  -0.764  0.00  0.00    +0.135 C 
BRANCH  25  26
ATOM     26  O   UNL     1      -3.755   5.439  -1.541  0.00  0.00    -0.390 OA
ATOM     27  H   UNL     1      -3.881   5.349  -2.495  0.00  0.00    +0.210 HD
ENDBRANCH  25  26
BRANCH  25  28
ATOM     28  C   UNL     1      -4.080   3.078  -1.143  0.00  0.00    -0.044 C 
BRANCH  28  35
ATOM     29  C   UNL     1      -2.121   1.711  -1.572  0.00  0.00    -0.079 C 
ATOM     30  C   UNL     1      -0.669   1.960  -1.895  0.00  0.00    -0.019 C 
ATOM     31  C   UNL     1       0.260   1.376  -0.817  0.00  0.00    -0.002 C 
ATOM     32  C   UNL     1      -0.288   1.615   0.605  0.00  0.00    -0.002 C 
ATOM     33  C   UNL     1      -0.863   2.997   0.780  0.00  0.00    -0.019 C 
ATOM     34  C   UNL     1      -2.380   2.950   0.492  0.00  0.00    -0.079 C 
ATOM     35  N   UNL     1      -2.631   2.950  -0.905  0.00  0.00    +0.381 N 
ATOM     36  H   UNL     1      -2.153   3.760  -1.318  0.00  0.00    -0.082 HD
ENDBRANCH  28  35
ENDBRANCH  25  28
ENDBRANCH  24  25
ENDBRANCH  23  24
ENDBRANCH   7  23
TORSDOF 10
