REMARK  Name = ZINC36703158
REMARK  13 active torsions:
REMARK  status: ('A' for Active; 'I' for Inactive)
REMARK    1  A    between atoms: C_1  and  C_2
REMARK    2  A    between atoms: C_2  and  N_3
REMARK    3  A    between atoms: N_3  and  C_4
REMARK    4  A    between atoms: N_3  and  C_6
REMARK    5  A    between atoms: C_4  and  C_5
REMARK    6  A    between atoms: C_6  and  C_8
REMARK    7  A    between atoms: C_6  and  C_30
REMARK    8  A    between atoms: C_8  and  N_9
REMARK    9  A    between atoms: C_10  and  C_12
REMARK   10  A    between atoms: C_17  and  O_18
REMARK   11  A    between atoms: O_18  and  C_19
REMARK   12  A    between atoms: C_19  and  C_20
REMARK   13  A    between atoms: N_22  and  C_23
REMARK                            x       y       z     vdW  Elec       q    Type
REMARK                         _______ _______ _______ _____ _____    ______ ____
ROOT
ATOM      1  C   UNL     1       2.636   2.790   0.300  0.00  0.00    +0.078 A 
ATOM      2  C   UNL     1       1.835   2.602   1.429  0.00  0.00    +0.017 A 
ATOM      3  C   UNL     1       1.978   3.433   2.518  0.00  0.00    +0.001 A 
ATOM      4  C   UNL     1       2.913   4.455   2.501  0.00  0.00    +0.004 A 
ATOM      5  C   UNL     1       3.711   4.651   1.392  0.00  0.00    +0.046 A 
ATOM      6  C   UNL     1       3.584   3.821   0.288  0.00  0.00    +0.133 A 
ENDROOT
BRANCH   1   8
ATOM      7  N   UNL     1       1.507   0.980  -0.898  0.00  0.00    -0.312 N 
ATOM      8  C   UNL     1       2.489   1.904  -0.871  0.00  0.00    +0.248 C 
ATOM      9  O   UNL     1       3.253   2.006  -1.811  0.00  0.00    -0.270 OA
ATOM     10  H   UNL     1       0.852   0.948  -0.183  0.00  0.00    +0.149 HD
BRANCH   7  11
ATOM     11  C   UNL     1       1.429   0.026  -2.007  0.00  0.00    +0.094 C 
BRANCH  11  12
ATOM     12  C   UNL     1       0.163  -0.821  -1.863  0.00  0.00    -0.020 C 
BRANCH  12  13
ATOM     13  C   UNL     1       0.147  -1.885  -2.929  0.00  0.00    -0.059 A 
ATOM     14  C   UNL     1       1.335  -2.335  -3.474  0.00  0.00    +0.002 A 
ATOM     15  C   UNL     1       1.320  -3.312  -4.453  0.00  0.00    +0.000 A 
ATOM     16  C   UNL     1       0.117  -3.838  -4.886  0.00  0.00    +0.000 A 
ATOM     17  C   UNL     1      -1.071  -3.389  -4.340  0.00  0.00    +0.000 A 
ATOM     18  C   UNL     1      -1.056  -2.415  -3.359  0.00  0.00    +0.002 A 
ENDBRANCH  12  13
BRANCH  12  19
ATOM     19  N   UNL     1       0.146  -1.454  -0.538  0.00  0.00    +0.385 N 
ATOM     20  H   UNL     1       0.226  -0.745   0.175  0.00  0.00    -0.081 HD
BRANCH  19  22
ATOM     21  C   UNL     1      -2.277  -1.191  -0.294  0.00  0.00    -0.017 C 
ATOM     22  C   UNL     1      -1.116  -2.186  -0.361  0.00  0.00    -0.081 C 
ENDBRANCH  19  22
BRANCH  19  23
ATOM     23  C   UNL     1       1.273  -2.390  -0.428  0.00  0.00    -0.081 C 
ATOM     24  C   UNL     1       2.501  -1.648   0.105  0.00  0.00    -0.017 C 
ENDBRANCH  19  23
ENDBRANCH  12  19
ENDBRANCH  11  12
ENDBRANCH   7  11
ENDBRANCH   1   8
BRANCH   6  25
ATOM     25  O   UNL     1       4.372   4.010  -0.801  0.00  0.00    -0.482 OA
BRANCH  25  26
ATOM     26  C   UNL     1       5.316   5.082  -0.741  0.00  0.00    +0.324 C 
BRANCH  26  27
ATOM     27  C   UNL     1       6.095   5.138  -2.029  0.00  0.00    +0.255 C 
ATOM     28  O   UNL     1       5.864   4.339  -2.913  0.00  0.00    -0.272 OA
ATOM     29  N   UNL     1       7.048   6.075  -2.201  0.00  0.00    -0.280 N 
ATOM     30  H   UNL     1       7.287   6.663  -1.467  0.00  0.00    +0.155 HD
BRANCH  29  31
ATOM     31  C   UNL     1       7.692   6.201  -3.437  0.00  0.00    +0.069 A 
ATOM     32  C   UNL     1       7.070   5.754  -4.595  0.00  0.00    +0.026 A 
ATOM     33  C   UNL     1       7.708   5.879  -5.814  0.00  0.00    +0.002 A 
ATOM     34  C   UNL     1       8.966   6.449  -5.883  0.00  0.00    +0.003 A 
ATOM     35  C   UNL     1       9.590   6.896  -4.733  0.00  0.00    +0.040 A 
ATOM     36  C   UNL     1       8.955   6.779  -3.510  0.00  0.00    +0.144 A 
ATOM     37  F   UNL     1       9.562   7.220  -2.387  0.00  0.00    -0.204 F 
ENDBRANCH  29  31
ENDBRANCH  26  27
ENDBRANCH  25  26
ENDBRANCH   6  25
TORSDOF 11
