REMARK  Name = ZINC39844050
REMARK  8 active torsions:
REMARK  status: ('A' for Active; 'I' for Inactive)
REMARK    1  A    between atoms: C_1  and  C_2
REMARK    2  A    between atoms: C_5  and  C_8
REMARK    3  A    between atoms: C_8  and  N_9
REMARK    4  A    between atoms: N_9  and  C_10
REMARK    5  A    between atoms: C_11  and  S_22
REMARK    6  A    between atoms: C_13  and  C_15
REMARK    7  A    between atoms: C_18  and  C_21
REMARK    8  A    between atoms: S_22  and  C_25
REMARK                            x       y       z     vdW  Elec       q    Type
REMARK                         _______ _______ _______ _____ _____    ______ ____
ROOT
ATOM      1  C   UNL     1       1.718  -6.109  -0.041  0.00  0.00    +0.233 A 
ATOM      2  C   UNL     1       2.945  -6.686  -0.045  0.00  0.00    +0.243 A 
ATOM      3  N   UNL     1       2.772  -8.016  -0.053  0.00  0.00    -0.188 NA
ATOM      4  C   UNL     1       1.486  -8.273  -0.054  0.00  0.00    +0.231 A 
ATOM      5  O   UNL     1       0.811  -7.107  -0.041  0.00  0.00    -0.420 OA
ENDROOT
BRANCH   4   6
ATOM      6  C   UNL     1       0.877  -9.619  -0.061  0.00  0.00    +0.037 A 
ATOM      7  C   UNL     1       1.688 -10.755  -0.063  0.00  0.00    +0.013 A 
ATOM      8  C   UNL     1       1.113 -12.009  -0.070  0.00  0.00    +0.004 A 
ATOM      9  C   UNL     1      -0.264 -12.142  -0.076  0.00  0.00    -0.050 A 
ATOM     10  C   UNL     1      -1.074 -11.020  -0.075  0.00  0.00    +0.004 A 
ATOM     11  C   UNL     1      -0.512  -9.761  -0.061  0.00  0.00    +0.013 A 
ATOM     12  C   UNL     1      -0.885 -13.515  -0.085  0.00  0.00    +0.044 C 
ENDBRANCH   4   6
BRANCH   2  13
ATOM     13  S   UNL     1       4.491  -5.840  -0.041  0.00  0.00    +0.047 S 
ATOM     14  O   UNL     1       5.445  -6.734  -0.598  0.00  0.00    -0.163 OA
ATOM     15  O   UNL     1       4.249  -4.549  -0.584  0.00  0.00    -0.163 OA
BRANCH  13  16
ATOM     16  C   UNL     1       4.949  -5.600   1.643  0.00  0.00    +0.095 A 
ATOM     17  C   UNL     1       4.549  -4.458   2.312  0.00  0.00    +0.028 A 
ATOM     18  C   UNL     1       4.908  -4.270   3.634  0.00  0.00    +0.017 A 
ATOM     19  C   UNL     1       5.668  -5.224   4.287  0.00  0.00    +0.018 A 
ATOM     20  C   UNL     1       6.068  -6.366   3.617  0.00  0.00    +0.017 A 
ATOM     21  C   UNL     1       5.704  -6.556   2.297  0.00  0.00    +0.028 A 
ATOM     22 BR   UNL     1       6.159  -4.966   6.094  0.00  0.00    -0.050 Br
ENDBRANCH  13  16
ENDBRANCH   2  13
BRANCH   1  23
ATOM     23  N   UNL     1       1.447  -4.746  -0.032  0.00  0.00    -0.308 N 
ATOM     24  H   UNL     1       2.176  -4.106  -0.032  0.00  0.00    +0.149 HD
BRANCH  23  25
ATOM     25  C   UNL     1       0.059  -4.275  -0.021  0.00  0.00    +0.139 C 
BRANCH  25  30
ATOM     26  C   UNL     1      -0.018   1.503   0.010  0.00  0.00    +0.044 C 
ATOM     27  C   UNL     1       0.002  -0.004   0.002  0.00  0.00    -0.050 A 
ATOM     28  C   UNL     1       0.006  -0.689  -1.199  0.00  0.00    +0.003 A 
ATOM     29  C   UNL     1       0.025  -2.071  -1.206  0.00  0.00    +0.005 A 
ATOM     30  C   UNL     1       0.040  -2.768  -0.013  0.00  0.00    -0.030 A 
ATOM     31  C   UNL     1       0.037  -2.084   1.188  0.00  0.00    +0.005 A 
ATOM     32  C   UNL     1       0.023  -0.702   1.195  0.00  0.00    +0.003 A 
ENDBRANCH  25  30
ENDBRANCH  23  25
ENDBRANCH   1  23
TORSDOF 6
