REMARK  Name = ZINC40880002
REMARK  4 active torsions:
REMARK  status: ('A' for Active; 'I' for Inactive)
REMARK    1  A    between atoms: C_13  and  C_15
REMARK    2  A    between atoms: N_20  and  C_22
REMARK    3  A    between atoms: C_25  and  C_29
REMARK    4  A    between atoms: C_31  and  C_34
REMARK                            x       y       z     vdW  Elec       q    Type
REMARK                         _______ _______ _______ _____ _____    ______ ____
ROOT
ATOM      1  C   UNL     1      -0.032  -6.653   1.157  0.00  0.00    +0.092 C 
ATOM      2  C   UNL     1      -0.792  -6.392  -0.146  0.00  0.00    +0.016 C 
ATOM      3  C   UNL     1      -2.114  -7.163  -0.131  0.00  0.00    +0.020 C 
ATOM      4  C   UNL     1      -1.824  -8.664  -0.033  0.00  0.00    +0.105 C 
ATOM      5  N   UNL     1      -0.971  -8.905   1.140  0.00  0.00    -0.327 N 
ATOM      6  C   UNL     1       0.281  -8.148   1.271  0.00  0.00    +0.118 C 
ENDROOT
BRANCH   1  19
ATOM      7  C   UNL     1       0.343   0.781   4.387  0.00  0.00    +0.005 A 
ATOM      8  C   UNL     1       1.551   1.465   4.361  0.00  0.00    +0.018 A 
ATOM      9  C   UNL     1       2.697   0.798   3.977  0.00  0.00    +0.084 A 
ATOM     10  N   UNL     1       2.657  -0.476   3.636  0.00  0.00    -0.350 N 
ATOM     11  C   UNL     1       1.524  -1.163   3.647  0.00  0.00    +0.099 A 
ATOM     12  C   UNL     1       0.331  -0.554   4.024  0.00  0.00    +0.042 A 
ATOM     13  N   UNL     1       1.528  -2.503   3.280  0.00  0.00    -0.314 N 
ATOM     14  C   UNL     1       0.300  -3.306   3.370  0.00  0.00    +0.125 C 
ATOM     15  C   UNL     1       0.020  -3.929   1.997  0.00  0.00    +0.126 C 
ATOM     16  N   UNL     1       1.251  -4.568   1.511  0.00  0.00    -0.298 N 
ATOM     17  C   UNL     1       2.478  -3.765   1.421  0.00  0.00    +0.126 C 
ATOM     18  C   UNL     1       2.757  -3.141   2.789  0.00  0.00    +0.125 C 
ATOM     19  C   UNL     1       1.254  -5.868   1.155  0.00  0.00    +0.220 C 
ATOM     20  O   UNL     1       2.292  -6.406   0.833  0.00  0.00    -0.275 OA
ATOM     21  H   UNL     1       3.477  -0.921   3.370  0.00  0.00    +0.166 HD
ENDBRANCH   1  19
BRANCH   5  22
ATOM     22  C   UNL     1      -1.345  -9.836   2.111  0.00  0.00    +0.065 A 
ATOM     23  C   UNL     1      -0.941 -11.160   1.995  0.00  0.00    +0.027 A 
ATOM     24  C   UNL     1      -1.308 -12.081   2.953  0.00  0.00    +0.013 A 
ATOM     25  C   UNL     1      -2.085 -11.684   4.040  0.00  0.00    +0.025 A 
ATOM     26  C   UNL     1      -2.490 -10.354   4.156  0.00  0.00    +0.052 A 
ATOM     27  C   UNL     1      -2.116  -9.434   3.198  0.00  0.00    +0.145 A 
ATOM     28  F   UNL     1      -2.502  -8.145   3.313  0.00  0.00    -0.204 F 
BRANCH  25  29
ATOM     29  C   UNL     1      -2.482 -12.674   5.071  0.00  0.00    +0.202 A 
ATOM     30  N   UNL     1      -3.229 -12.415   6.156  0.00  0.00    -0.187 NA
ATOM     31  C   UNL     1      -3.392 -13.511   6.858  0.00  0.00    +0.259 A 
ATOM     32  O   UNL     1      -2.745 -14.511   6.235  0.00  0.00    -0.332 OA
ATOM     33  N   UNL     1      -2.164 -13.946   5.069  0.00  0.00    -0.056 NA
BRANCH  31  34
ATOM     34  C   UNL     1      -4.155 -13.626   8.121  0.00  0.00    +0.042 A 
ATOM     35  C   UNL     1      -4.795 -12.514   8.678  0.00  0.00    +0.033 A 
ATOM     36  C   UNL     1      -5.496 -12.666   9.857  0.00  0.00    +0.111 A 
ATOM     37  N   UNL     1      -5.567 -13.839  10.456  0.00  0.00    -0.263 NA
ATOM     38  C   UNL     1      -4.979 -14.912   9.965  0.00  0.00    +0.111 A 
ATOM     39  C   UNL     1      -4.262 -14.852   8.787  0.00  0.00    +0.033 A 
ENDBRANCH  31  34
ENDBRANCH  25  29
ENDBRANCH   5  22
TORSDOF 4
