REMARK  Name = ZINC14938736
REMARK  11 active torsions:
REMARK  status: ('A' for Active; 'I' for Inactive)
REMARK    1  A    between atoms: C_1  and  C_2
REMARK    2  A    between atoms: C_5  and  S_8
REMARK    3  A    between atoms: S_8  and  C_9
REMARK    4  A    between atoms: C_9  and  C_10
REMARK    5  A    between atoms: N_12  and  N_13
REMARK    6  A    between atoms: C_14  and  C_16
REMARK    7  A    between atoms: C_16  and  C_18
REMARK    8  A    between atoms: C_16  and  N_21
REMARK    9  A    between atoms: C_18  and  C_19
REMARK   10  A    between atoms: C_18  and  C_20
REMARK   11  A    between atoms: C_22  and  C_24
REMARK                            x       y       z     vdW  Elec       q    Type
REMARK                         _______ _______ _______ _____ _____    ______ ____
ROOT
ATOM      1  C   UNL     1      -2.478  -2.840   0.011  0.00  0.00    +0.163 C 
ENDROOT
BRANCH   1   3
ATOM      2  N   UNL     1      -1.202  -0.721   0.010  0.00  0.00    -0.233 N 
ATOM      3  C   UNL     1      -1.183  -2.069   0.002  0.00  0.00    +0.250 C 
ATOM      4  O   UNL     1      -0.125  -2.661  -0.011  0.00  0.00    -0.272 OA
ATOM      5  H   UNL     1      -2.048  -0.247   0.020  0.00  0.00    +0.173 HD
BRANCH   2   8
ATOM      6  C   UNL     1      -0.016   1.344   0.009  0.00  0.00    +0.239 C 
ATOM      7  O   UNL     1      -1.075   1.936   0.018  0.00  0.00    -0.273 OA
ATOM      8  N   UNL     1       0.002  -0.004   0.002  0.00  0.00    -0.234 N 
ATOM      9  H   UNL     1       0.849  -0.478  -0.009  0.00  0.00    +0.173 HD
BRANCH   6  10
ATOM     10  C   UNL     1       1.278   2.115   0.001  0.00  0.00    +0.171 C 
BRANCH  10  11
ATOM     11  S   UNL     1       0.923   3.893   0.014  0.00  0.00    -0.116 S 
BRANCH  11  16
ATOM     12  C   UNL     1       6.380   6.474  -0.023  0.00  0.00    +0.044 C 
ATOM     13  C   UNL     1       5.017   5.830  -0.014  0.00  0.00    -0.050 A 
ATOM     14  C   UNL     1       3.881   6.618   0.001  0.00  0.00    +0.004 A 
ATOM     15  C   UNL     1       2.631   6.032   0.009  0.00  0.00    +0.015 A 
ATOM     16  C   UNL     1       2.516   4.647   0.003  0.00  0.00    +0.008 A 
ATOM     17  C   UNL     1       3.659   3.857  -0.006  0.00  0.00    +0.015 A 
ATOM     18  C   UNL     1       4.906   4.451  -0.021  0.00  0.00    +0.004 A 
ENDBRANCH  11  16
ENDBRANCH  10  11
ENDBRANCH   6  10
ENDBRANCH   2   8
ENDBRANCH   1   3
BRANCH   1  19
ATOM     19  N   UNL     1      -2.191  -4.276   0.000  0.00  0.00    -0.303 N 
ATOM     20  C   UNL     1      -3.091  -5.147   0.497  0.00  0.00    +0.220 C 
ATOM     21  O   UNL     1      -4.139  -4.742   0.953  0.00  0.00    -0.275 OA
ATOM     22  H   UNL     1      -1.353  -4.601  -0.365  0.00  0.00    +0.149 HD
BRANCH  20  23
ATOM     23  C   UNL     1      -2.796  -6.625   0.486  0.00  0.00    +0.048 C 
ATOM     24  C   UNL     1      -1.529  -6.898   1.300  0.00  0.00    +0.019 C 
ATOM     25  C   UNL     1      -1.229  -8.398   1.289  0.00  0.00    -0.009 C 
ATOM     26  C   UNL     1      -2.405  -9.158   1.906  0.00  0.00    +0.007 C 
ATOM     27  C   UNL     1      -3.672  -8.885   1.092  0.00  0.00    -0.009 C 
ATOM     28  C   UNL     1      -3.972  -7.385   1.103  0.00  0.00    +0.019 C 
ATOM     29  C   UNL     1      -3.462  -9.353  -0.349  0.00  0.00    +0.007 C 
ATOM     30  C   UNL     1      -2.286  -8.593  -0.966  0.00  0.00    -0.009 C 
ATOM     31  C   UNL     1      -1.020  -8.866  -0.152  0.00  0.00    +0.007 C 
ATOM     32  C   UNL     1      -2.586  -7.093  -0.955  0.00  0.00    +0.019 C 
ENDBRANCH  20  23
ENDBRANCH   1  19
BRANCH   1  33
ATOM     33  C   UNL     1      -3.297  -2.474  -1.229  0.00  0.00    +0.012 C 
ATOM     34  C   UNL     1      -2.557  -2.939  -2.485  0.00  0.00    +0.009 C 
ATOM     35  C   UNL     1      -4.663  -3.161  -1.158  0.00  0.00    +0.009 C 
ENDBRANCH   1  33
TORSDOF 8
