REMARK  Name = ZINC40316881
REMARK  12 active torsions:
REMARK  status: ('A' for Active; 'I' for Inactive)
REMARK    1  A    between atoms: C_1  and  C_2
REMARK    2  A    between atoms: C_2  and  C_3
REMARK    3  A    between atoms: C_6  and  C_9
REMARK    4  A    between atoms: C_9  and  N_10
REMARK    5  A    between atoms: N_10  and  C_11
REMARK    6  A    between atoms: N_10  and  C_18
REMARK    7  A    between atoms: C_11  and  C_12
REMARK    8  A    between atoms: C_18  and  C_19
REMARK    9  A    between atoms: C_19  and  C_21
REMARK   10  A    between atoms: C_19  and  O_30
REMARK   11  A    between atoms: C_21  and  O_22
REMARK   12  A    between atoms: O_22  and  C_23
REMARK                            x       y       z     vdW  Elec       q    Type
REMARK                         _______ _______ _______ _____ _____    ______ ____
ROOT
ATOM      1  N   UNL     1       2.999  -0.656  -5.733  0.00  0.00    +0.386 N 
ATOM      2  H   UNL     1       2.077  -0.283  -5.563  0.00  0.00    -0.081 HD
ENDROOT
BRANCH   1   3
ATOM      3  C   UNL     1       3.077  -2.026  -5.208  0.00  0.00    -0.043 C 
BRANCH   3   7
ATOM      4  C   UNL     1       1.980  -2.037  -1.080  0.00  0.00    -0.048 A 
ATOM      5  C   UNL     1       1.002  -2.089  -2.055  0.00  0.00    +0.004 A 
ATOM      6  C   UNL     1       1.357  -2.085  -3.392  0.00  0.00    +0.002 A 
ATOM      7  C   UNL     1       2.690  -2.029  -3.752  0.00  0.00    -0.064 A 
ATOM      8  C   UNL     1       3.668  -1.977  -2.777  0.00  0.00    +0.002 A 
ATOM      9  C   UNL     1       3.313  -1.976  -1.441  0.00  0.00    +0.004 A 
BRANCH   4  11
ATOM     10  C   UNL     1       1.392  -0.602   0.855  0.00  0.00    +0.009 C 
ATOM     11  C   UNL     1       1.593  -2.042   0.376  0.00  0.00    +0.032 C 
ENDBRANCH   4  11
ENDBRANCH   3   7
ENDBRANCH   1   3
BRANCH   1  12
ATOM     12  C   UNL     1       3.999   0.184  -5.060  0.00  0.00    -0.046 C 
BRANCH  12  13
ATOM     13  C   UNL     1       5.403  -0.278  -5.456  0.00  0.00    +0.102 C 
ATOM     14  C   UNL     1       6.472   0.653  -4.831  0.00  0.00    +0.032 C 
ATOM     15  C   UNL     1       7.700  -0.297  -4.786  0.00  0.00    +0.030 C 
ATOM     16  C   UNL     1       7.045  -1.667  -4.509  0.00  0.00    +0.160 C 
ATOM     17  O   UNL     1       5.671  -1.580  -4.910  0.00  0.00    -0.378 OA
ENDBRANCH  12  13
ENDBRANCH   1  12
BRANCH   1  18
ATOM     18  C   UNL     1       3.263  -0.669  -7.178  0.00  0.00    -0.043 C 
BRANCH  18  19
ATOM     19  C   UNL     1       3.092   0.744  -7.740  0.00  0.00    +0.135 C 
BRANCH  19  20
ATOM     20  O   UNL     1       1.766   1.205  -7.476  0.00  0.00    -0.390 OA
ATOM     21  H   UNL     1       1.073   0.656  -7.868  0.00  0.00    +0.210 HD
ENDBRANCH  19  20
BRANCH  19  22
ATOM     22  C   UNL     1       3.333   0.724  -9.251  0.00  0.00    +0.258 C 
BRANCH  22  23
ATOM     23  O   UNL     1       3.289   2.059  -9.758  0.00  0.00    -0.489 OA
BRANCH  23  24
ATOM     24  C   UNL     1       3.486   2.219 -11.093  0.00  0.00    +0.121 A 
ATOM     25  C   UNL     1       3.711   1.113 -11.900  0.00  0.00    +0.047 A 
ATOM     26  C   UNL     1       3.910   1.277 -13.257  0.00  0.00    +0.019 A 
ATOM     27  C   UNL     1       3.886   2.544 -13.812  0.00  0.00    +0.018 A 
ATOM     28  C   UNL     1       3.662   3.649 -13.009  0.00  0.00    +0.019 A 
ATOM     29  C   UNL     1       3.456   3.488 -11.653  0.00  0.00    +0.047 A 
ATOM     30 BR   UNL     1       4.160   2.767 -15.669  0.00  0.00    -0.050 Br
ENDBRANCH  23  24
ENDBRANCH  22  23
ENDBRANCH  19  22
ENDBRANCH  18  19
ENDBRANCH   1  18
TORSDOF 11
