REMARK  Name = ZINC59147341
REMARK  6 active torsions:
REMARK  status: ('A' for Active; 'I' for Inactive)
REMARK    1  A    between atoms: C_5  and  C_7
REMARK    2  A    between atoms: C_7  and  N_8
REMARK    3  A    between atoms: N_16  and  N_17
REMARK    4  A    between atoms: C_18  and  C_20
REMARK    5  A    between atoms: C_20  and  C_21
REMARK    6  A    between atoms: C_24  and  N_27
REMARK                            x       y       z     vdW  Elec       q    Type
REMARK                         _______ _______ _______ _____ _____    ______ ____
ROOT
ATOM      1  N   UNL     1       1.502  -2.595   1.367  0.00  0.00    -0.261 N 
ATOM      2  C   UNL     1       2.729  -3.102   1.777  0.00  0.00    +0.046 A 
ATOM      3  C   UNL     1       3.967  -3.150   1.145  0.00  0.00    +0.024 A 
ATOM      4  C   UNL     1       5.050  -3.721   1.783  0.00  0.00    +0.002 A 
ATOM      5  C   UNL     1       4.919  -4.252   3.055  0.00  0.00    +0.001 A 
ATOM      6  C   UNL     1       3.698  -4.214   3.698  0.00  0.00    +0.012 A 
ATOM      7  C   UNL     1       2.602  -3.641   3.064  0.00  0.00    +0.028 A 
ATOM      8  C   UNL     1       1.188  -3.443   3.462  0.00  0.00    +0.153 C 
ATOM      9  N   UNL     1       0.620  -3.793   4.590  0.00  0.00    -0.175 NA
ATOM     10  C   UNL     1       0.561  -2.759   2.312  0.00  0.00    +0.272 C 
ATOM     11  O   UNL     1      -0.602  -2.410   2.235  0.00  0.00    -0.268 OA
ENDROOT
BRANCH   9  12
ATOM     12  N   UNL     1       1.397  -4.312   5.634  0.00  0.00    -0.206 N 
ATOM     13  C   UNL     1       0.801  -4.786   6.746  0.00  0.00    +0.237 C 
ATOM     14  O   UNL     1      -0.407  -4.764   6.843  0.00  0.00    -0.274 OA
ATOM     15  H   UNL     1       2.364  -4.329   5.557  0.00  0.00    +0.177 HD
BRANCH  13  16
ATOM     16  C   UNL     1       1.637  -5.343   7.870  0.00  0.00    +0.132 C 
BRANCH  16  17
ATOM     17  C   UNL     1       0.735  -5.802   8.986  0.00  0.00    -0.038 A 
ATOM     18  C   UNL     1       0.376  -4.923   9.991  0.00  0.00    +0.006 A 
ATOM     19  C   UNL     1      -0.451  -5.345  11.015  0.00  0.00    +0.033 A 
ATOM     20  C   UNL     1      -0.920  -6.645  11.034  0.00  0.00    +0.126 A 
ATOM     21  C   UNL     1      -0.562  -7.524  10.029  0.00  0.00    +0.033 A 
ATOM     22  C   UNL     1       0.262  -7.101   9.003  0.00  0.00    +0.006 A 
BRANCH  20  23
ATOM     23  N   UNL     1      -1.805  -7.096  12.132  0.00  0.00    +0.056 N 
ATOM     24  O   UNL     1      -2.118  -6.328  13.011  0.00  0.00    -0.126 OA
ATOM     25  O   UNL     1      -2.215  -8.234  12.149  0.00  0.00    -0.126 OA
ENDBRANCH  20  23
ENDBRANCH  16  17
ENDBRANCH  13  16
ENDBRANCH   9  12
BRANCH   1  26
ATOM     26  C   UNL     1       1.265  -1.955   0.070  0.00  0.00    +0.152 C 
BRANCH  26  31
ATOM     27  C   UNL     1       0.705   1.761   0.434  0.00  0.00    +0.000 A 
ATOM     28  C   UNL     1       2.000   2.242   0.395  0.00  0.00    +0.003 A 
ATOM     29  C   UNL     1       3.059   1.366   0.251  0.00  0.00    +0.038 A 
ATOM     30  C   UNL     1       2.822   0.005   0.146  0.00  0.00    +0.128 A 
ATOM     31  C   UNL     1       1.524  -0.475   0.185  0.00  0.00    +0.005 A 
ATOM     32  C   UNL     1       0.467   0.403   0.329  0.00  0.00    +0.008 A 
ATOM     33  F   UNL     1       3.857  -0.852   0.005  0.00  0.00    -0.205 F 
ENDBRANCH  26  31
ENDBRANCH   1  26
TORSDOF 6
