REMARK  Name = ZINC40570139
REMARK  14 active torsions:
REMARK  status: ('A' for Active; 'I' for Inactive)
REMARK    1  A    between atoms: C_1  and  C_2
REMARK    2  A    between atoms: C_2  and  C_3
REMARK    3  A    between atoms: C_2  and  O_4
REMARK    4  A    between atoms: O_4  and  C_5
REMARK    5  A    between atoms: C_5  and  C_7
REMARK    6  A    between atoms: C_8  and  N_33
REMARK    7  A    between atoms: C_10  and  C_21
REMARK    8  A    between atoms: N_18  and  C_20
REMARK    9  A    between atoms: C_23  and  O_31
REMARK   10  A    between atoms: C_24  and  O_29
REMARK   11  A    between atoms: C_26  and  O_27
REMARK   12  A    between atoms: O_27  and  C_28
REMARK   13  A    between atoms: O_29  and  C_30
REMARK   14  A    between atoms: O_31  and  C_32
REMARK                            x       y       z     vdW  Elec       q    Type
REMARK                         _______ _______ _______ _____ _____    ______ ____
ROOT
ATOM      1  C   UNL     1      -2.861  -2.233  -0.621  0.00  0.00    +0.119 A 
ATOM      2  C   UNL     1      -3.277  -3.424  -1.182  0.00  0.00    +0.056 A 
ATOM      3  C   UNL     1      -4.682  -3.778  -1.083  0.00  0.00    +0.037 A 
ATOM      4  C   UNL     1      -5.348  -4.939  -1.577  0.00  0.00    +0.000 A 
ATOM      5  C   UNL     1      -6.719  -5.077  -1.367  0.00  0.00    -0.034 A 
ATOM      6  C   UNL     1      -7.413  -4.097  -0.686  0.00  0.00    +0.043 A 
ATOM      7  N   UNL     1      -6.783  -3.023  -0.234  0.00  0.00    -0.244 NA
ATOM      8  C   UNL     1      -5.493  -2.842  -0.405  0.00  0.00    +0.112 A 
ATOM      9  S   UNL     1      -4.360  -1.558   0.066  0.00  0.00    -0.060 S 
ATOM     10  C   UNL     1      -8.895  -4.217  -0.434  0.00  0.00    +0.037 C 
ATOM     11  C   UNL     1      -9.493  -5.279  -1.357  0.00  0.00    -0.073 C 
ATOM     12  N   UNL     1      -8.695  -6.508  -1.235  0.00  0.00    +0.381 N 
ATOM     13  C   UNL     1      -7.405  -6.307  -1.901  0.00  0.00    -0.041 C 
ATOM     14  C   UNL     1      -9.409  -7.623  -1.873  0.00  0.00    -0.096 C 
ATOM     15  H   UNL     1      -8.543  -6.717  -0.260  0.00  0.00    -0.082 HD
ENDROOT
BRANCH   4  16
ATOM     16  C   UNL     1      -4.593  -5.983  -2.304  0.00  0.00    +0.028 A 
ATOM     17  C   UNL     1      -4.023  -7.049  -1.606  0.00  0.00    +0.061 A 
ATOM     18  C   UNL     1      -3.319  -8.022  -2.288  0.00  0.00    +0.162 A 
ATOM     19  C   UNL     1      -3.177  -7.940  -3.673  0.00  0.00    +0.165 A 
ATOM     20  C   UNL     1      -3.740  -6.884  -4.370  0.00  0.00    +0.095 A 
ATOM     21  C   UNL     1      -4.453  -5.908  -3.695  0.00  0.00    +0.131 A 
BRANCH  21  22
ATOM     22  O   UNL     1      -5.010  -4.875  -4.380  0.00  0.00    -0.494 OA
ATOM     23  C   UNL     1      -4.827  -4.863  -5.797  0.00  0.00    +0.277 C 
ENDBRANCH  21  22
BRANCH  19  24
ATOM     24  O   UNL     1      -2.482  -8.899  -4.340  0.00  0.00    -0.491 OA
ATOM     25  C   UNL     1      -2.374  -8.755  -5.758  0.00  0.00    +0.277 C 
ENDBRANCH  19  24
BRANCH  18  26
ATOM     26  O   UNL     1      -2.764  -9.062  -1.609  0.00  0.00    -0.491 OA
ATOM     27  C   UNL     1      -2.949  -9.083  -0.192  0.00  0.00    +0.277 C 
ENDBRANCH  18  26
ENDBRANCH   4  16
BRANCH   2  28
ATOM     28  N   UNL     1      -2.376  -4.261  -1.824  0.00  0.00    -0.356 N 
ATOM     29  H   UNL     1      -1.441  -4.013  -1.883  0.00  0.00    +0.142 HD
ATOM     30  H   UNL     1      -2.682  -5.095  -2.214  0.00  0.00    +0.142 HD
ENDBRANCH   2  28
BRANCH   1  31
ATOM     31  C   UNL     1      -1.559  -1.685  -0.594  0.00  0.00    +0.348 C 
ATOM     32  O   UNL     1      -0.636  -2.282  -1.116  0.00  0.00    -0.244 OA
BRANCH  31  33
ATOM     33  O   UNL     1      -1.339  -0.499   0.012  0.00  0.00    -0.458 OA
BRANCH  33  35
ATOM     34  C   UNL     1      -0.019   1.526   0.010  0.00  0.00    +0.052 C 
ATOM     35  C   UNL     1       0.002  -0.004   0.002  0.00  0.00    +0.171 C 
ATOM     36  C   UNL     1       0.742  -0.511   1.242  0.00  0.00    +0.052 C 
ENDBRANCH  33  35
ENDBRANCH  31  33
ENDBRANCH   1  31
TORSDOF 8
