REMARK  Name = ZINC36643281
REMARK  11 active torsions:
REMARK  status: ('A' for Active; 'I' for Inactive)
REMARK    1  A    between atoms: C_1  and  C_2
REMARK    2  A    between atoms: C_5  and  C_38
REMARK    3  A    between atoms: N_8  and  S_10
REMARK    4  A    between atoms: S_10  and  C_13
REMARK    5  A    between atoms: C_16  and  C_19
REMARK    6  A    between atoms: N_21  and  C_22
REMARK    7  A    between atoms: C_22  and  C_23
REMARK    8  A    between atoms: C_23  and  C_24
REMARK    9  A    between atoms: C_24  and  N_25
REMARK   10  A    between atoms: N_25  and  C_26
REMARK   11  A    between atoms: N_25  and  C_27
REMARK                            x       y       z     vdW  Elec       q    Type
REMARK                         _______ _______ _______ _____ _____    ______ ____
ROOT
ATOM      1  C   UNL     1       2.040   6.160   1.314  0.00  0.00    +0.252 C 
ATOM      2  O   UNL     1       3.024   6.617   0.766  0.00  0.00    -0.270 OA
ATOM      3  N   UNL     1       1.046   6.980   1.708  0.00  0.00    -0.246 N 
ATOM      4  C   UNL     1       1.087   8.325   1.382  0.00  0.00    +0.168 A 
ATOM      5  N   UNL     1       0.226   9.271   1.677  0.00  0.00    -0.224 NA
ATOM      6  C   UNL     1       0.396  10.554   1.289  0.00  0.00    +0.080 A 
ATOM      7  C   UNL     1      -0.449  11.660   1.538  0.00  0.00    +0.032 A 
ATOM      8  C   UNL     1      -0.129  12.906   1.068  0.00  0.00    +0.040 A 
ATOM      9  C   UNL     1       1.029  13.130   0.335  0.00  0.00    +0.125 A 
ATOM     10  C   UNL     1       1.880  12.069   0.072  0.00  0.00    +0.055 A 
ATOM     11  C   UNL     1       1.565  10.817   0.540  0.00  0.00    +0.043 A 
ATOM     12  S   UNL     1       2.331   9.216   0.458  0.00  0.00    -0.052 S 
ATOM     13  F   UNL     1       1.323  14.368  -0.119  0.00  0.00    -0.205 F 
ENDROOT
BRANCH   1  17
ATOM     14  C   UNL     1       1.734   1.977   1.986  0.00  0.00    +0.106 A 
ATOM     15  C   UNL     1       1.413   2.863   3.000  0.00  0.00    +0.029 A 
ATOM     16  C   UNL     1       1.511   4.223   2.788  0.00  0.00    +0.015 A 
ATOM     17  C   UNL     1       1.933   4.704   1.548  0.00  0.00    +0.037 A 
ATOM     18  C   UNL     1       2.255   3.805   0.529  0.00  0.00    +0.015 A 
ATOM     19  C   UNL     1       2.158   2.448   0.756  0.00  0.00    +0.029 A 
BRANCH  14  20
ATOM     20  S   UNL     1       1.607   0.242   2.265  0.00  0.00    +0.061 S 
ATOM     21  O   UNL     1       1.445  -0.364   0.989  0.00  0.00    -0.153 OA
ATOM     22  O   UNL     1       0.666   0.067   3.316  0.00  0.00    -0.153 OA
BRANCH  20  28
ATOM     23  C   UNL     1       5.183   1.548   1.899  0.00  0.00    +0.009 C 
ATOM     24  C   UNL     1       5.406   0.071   2.230  0.00  0.00    +0.002 C 
ATOM     25  C   UNL     1       5.756  -0.073   3.712  0.00  0.00    +0.009 C 
ATOM     26  C   UNL     1       4.624   0.504   4.565  0.00  0.00    +0.002 C 
ATOM     27  C   UNL     1       3.336  -0.280   4.294  0.00  0.00    +0.112 C 
ATOM     28  N   UNL     1       3.070  -0.268   2.849  0.00  0.00    -0.176 NA
ATOM     29  C   UNL     1       4.127  -0.718   1.932  0.00  0.00    +0.112 C 
ATOM     30  C   UNL     1       4.990   0.390   6.046  0.00  0.00    +0.009 C 
ENDBRANCH  20  28
ENDBRANCH  14  20
ENDBRANCH   1  17
BRANCH   3  31
ATOM     31  C   UNL     1      -0.079   6.449   2.482  0.00  0.00    +0.114 C 
BRANCH  31  32
ATOM     32  C   UNL     1       0.152   6.721   3.970  0.00  0.00    +0.001 C 
BRANCH  32  33
ATOM     33  C   UNL     1      -0.953   6.050   4.789  0.00  0.00    -0.078 C 
BRANCH  33  34
ATOM     34  N   UNL     1      -0.731   6.311   6.217  0.00  0.00    +0.376 N 
ATOM     35  C   UNL     1      -1.854   5.770   6.994  0.00  0.00    -0.097 C 
ATOM     36  C   UNL     1       0.517   5.665   6.645  0.00  0.00    -0.097 C 
ATOM     37  H   UNL     1      -0.664   7.306   6.371  0.00  0.00    -0.083 HD
ENDBRANCH  33  34
ENDBRANCH  32  33
ENDBRANCH  31  32
ENDBRANCH   3  31
TORSDOF 7
