REMARK  Name = ZINC36047366
REMARK  7 active torsions:
REMARK  status: ('A' for Active; 'I' for Inactive)
REMARK    1  A    between atoms: C_9  and  C_12
REMARK    2  A    between atoms: C_12  and  N_13
REMARK    3  A    between atoms: C_14  and  C_16
REMARK    4  A    between atoms: C_16  and  N_17
REMARK    5  A    between atoms: N_21  and  C_24
REMARK    6  A    between atoms: C_24  and  C_25
REMARK    7  A    between atoms: C_28  and  C_31
REMARK                            x       y       z     vdW  Elec       q    Type
REMARK                         _______ _______ _______ _____ _____    ______ ____
ROOT
ATOM      1  N   UNL     1       9.680  -2.336  -0.966  0.00  0.00    -0.296 NA
ATOM      2  C   UNL     1       9.694  -3.729  -1.347  0.00  0.00    +0.083 C 
ATOM      3  C   UNL     1      10.408  -4.546  -0.246  0.00  0.00    -0.003 C 
ATOM      4  C   UNL     1      11.859  -4.381  -0.315  0.00  0.00    -0.077 C 
ATOM      5  N   UNL     1      12.293  -2.985  -0.110  0.00  0.00    +0.383 N 
ATOM      6  C   UNL     1      12.166  -2.284  -1.367  0.00  0.00    -0.063 C 
ATOM      7  C   UNL     1      10.822  -1.545  -1.476  0.00  0.00    +0.066 C 
ATOM      8  H   UNL     1      11.709  -2.545   0.585  0.00  0.00    -0.081 HD
ENDROOT
BRANCH   1   9
ATOM      9  C   UNL     1       8.401  -1.706  -1.323  0.00  0.00    +0.180 C 
BRANCH   9  11
ATOM     10  N   UNL     1       6.008  -1.982  -0.760  0.00  0.00    -0.311 N 
ATOM     11  C   UNL     1       7.280  -2.393  -0.587  0.00  0.00    +0.227 C 
ATOM     12  O   UNL     1       7.522  -3.317   0.162  0.00  0.00    -0.274 OA
ATOM     13  H   UNL     1       5.815  -1.243  -1.358  0.00  0.00    +0.149 HD
BRANCH  10  14
ATOM     14  C   UNL     1       4.918  -2.649  -0.044  0.00  0.00    +0.152 C 
BRANCH  14  23
ATOM     15  C   UNL     1      -0.017   1.378   0.010  0.00  0.00    +0.004 A 
ATOM     16  C   UNL     1       1.170   2.088   0.002  0.00  0.00    +0.004 A 
ATOM     17  C   UNL     1       2.378   1.418  -0.012  0.00  0.00    +0.049 A 
ATOM     18  C   UNL     1       2.404   0.031  -0.019  0.00  0.00    +0.163 A 
ATOM     19  C   UNL     1       1.212  -0.683  -0.014  0.00  0.00    +0.162 A 
ATOM     20  C   UNL     1       0.002  -0.004   0.002  0.00  0.00    +0.049 A 
ATOM     21  O   UNL     1       1.214  -2.043  -0.029  0.00  0.00    -0.485 OA
ATOM     22  C   UNL     1       2.441  -2.689   0.331  0.00  0.00    +0.275 C 
ATOM     23  C   UNL     1       3.587  -1.993  -0.416  0.00  0.00    +0.228 C 
ATOM     24  O   UNL     1       3.602  -0.615  -0.029  0.00  0.00    -0.480 OA
ENDBRANCH  14  23
ENDBRANCH  10  14
ENDBRANCH   9  11
ENDBRANCH   1   9
BRANCH   5  25
ATOM     25  C   UNL     1      13.694  -2.961   0.331  0.00  0.00    -0.043 C 
BRANCH  25  26
ATOM     26  C   UNL     1      13.806  -3.612   1.685  0.00  0.00    -0.064 A 
ATOM     27  C   UNL     1      13.668  -2.852   2.831  0.00  0.00    +0.002 A 
ATOM     28  C   UNL     1      13.770  -3.450   4.074  0.00  0.00    +0.012 A 
ATOM     29  C   UNL     1      14.010  -4.808   4.170  0.00  0.00    +0.055 A 
ATOM     30  C   UNL     1      14.147  -5.568   3.023  0.00  0.00    +0.012 A 
ATOM     31  C   UNL     1      14.040  -4.971   1.781  0.00  0.00    +0.002 A 
BRANCH  29  32
ATOM     32  C   UNL     1      14.122  -5.459   5.524  0.00  0.00    +0.417 C 
ATOM     33  F   UNL     1      12.858  -5.890   5.941  0.00  0.00    -0.166 F 
ATOM     34  F   UNL     1      14.986  -6.556   5.443  0.00  0.00    -0.166 F 
ATOM     35  F   UNL     1      14.627  -4.535   6.445  0.00  0.00    -0.166 F 
ENDBRANCH  29  32
ENDBRANCH  25  26
ENDBRANCH   5  25
TORSDOF 7
