REMARK  Name = ZINC11071912
REMARK  5 active torsions:
REMARK  status: ('A' for Active; 'I' for Inactive)
REMARK    1  A    between atoms: C_1  and  C_2
REMARK    2  A    between atoms: N_11  and  S_12
REMARK    3  A    between atoms: S_12  and  C_15
REMARK    4  A    between atoms: C_19  and  C_21
REMARK    5  A    between atoms: C_26  and  C_29
REMARK                            x       y       z     vdW  Elec       q    Type
REMARK                         _______ _______ _______ _____ _____    ______ ____
ROOT
ATOM      1  C   UNL     1       2.343   0.001  -0.169  0.00  0.00    +0.109 A 
ATOM      2  C   UNL     1       1.161  -0.682   0.056  0.00  0.00    +0.029 A 
ATOM      3  C   UNL     1      -0.018   0.012   0.266  0.00  0.00    +0.003 A 
ATOM      4  C   UNL     1      -0.021   1.391   0.252  0.00  0.00    +0.013 A 
ATOM      5  C   UNL     1       1.168   2.087   0.026  0.00  0.00    +0.039 A 
ATOM      6  C   UNL     1       2.353   1.380  -0.184  0.00  0.00    +0.042 A 
ENDROOT
BRANCH   5   7
ATOM      7  C   UNL     1       1.172   3.565   0.011  0.00  0.00    +0.247 C 
ATOM      8  O   UNL     1       2.048   4.177   0.590  0.00  0.00    -0.270 OA
ATOM      9  N   UNL     1       0.203   4.234  -0.646  0.00  0.00    -0.293 N 
ATOM     10  C   UNL     1       0.223   5.704  -0.748  0.00  0.00    +0.113 C 
ATOM     11  C   UNL     1       0.336   6.072  -2.230  0.00  0.00    +0.054 C 
ATOM     12  C   UNL     1      -0.619   5.253  -3.047  0.00  0.00    -0.039 C 
ATOM     13  C   UNL     1      -1.166   4.130  -2.642  0.00  0.00    -0.004 C 
ATOM     14  C   UNL     1      -0.911   3.527  -1.293  0.00  0.00    +0.135 C 
BRANCH  12  15
ATOM     15  C   UNL     1      -0.966   5.742  -4.396  0.00  0.00    +0.003 A 
ATOM     16  C   UNL     1      -1.802   6.769  -4.696  0.00  0.00    +0.091 A 
ATOM     17  N   UNL     1      -1.872   6.926  -6.049  0.00  0.00    -0.360 N 
ATOM     18  H   UNL     1      -2.404   7.598  -6.503  0.00  0.00    +0.165 HD
ATOM     19  C   UNL     1      -1.081   5.989  -6.678  0.00  0.00    +0.047 A 
ATOM     20  C   UNL     1      -0.479   5.206  -5.678  0.00  0.00    +0.007 A 
ATOM     21  C   UNL     1       0.383   4.169  -6.028  0.00  0.00    +0.010 A 
ATOM     22  C   UNL     1       0.642   3.917  -7.357  0.00  0.00    +0.001 A 
ATOM     23  C   UNL     1       0.048   4.688  -8.346  0.00  0.00    +0.002 A 
ATOM     24  C   UNL     1      -0.806   5.717  -8.015  0.00  0.00    +0.026 A 
ENDBRANCH  12  15
ENDBRANCH   5   7
BRANCH   1  25
ATOM     25  S   UNL     1       3.838  -0.893  -0.435  0.00  0.00    +0.075 S 
ATOM     26  O   UNL     1       4.901  -0.020  -0.080  0.00  0.00    -0.150 OA
ATOM     27  O   UNL     1       3.663  -2.166   0.171  0.00  0.00    -0.150 OA
BRANCH  25  37
ATOM     28  C   UNL     1       1.920  -2.407  -2.607  0.00  0.00    +0.030 C 
ATOM     29  C   UNL     1       3.440  -2.329  -2.769  0.00  0.00    +0.099 C 
ATOM     30  C   UNL     1       3.806  -2.109  -4.246  0.00  0.00    +0.061 C 
ATOM     31  C   UNL     1       4.544  -0.790  -4.262  0.00  0.00    -0.023 A 
ATOM     32  C   UNL     1       5.115  -0.083  -5.303  0.00  0.00    +0.005 A 
ATOM     33  C   UNL     1       5.746   1.123  -5.060  0.00  0.00    +0.000 A 
ATOM     34  C   UNL     1       5.805   1.621  -3.771  0.00  0.00    +0.002 A 
ATOM     35  C   UNL     1       5.237   0.920  -2.729  0.00  0.00    +0.025 A 
ATOM     36  C   UNL     1       4.598  -0.299  -2.966  0.00  0.00    +0.055 A 
ATOM     37  N   UNL     1       3.967  -1.157  -2.064  0.00  0.00    -0.200 N 
ENDBRANCH  25  37
ENDBRANCH   1  25
TORSDOF 4
