REMARK  Name = ZINC38800071
REMARK  6 active torsions:
REMARK  status: ('A' for Active; 'I' for Inactive)
REMARK    1  A    between atoms: C_1  and  C_2
REMARK    2  A    between atoms: C_2  and  O_3
REMARK    3  A    between atoms: O_3  and  C_4
REMARK    4  A    between atoms: C_4  and  C_6
REMARK    5  A    between atoms: C_25  and  N_26
REMARK    6  A    between atoms: C_27  and  C_29
REMARK                            x       y       z     vdW  Elec       q    Type
REMARK                         _______ _______ _______ _____ _____    ______ ____
ROOT
ATOM      1  C   UNL     1       1.506  -2.369   2.473  0.00  0.00    +0.215 C 
ATOM      2  C   UNL     1       1.552  -3.876   2.327  0.00  0.00    -0.007 C 
ATOM      3  C   UNL     1       0.987  -4.628   3.347  0.00  0.00    +0.012 A 
ATOM      4  C   UNL     1       0.989  -6.090   3.284  0.00  0.00    +0.032 A 
ATOM      5  C   UNL     1       0.419  -6.808   4.316  0.00  0.00    +0.012 A 
ATOM      6  C   UNL     1      -0.154  -6.149   5.407  0.00  0.00    +0.003 A 
ATOM      7  C   UNL     1      -0.183  -4.797   5.515  0.00  0.00    +0.024 A 
ATOM      8  C   UNL     1       0.376  -3.973   4.509  0.00  0.00    +0.042 A 
ATOM      9  N   UNL     1       0.343  -2.648   4.624  0.00  0.00    -0.284 N 
ATOM     10  C   UNL     1       0.846  -1.822   3.720  0.00  0.00    +0.236 C 
ATOM     11  O   UNL     1       0.779  -0.621   3.894  0.00  0.00    -0.274 OA
ATOM     12  C   UNL     1       1.605  -6.747   2.114  0.00  0.00    +0.196 C 
ATOM     13  O   UNL     1       1.630  -7.960   2.018  0.00  0.00    -0.287 OA
ATOM     14  C   UNL     1       2.188  -5.888   1.066  0.00  0.00    +0.051 A 
ATOM     15  C   UNL     1       2.146  -4.481   1.199  0.00  0.00    -0.007 A 
ATOM     16  C   UNL     1       2.705  -3.682   0.191  0.00  0.00    +0.009 A 
ATOM     17  C   UNL     1       3.289  -4.268  -0.917  0.00  0.00    +0.002 A 
ATOM     18  C   UNL     1       3.330  -5.641  -1.049  0.00  0.00    +0.024 A 
ATOM     19  C   UNL     1       2.781  -6.462  -0.062  0.00  0.00    +0.045 A 
ATOM     20  H   UNL     1      -0.073  -2.267   5.413  0.00  0.00    +0.155 HD
ENDROOT
BRANCH  19  21
ATOM     21  N   UNL     1       2.826  -7.843  -0.200  0.00  0.00    -0.281 N 
ATOM     22  C   UNL     1       3.785  -8.415  -0.955  0.00  0.00    +0.248 C 
ATOM     23  O   UNL     1       4.670  -7.732  -1.433  0.00  0.00    -0.270 OA
ATOM     24  H   UNL     1       2.167  -8.397   0.248  0.00  0.00    +0.155 HD
BRANCH  22  25
ATOM     25  C   UNL     1       3.761  -9.872  -1.201  0.00  0.00    +0.037 A 
ATOM     26  C   UNL     1       2.744 -10.658  -0.659  0.00  0.00    +0.013 A 
ATOM     27  C   UNL     1       2.727 -12.018  -0.893  0.00  0.00    +0.001 A 
ATOM     28  C   UNL     1       3.716 -12.602  -1.665  0.00  0.00    +0.000 A 
ATOM     29  C   UNL     1       4.728 -11.828  -2.205  0.00  0.00    +0.001 A 
ATOM     30  C   UNL     1       4.753 -10.467  -1.983  0.00  0.00    +0.013 A 
ENDBRANCH  22  25
ENDBRANCH  19  21
BRANCH   1  31
ATOM     31  C   UNL     1       0.778  -1.809   1.278  0.00  0.00    +0.324 C 
ATOM     32  O   UNL     1       0.298  -2.555   0.458  0.00  0.00    -0.250 OA
BRANCH  31  33
ATOM     33  O   UNL     1       0.661  -0.480   1.126  0.00  0.00    -0.464 OA
BRANCH  33  35
ATOM     34  C   UNL     1      -0.071   1.510  -0.032  0.00  0.00    +0.048 C 
ATOM     35  C   UNL     1      -0.042  -0.019  -0.030  0.00  0.00    +0.229 C 
ENDBRANCH  33  35
ENDBRANCH  31  33
ENDBRANCH   1  31
TORSDOF 5
