REMARK  Name = ZINC40066677
REMARK  10 active torsions:
REMARK  status: ('A' for Active; 'I' for Inactive)
REMARK    1  A    between atoms: C_1  and  C_2
REMARK    2  A    between atoms: C_5  and  C_8
REMARK    3  A    between atoms: C_8  and  N_9
REMARK    4  A    between atoms: C_13  and  C_14
REMARK    5  A    between atoms: C_15  and  C_33
REMARK    6  A    between atoms: C_16  and  C_31
REMARK    7  A    between atoms: N_19  and  C_30
REMARK    8  A    between atoms: C_20  and  N_21
REMARK    9  A    between atoms: N_21  and  C_22
REMARK   10  A    between atoms: C_22  and  C_23
REMARK                            x       y       z     vdW  Elec       q    Type
REMARK                         _______ _______ _______ _____ _____    ______ ____
ROOT
ATOM      1  C   UNL     1       5.685  -6.179  -1.993  0.00  0.00    +0.019 A 
ATOM      2  C   UNL     1       6.196  -6.472  -0.717  0.00  0.00    -0.017 A 
ATOM      3  C   UNL     1       7.457  -7.050  -0.613  0.00  0.00    +0.120 A 
ATOM      4  C   UNL     1       8.195  -7.330  -1.792  0.00  0.00    +0.270 A 
ATOM      5  O   UNL     1       9.300  -7.836  -1.708  0.00  0.00    -0.266 OA
ATOM      6  N   UNL     1       7.684  -7.040  -3.002  0.00  0.00    -0.298 N 
ATOM      7  C   UNL     1       6.453  -6.480  -3.130  0.00  0.00    +0.109 A 
ATOM      8  C   UNL     1       8.466  -7.338  -4.204  0.00  0.00    +0.154 C 
ATOM      9  C   UNL     1       5.391  -6.163   0.519  0.00  0.00    +0.046 C 
ENDROOT
BRANCH   1  14
ATOM     10  N   UNL     1       3.169  -2.524  -3.780  0.00  0.00    -0.251 N 
ATOM     11  C   UNL     1       3.037  -3.669  -3.134  0.00  0.00    +0.259 C 
ATOM     12  O   UNL     1       1.937  -4.100  -2.839  0.00  0.00    -0.269 OA
ATOM     13  C   UNL     1       4.224  -4.386  -2.792  0.00  0.00    +0.077 C 
ATOM     14  C   UNL     1       4.361  -5.571  -2.137  0.00  0.00    +0.032 C 
ATOM     15  S   UNL     1       5.480  -3.303  -3.458  0.00  0.00    -0.061 S 
ATOM     16  C   UNL     1       4.390  -2.049  -4.112  0.00  0.00    +0.121 C 
ATOM     17  S   UNL     1       4.790  -0.608  -4.946  0.00  0.00    -0.027 S 
BRANCH  10  18
ATOM     18  C   UNL     1       1.973  -1.761  -4.148  0.00  0.00    +0.150 C 
BRANCH  18  23
ATOM     19  C   UNL     1       0.152  -3.428  -9.373  0.00  0.00    +0.044 C 
ATOM     20  C   UNL     1       0.627  -2.993  -8.010  0.00  0.00    -0.050 A 
ATOM     21  C   UNL     1       0.156  -3.631  -6.878  0.00  0.00    +0.003 A 
ATOM     22  C   UNL     1       0.592  -3.233  -5.628  0.00  0.00    +0.005 A 
ATOM     23  C   UNL     1       1.499  -2.196  -5.511  0.00  0.00    -0.030 A 
ATOM     24  C   UNL     1       1.971  -1.559  -6.643  0.00  0.00    +0.005 A 
ATOM     25  C   UNL     1       1.538  -1.960  -7.893  0.00  0.00    +0.003 A 
ENDBRANCH  18  23
ENDBRANCH  10  18
ENDBRANCH   1  14
BRANCH   7  26
ATOM     26  N   UNL     1       5.961  -6.204  -4.372  0.00  0.00    -0.326 N 
ATOM     27  H   UNL     1       6.202  -5.376  -4.816  0.00  0.00    +0.148 HD
BRANCH  26  28
ATOM     28  C   UNL     1       5.068  -7.158  -5.035  0.00  0.00    +0.138 C 
BRANCH  28  29
ATOM     29  C   UNL     1       4.802  -6.700  -6.446  0.00  0.00    -0.030 A 
ATOM     30  C   UNL     1       3.735  -5.862  -6.710  0.00  0.00    +0.008 A 
ATOM     31  C   UNL     1       3.490  -5.441  -8.004  0.00  0.00    +0.038 A 
ATOM     32  C   UNL     1       4.315  -5.859  -9.035  0.00  0.00    +0.123 A 
ATOM     33  C   UNL     1       5.384  -6.698  -8.768  0.00  0.00    +0.038 A 
ATOM     34  C   UNL     1       5.629  -7.114  -7.473  0.00  0.00    +0.008 A 
ATOM     35  F   UNL     1       4.077  -5.449 -10.300  0.00  0.00    -0.205 F 
ENDBRANCH  28  29
ENDBRANCH  26  28
ENDBRANCH   7  26
BRANCH   3  36
ATOM     36  C   UNL     1       8.007  -7.360   0.672  0.00  0.00    +0.105 C 
ATOM     37  N   UNL     1       8.442  -7.606   1.692  0.00  0.00    -0.191 NA
ENDBRANCH   3  36
TORSDOF 7
