REMARK  Name = ZINC13129858
REMARK  7 active torsions:
REMARK  status: ('A' for Active; 'I' for Inactive)
REMARK    1  A    between atoms: C_1  and  C_2
REMARK    2  A    between atoms: C_2  and  C_26
REMARK    3  A    between atoms: N_5  and  C_9
REMARK    4  A    between atoms: C_9  and  C_10
REMARK    5  A    between atoms: N_12  and  C_13
REMARK    6  A    between atoms: C_13  and  C_14
REMARK    7  A    between atoms: N_16  and  C_17
REMARK                            x       y       z     vdW  Elec       q    Type
REMARK                         _______ _______ _______ _____ _____    ______ ____
ROOT
ATOM      1  C   UNL     1       1.657  -1.195  -1.284  0.00  0.00    +0.047 C 
ATOM      2  C   UNL     1       1.347  -0.395  -0.018  0.00  0.00    +0.135 C 
ATOM      3  C   UNL     1       2.102   0.919  -0.018  0.00  0.00    +0.251 C 
ATOM      4  O   UNL     1       3.305   1.072  -0.030  0.00  0.00    -0.272 OA
ATOM      5  N   UNL     1       1.159   1.881  -0.002  0.00  0.00    -0.215 N 
ATOM      6  C   UNL     1      -0.074   1.364   0.009  0.00  0.00    +0.310 C 
ATOM      7  O   UNL     1      -1.088   2.034   0.019  0.00  0.00    -0.252 OA
ATOM      8  N   UNL     1      -0.067   0.018   0.001  0.00  0.00    -0.281 N 
ATOM      9  H   UNL     1      -0.842  -0.565   0.005  0.00  0.00    +0.152 HD
ENDROOT
BRANCH   2  10
ATOM     10  C   UNL     1       1.680  -1.198   1.214  0.00  0.00    -0.015 A 
ATOM     11  C   UNL     1       2.966  -1.135   1.747  0.00  0.00    +0.007 A 
ATOM     12  C   UNL     1       3.299  -1.847   2.858  0.00  0.00    +0.009 A 
ATOM     13  C   UNL     1       2.335  -2.660   3.478  0.00  0.00    -0.018 A 
ATOM     14  C   UNL     1       2.642  -3.409   4.627  0.00  0.00    +0.008 A 
ATOM     15  C   UNL     1       1.682  -4.184   5.201  0.00  0.00    +0.001 A 
ATOM     16  C   UNL     1       0.396  -4.248   4.668  0.00  0.00    +0.001 A 
ATOM     17  C   UNL     1       0.063  -3.536   3.557  0.00  0.00    +0.008 A 
ATOM     18  C   UNL     1       1.027  -2.724   2.936  0.00  0.00    -0.018 A 
ATOM     19  C   UNL     1       0.719  -1.970   1.791  0.00  0.00    +0.014 A 
ENDBRANCH   2  10
BRANCH   5  20
ATOM     20  C   UNL     1       1.449   3.317   0.003  0.00  0.00    +0.213 C 
BRANCH  20  21
ATOM     21  C   UNL     1       1.564   3.802   1.425  0.00  0.00    +0.231 C 
ATOM     22  O   UNL     1       1.418   3.025   2.345  0.00  0.00    -0.274 OA
ATOM     23  N   UNL     1       1.829   5.100   1.676  0.00  0.00    -0.305 N 
ATOM     24  H   UNL     1       1.946   5.722   0.941  0.00  0.00    +0.149 HD
BRANCH  23  25
ATOM     25  C   UNL     1       1.941   5.571   3.058  0.00  0.00    +0.200 C 
BRANCH  25  26
ATOM     26  C   UNL     1       2.239   7.048   3.063  0.00  0.00    +0.234 C 
ATOM     27  O   UNL     1       2.348   7.648   2.015  0.00  0.00    -0.274 OA
ATOM     28  N   UNL     1       2.385   7.702   4.232  0.00  0.00    -0.282 N 
ATOM     29  H   UNL     1       2.235   7.237   5.070  0.00  0.00    +0.155 HD
BRANCH  28  30
ATOM     30  C   UNL     1       2.755   9.054   4.237  0.00  0.00    +0.072 A 
ATOM     31  C   UNL     1       2.305   9.901   3.233  0.00  0.00    +0.029 A 
ATOM     32  C   UNL     1       2.669  11.234   3.239  0.00  0.00    +0.043 A 
ATOM     33  C   UNL     1       3.482  11.727   4.246  0.00  0.00    +0.161 A 
ATOM     34  C   UNL     1       3.933  10.886   5.250  0.00  0.00    +0.195 A 
ATOM     35  C   UNL     1       3.566   9.550   5.251  0.00  0.00    +0.182 A 
ATOM     36  F   UNL     1       4.001   8.729   6.232  0.00  0.00    -0.200 F 
ATOM     37  F   UNL     1       4.726  11.369   6.232  0.00  0.00    -0.199 F 
ATOM     38  F   UNL     1       3.836  13.031   4.248  0.00  0.00    -0.202 F 
ENDBRANCH  28  30
ENDBRANCH  25  26
ENDBRANCH  23  25
ENDBRANCH  20  21
ENDBRANCH   5  20
TORSDOF 6
