REMARK  Name = ZINC64518962
REMARK  5 active torsions:
REMARK  status: ('A' for Active; 'I' for Inactive)
REMARK    1  A    between atoms: C_1  and  C_2
REMARK    2  A    between atoms: C_5  and  S_8
REMARK    3  A    between atoms: S_8  and  N_11
REMARK    4  A    between atoms: N_11  and  C_12
REMARK    5  A    between atoms: C_18  and  C_20
REMARK                            x       y       z     vdW  Elec       q    Type
REMARK                         _______ _______ _______ _____ _____    ______ ____
ROOT
ATOM      1  C   UNL     1       2.512  -4.699   1.113  0.00  0.00    +0.079 C 
ATOM      2  C   UNL     1       2.541  -5.902   2.057  0.00  0.00    +0.039 C 
ATOM      3  C   UNL     1       3.414  -5.572   3.272  0.00  0.00    +0.109 C 
ATOM      4  N   UNL     1       4.737  -5.143   2.800  0.00  0.00    -0.299 N 
ATOM      5  C   UNL     1       4.819  -4.052   1.819  0.00  0.00    +0.109 C 
ATOM      6  C   UNL     1       3.930  -4.400   0.621  0.00  0.00    +0.039 C 
ATOM      7  C   UNL     1       5.856  -5.739   3.259  0.00  0.00    +0.242 C 
ATOM      8  O   UNL     1       5.776  -6.638   4.069  0.00  0.00    -0.273 OA
ENDROOT
BRANCH   7   9
ATOM      9  C   UNL     1       7.207  -5.287   2.765  0.00  0.00    +0.190 C 
ATOM     10  C   UNL     1       7.322  -5.520   1.276  0.00  0.00    +0.016 C 
ATOM     11  C   UNL     1       8.354  -6.378   1.109  0.00  0.00    -0.002 A 
ATOM     12  C   UNL     1       8.960  -6.984  -0.082  0.00  0.00    +0.029 A 
ATOM     13  C   UNL     1      10.009  -7.826   0.071  0.00  0.00    +0.042 A 
ATOM     14  C   UNL     1      10.529  -8.132   1.338  0.00  0.00    +0.022 A 
ATOM     15  C   UNL     1      10.025  -7.614   2.478  0.00  0.00    +0.027 A 
ATOM     16  C   UNL     1       8.922  -6.718   2.434  0.00  0.00    +0.043 A 
ATOM     17  N   UNL     1       8.266  -6.093   3.383  0.00  0.00    -0.370 N 
ATOM     18 CL   UNL     1      10.729  -8.545  -1.335  0.00  0.00    -0.084 Cl
ATOM     19  H   UNL     1       8.450  -6.153   4.334  0.00  0.00    +0.161 HD
ENDBRANCH   7   9
BRANCH   1  20
ATOM     20  N   UNL     1       1.651  -4.999  -0.034  0.00  0.00    -0.187 NA
ATOM     21  H   UNL     1       2.011  -5.473  -0.800  0.00  0.00    +0.148 HD
BRANCH  20  22
ATOM     22  S   UNL     1       0.063  -4.530  -0.023  0.00  0.00    +0.059 S 
ATOM     23  O   UNL     1      -0.476  -4.950   1.223  0.00  0.00    -0.153 OA
ATOM     24  O   UNL     1      -0.490  -4.937  -1.267  0.00  0.00    -0.153 OA
BRANCH  22  29
ATOM     25  C   UNL     1      -0.018   1.503   0.010  0.00  0.00    +0.044 C 
ATOM     26  C   UNL     1       0.002  -0.004   0.002  0.00  0.00    -0.050 A 
ATOM     27  C   UNL     1       0.006  -0.689  -1.199  0.00  0.00    +0.005 A 
ATOM     28  C   UNL     1       0.025  -2.071  -1.206  0.00  0.00    +0.029 A 
ATOM     29  C   UNL     1       0.040  -2.768  -0.013  0.00  0.00    +0.105 A 
ATOM     30  C   UNL     1       0.037  -2.084   1.188  0.00  0.00    +0.029 A 
ATOM     31  C   UNL     1       0.023  -0.702   1.195  0.00  0.00    +0.005 A 
ENDBRANCH  22  29
ENDBRANCH  20  22
ENDBRANCH   1  20
TORSDOF 4
