REMARK  Name = ZINC08791326
REMARK  8 active torsions:
REMARK  status: ('A' for Active; 'I' for Inactive)
REMARK    1  A    between atoms: C_1  and  C_2
REMARK    2  A    between atoms: C_4  and  C_36
REMARK    3  A    between atoms: C_13  and  C_15
REMARK    4  A    between atoms: C_15  and  C_16
REMARK    5  A    between atoms: C_16  and  C_17
REMARK    6  A    between atoms: N_22  and  C_25
REMARK    7  A    between atoms: C_25  and  C_26
REMARK    8  A    between atoms: C_26  and  C_27
REMARK                            x       y       z     vdW  Elec       q    Type
REMARK                         _______ _______ _______ _____ _____    ______ ____
ROOT
ATOM      1  C   UNL     1       2.403  -4.188   6.416  0.00  0.00    +0.044 C 
ATOM      2  C   UNL     1       1.812  -4.681   5.120  0.00  0.00    -0.050 A 
ATOM      3  C   UNL     1       1.062  -5.842   5.098  0.00  0.00    +0.008 A 
ATOM      4  C   UNL     1       0.519  -6.298   3.915  0.00  0.00    -0.029 A 
ATOM      5  C   UNL     1       0.723  -5.591   2.732  0.00  0.00    +0.039 A 
ATOM      6  C   UNL     1       1.479  -4.423   2.766  0.00  0.00    -0.027 A 
ATOM      7  C   UNL     1       2.019  -3.972   3.950  0.00  0.00    +0.008 A 
ATOM      8  C   UNL     1       1.508  -3.911   1.355  0.00  0.00    +0.050 C 
ATOM      9  C   UNL     1       2.942  -3.800   0.824  0.00  0.00    +0.088 C 
ATOM     10  C   UNL     1       2.925  -2.541  -0.088  0.00  0.00    +0.073 C 
ATOM     11  C   UNL     1       1.472  -2.024  -0.023  0.00  0.00    -0.057 C 
ATOM     12  C   UNL     1       3.833  -1.573   0.635  0.00  0.00    +0.224 C 
ATOM     13  O   UNL     1       4.094  -0.448   0.265  0.00  0.00    -0.275 OA
ATOM     14  N   UNL     1       4.303  -2.150   1.747  0.00  0.00    -0.241 N 
ATOM     15  C   UNL     1       3.870  -3.400   1.949  0.00  0.00    +0.225 C 
ATOM     16  O   UNL     1       4.174  -4.103   2.889  0.00  0.00    -0.275 OA
ATOM     17  C   UNL     1       0.704  -4.905   0.561  0.00  0.00    +0.211 C 
ATOM     18  O   UNL     1       0.478  -4.867  -0.630  0.00  0.00    -0.277 OA
ATOM     19  N   UNL     1       0.285  -5.845   1.430  0.00  0.00    -0.286 N 
ATOM     20  C   UNL     1      -0.298  -7.564   3.902  0.00  0.00    +0.045 C 
ATOM     21  H   UNL     1      -0.258  -6.609   1.181  0.00  0.00    +0.155 HD
ATOM     22  N   UNL     1       0.957  -2.573   1.234  0.00  0.00    +0.394 N 
ATOM     23  H   UNL     1       1.259  -1.992   2.025  0.00  0.00    -0.083 HD
ATOM     24  H   UNL     1      -0.069  -2.612   1.210  0.00  0.00    -0.083 HD
ENDROOT
BRANCH  11  25
ATOM     25  C   UNL     1       1.451  -0.494  -0.015  0.00  0.00    -0.006 C 
BRANCH  25  26
ATOM     26  C   UNL     1       0.002  -0.004   0.002  0.00  0.00    +0.094 C 
BRANCH  26  27
ATOM     27  C   UNL     1      -0.018   1.503   0.010  0.00  0.00    +0.210 C 
ATOM     28  O   UNL     1       1.024   2.123   0.004  0.00  0.00    -0.276 OA
ATOM     29  N   UNL     1      -1.195   2.161   0.019  0.00  0.00    -0.329 N 
ATOM     30  H   UNL     1      -2.028   1.664   0.021  0.00  0.00    +0.145 HD
ATOM     31  H   UNL     1      -1.208   3.131   0.025  0.00  0.00    +0.145 HD
ENDBRANCH  26  27
ENDBRANCH  25  26
ENDBRANCH  11  25
BRANCH  14  32
ATOM     32  C   UNL     1       5.217  -1.469   2.667  0.00  0.00    +0.121 C 
BRANCH  32  33
ATOM     33  C   UNL     1       6.662  -1.743   2.247  0.00  0.00    +0.054 C 
BRANCH  33  34
ATOM     34  C   UNL     1       7.602  -1.042   3.194  0.00  0.00    -0.046 A 
ATOM     35  C   UNL     1       8.018   0.248   2.926  0.00  0.00    +0.004 A 
ATOM     36  C   UNL     1       8.877   0.893   3.797  0.00  0.00    +0.000 A 
ATOM     37  C   UNL     1       9.327   0.242   4.931  0.00  0.00    +0.000 A 
ATOM     38  C   UNL     1       8.915  -1.050   5.196  0.00  0.00    +0.000 A 
ATOM     39  C   UNL     1       8.053  -1.693   4.327  0.00  0.00    +0.004 A 
ENDBRANCH  33  34
ENDBRANCH  32  33
ENDBRANCH  14  32
TORSDOF 6
