REMARK  Name = ZINC13194854
REMARK  8 active torsions:
REMARK  status: ('A' for Active; 'I' for Inactive)
REMARK    1  A    between atoms: C_1  and  C_2
REMARK    2  A    between atoms: C_5  and  C_11
REMARK    3  A    between atoms: C_7  and  N_8
REMARK    4  A    between atoms: C_13  and  C_29
REMARK    5  A    between atoms: N_17  and  C_18
REMARK    6  A    between atoms: C_21  and  C_24
REMARK    7  A    between atoms: C_24  and  C_25
REMARK    8  A    between atoms: C_29  and  C_31
REMARK                            x       y       z     vdW  Elec       q    Type
REMARK                         _______ _______ _______ _____ _____    ______ ____
ROOT
ATOM      1  C   UNL     1       0.432  -3.988   0.011  0.00  0.00    +0.150 C 
ATOM      2  C   UNL     1       1.869  -4.382  -0.240  0.00  0.00    +0.077 C 
ATOM      3  C   UNL     1       1.847  -5.353  -1.182  0.00  0.00    +0.250 C 
ATOM      4  C   UNL     1       0.449  -5.623  -1.570  0.00  0.00    +0.292 C 
ATOM      5  O   UNL     1       0.101  -6.444  -2.396  0.00  0.00    -0.266 OA
ATOM      6  N   UNL     1      -0.384  -4.827  -0.874  0.00  0.00    -0.253 N 
ATOM      7  O   UNL     1       2.936  -5.978  -1.689  0.00  0.00    -0.282 OA
ENDROOT
BRANCH   1  12
ATOM      8  C   UNL     1      -0.352   1.594  -1.264  0.00  0.00    +0.046 C 
ATOM      9  C   UNL     1      -0.148   0.138  -0.931  0.00  0.00    -0.020 A 
ATOM     10  C   UNL     1       0.003  -0.788  -1.946  0.00  0.00    +0.006 A 
ATOM     11  C   UNL     1       0.191  -2.123  -1.641  0.00  0.00    +0.006 A 
ATOM     12  C   UNL     1       0.228  -2.532  -0.321  0.00  0.00    -0.020 A 
ATOM     13  C   UNL     1       0.079  -1.606   0.694  0.00  0.00    +0.038 A 
ATOM     14  C   UNL     1      -0.105  -0.270   0.389  0.00  0.00    +0.129 A 
BRANCH  14  15
ATOM     15  N   UNL     1      -0.260   0.723   1.476  0.00  0.00    +0.057 N 
ATOM     16  O   UNL     1       0.217   1.827   1.358  0.00  0.00    -0.126 OA
ATOM     17  O   UNL     1      -0.864   0.429   2.481  0.00  0.00    -0.126 OA
ENDBRANCH  14  15
ENDBRANCH   1  12
BRANCH   6  18
ATOM     18  C   UNL     1      -1.778  -4.803  -0.975  0.00  0.00    +0.038 A 
ATOM     19  C   UNL     1      -2.518  -3.922  -0.196  0.00  0.00    +0.024 A 
ATOM     20  C   UNL     1      -3.895  -3.901  -0.299  0.00  0.00    +0.006 A 
ATOM     21  C   UNL     1      -4.537  -4.756  -1.176  0.00  0.00    -0.037 A 
ATOM     22  C   UNL     1      -3.804  -5.634  -1.953  0.00  0.00    +0.006 A 
ATOM     23  C   UNL     1      -2.426  -5.656  -1.859  0.00  0.00    +0.024 A 
BRANCH  21  24
ATOM     24  C   UNL     1      -6.040  -4.731  -1.285  0.00  0.00    +0.160 C 
BRANCH  24  25
ATOM     25  C   UNL     1      -6.450  -3.741  -2.344  0.00  0.00    +0.360 C 
ATOM     26  O   UNL     1      -5.601  -3.114  -2.954  0.00  0.00    -0.246 OA
ATOM     27  O   UNL     1      -7.632  -3.567  -2.591  0.00  0.00    -0.246 OA
ENDBRANCH  24  25
ENDBRANCH  21  24
ENDBRANCH   6  18
BRANCH   2  28
ATOM     28  C   UNL     1       3.058  -3.820   0.411  0.00  0.00    +0.202 C 
ATOM     29  O   UNL     1       3.883  -3.212  -0.248  0.00  0.00    -0.286 OA
BRANCH  28  30
ATOM     30  C   UNL     1       3.253  -3.991   1.853  0.00  0.00    +0.059 A 
ATOM     31  C   UNL     1       4.246  -3.465   2.671  0.00  0.00    +0.019 A 
ATOM     32  C   UNL     1       4.165  -3.805   3.999  0.00  0.00    +0.008 A 
ATOM     33  C   UNL     1       3.152  -4.607   4.415  0.00  0.00    +0.046 A 
ATOM     34  S   UNL     1       2.273  -4.920   3.018  0.00  0.00    -0.093 S 
ENDBRANCH  28  30
ENDBRANCH   2  28
TORSDOF 7
