REMARK  Name = ZINC32707968
REMARK  12 active torsions:
REMARK  status: ('A' for Active; 'I' for Inactive)
REMARK    1  A    between atoms: C_1  and  C_2
REMARK    2  A    between atoms: C_2  and  N_3
REMARK    3  A    between atoms: C_7  and  C_30
REMARK    4  A    between atoms: C_12  and  S_13
REMARK    5  A    between atoms: S_13  and  C_14
REMARK    6  A    between atoms: C_14  and  C_15
REMARK    7  A    between atoms: N_17  and  C_18
REMARK    8  A    between atoms: C_18  and  C_19
REMARK    9  A    between atoms: C_19  and  C_21
REMARK   10  A    between atoms: C_19  and  N_27
REMARK   11  A    between atoms: N_27  and  C_28
REMARK   12  A    between atoms: N_27  and  C_29
REMARK                            x       y       z     vdW  Elec       q    Type
REMARK                         _______ _______ _______ _____ _____    ______ ____
ROOT
ATOM      1  S   UNL     1       4.676   7.891   4.474  0.00  0.00    -0.078 S 
ENDROOT
BRANCH   1  11
ATOM      2  N   UNL     1       2.811   5.954   4.138  0.00  0.00    -0.288 N 
ATOM      3  C   UNL     1       1.679   5.414   3.651  0.00  0.00    +0.264 A 
ATOM      4  O   UNL     1       1.359   4.277   3.950  0.00  0.00    -0.267 OA
ATOM      5  C   UNL     1       0.853   6.192   2.783  0.00  0.00    +0.080 A 
ATOM      6  C   UNL     1      -0.403   5.827   2.133  0.00  0.00    +0.010 A 
ATOM      7  C   UNL     1      -1.014   6.738   1.338  0.00  0.00    +0.057 A 
ATOM      8  S   UNL     1       0.075   8.147   1.411  0.00  0.00    -0.076 S 
ATOM      9  C   UNL     1       1.314   7.489   2.497  0.00  0.00    +0.117 A 
ATOM     10  N   UNL     1       2.443   7.964   3.010  0.00  0.00    -0.216 NA
ATOM     11  C   UNL     1       3.184   7.226   3.813  0.00  0.00    +0.173 A 
BRANCH   6  12
ATOM     12  C   UNL     1      -1.000   4.491   2.344  0.00  0.00    +0.021 A 
ATOM     13  C   UNL     1      -2.281   4.165   2.701  0.00  0.00    +0.016 A 
ATOM     14  C   UNL     1      -2.612   2.833   2.835  0.00  0.00    +0.008 A 
ATOM     15  C   UNL     1      -1.660   1.890   2.620  0.00  0.00    +0.046 A 
ATOM     16  S   UNL     1      -0.237   2.883   2.200  0.00  0.00    -0.097 S 
ENDBRANCH   6  12
BRANCH   2  18
ATOM     17  C   UNL     1       3.224   5.392   6.482  0.00  0.00    +0.027 C 
ATOM     18  C   UNL     1       3.658   5.163   5.033  0.00  0.00    +0.124 C 
ENDBRANCH   2  18
ENDBRANCH   1  11
BRANCH   1  19
ATOM     19  C   UNL     1       4.647   9.537   3.724  0.00  0.00    +0.173 C 
BRANCH  19  20
ATOM     20  C   UNL     1       5.864  10.310   4.161  0.00  0.00    +0.223 C 
ATOM     21  O   UNL     1       6.672   9.798   4.906  0.00  0.00    -0.275 OA
ATOM     22  N   UNL     1       6.055  11.571   3.724  0.00  0.00    -0.316 N 
ATOM     23  H   UNL     1       5.322  12.035   3.047  0.00  0.00    +0.149 HD
BRANCH  22  24
ATOM     24  C   UNL     1       7.239  12.322   4.149  0.00  0.00    +0.093 C 
BRANCH  24  25
ATOM     25  C   UNL     1       7.317  13.635   3.366  0.00  0.00    -0.021 C 
BRANCH  25  26
ATOM     26  C   UNL     1       8.483  14.449   3.867  0.00  0.00    -0.059 A 
ATOM     27  C   UNL     1       9.739  14.264   3.322  0.00  0.00    +0.002 A 
ATOM     28  C   UNL     1      10.808  15.014   3.778  0.00  0.00    +0.000 A 
ATOM     29  C   UNL     1      10.621  15.942   4.785  0.00  0.00    +0.000 A 
ATOM     30  C   UNL     1       9.365  16.123   5.334  0.00  0.00    +0.000 A 
ATOM     31  C   UNL     1       8.296  15.376   4.875  0.00  0.00    +0.002 A 
ENDBRANCH  25  26
BRANCH  25  32
ATOM     32  N   UNL     1       7.501  13.344   1.938  0.00  0.00    +0.382 N 
ATOM     33  C   UNL     1       8.203  12.068   1.747  0.00  0.00    -0.096 C 
ATOM     34  C   UNL     1       6.214  13.347   1.231  0.00  0.00    -0.096 C 
ATOM     35  H   UNL     1       8.125  14.141   1.508  0.00  0.00    -0.082 HD
ENDBRANCH  25  32
ENDBRANCH  24  25
ENDBRANCH  22  24
ENDBRANCH  19  20
ENDBRANCH   1  19
TORSDOF 9
