REMARK  Name = ZINC35593091
REMARK  13 active torsions:
REMARK  status: ('A' for Active; 'I' for Inactive)
REMARK    1  A    between atoms: C_1  and  C_2
REMARK    2  A    between atoms: C_2  and  C_3
REMARK    3  A    between atoms: C_2  and  C_4
REMARK    4  A    between atoms: C_2  and  C_5
REMARK    5  A    between atoms: N_8  and  C_10
REMARK    6  A    between atoms: N_11  and  C_23
REMARK    7  A    between atoms: C_16  and  C_18
REMARK    8  A    between atoms: C_23  and  C_24
REMARK    9  A    between atoms: N_26  and  C_27
REMARK   10  A    between atoms: C_27  and  C_28
REMARK   11  A    between atoms: C_28  and  N_29
REMARK   12  A    between atoms: N_29  and  C_30
REMARK   13  A    between atoms: N_29  and  C_31
REMARK                            x       y       z     vdW  Elec       q    Type
REMARK                         _______ _______ _______ _____ _____    ______ ____
ROOT
ATOM      1  C   UNL     1       1.030  -0.066  -1.484  0.00  0.00    +0.075 A 
ATOM      2  C   UNL     1       0.211  -0.256  -2.598  0.00  0.00    +0.034 A 
ATOM      3  C   UNL     1       0.887   0.173  -3.689  0.00  0.00    +0.131 A 
ATOM      4  N   UNL     1       2.090   0.624  -3.287  0.00  0.00    -0.253 N 
ATOM      5  N   UNL     1       2.156   0.467  -1.894  0.00  0.00    -0.174 NA
ATOM      6  C   UNL     1       3.137   1.182  -4.147  0.00  0.00    +0.174 C 
ATOM      7  N   UNL     1       0.373   0.126  -4.994  0.00  0.00    -0.246 N 
ATOM      8  C   UNL     1      -0.180  -1.014  -5.421  0.00  0.00    +0.231 C 
ATOM      9  O   UNL     1      -0.893  -1.009  -6.402  0.00  0.00    -0.274 OA
ATOM     10  C   UNL     1       0.078  -2.298  -4.692  0.00  0.00    +0.166 C 
ATOM     11  S   UNL     1      -1.109  -2.515  -3.325  0.00  0.00    -0.138 S 
ATOM     12  C   UNL     1      -1.183  -0.829  -2.619  0.00  0.00    +0.118 C 
ENDROOT
BRANCH  12  13
ATOM     13  C   UNL     1      -1.726  -0.892  -1.214  0.00  0.00    +0.007 A 
ATOM     14  C   UNL     1      -1.524  -1.836  -0.263  0.00  0.00    +0.012 A 
ATOM     15  C   UNL     1      -2.129  -1.685   0.970  0.00  0.00    +0.008 A 
ATOM     16  C   UNL     1      -2.908  -0.598   1.192  0.00  0.00    +0.045 A 
ATOM     17  S   UNL     1      -2.795   0.261  -0.369  0.00  0.00    -0.100 S 
ENDBRANCH  12  13
BRANCH   1  19
ATOM     18  C   UNL     1       1.790   0.087   0.871  0.00  0.00    +0.017 C 
ATOM     19  C   UNL     1       0.679  -0.407  -0.059  0.00  0.00    +0.007 C 
ATOM     20  C   UNL     1       0.533  -1.923   0.082  0.00  0.00    +0.017 C 
ATOM     21  C   UNL     1      -0.640   0.270   0.318  0.00  0.00    +0.017 C 
ENDBRANCH   1  19
BRANCH   7  22
ATOM     22  C   UNL     1       0.441   1.299  -5.868  0.00  0.00    +0.210 C 
BRANCH  22  23
ATOM     23  C   UNL     1      -0.863   2.053  -5.799  0.00  0.00    +0.231 C 
ATOM     24  O   UNL     1      -1.714   1.720  -5.002  0.00  0.00    -0.274 OA
ATOM     25  N   UNL     1      -1.082   3.096  -6.624  0.00  0.00    -0.316 N 
ATOM     26  H   UNL     1      -0.402   3.362  -7.261  0.00  0.00    +0.149 HD
BRANCH  25  27
ATOM     27  C   UNL     1      -2.349   3.829  -6.557  0.00  0.00    +0.085 C 
BRANCH  27  28
ATOM     28  C   UNL     1      -2.342   4.957  -7.590  0.00  0.00    -0.061 C 
BRANCH  28  29
ATOM     29  N   UNL     1      -3.612   5.691  -7.523  0.00  0.00    +0.377 N 
ATOM     30  C   UNL     1      -3.559   6.846  -8.430  0.00  0.00    -0.097 C 
ATOM     31  C   UNL     1      -4.712   4.804  -7.924  0.00  0.00    -0.097 C 
ATOM     32  H   UNL     1      -3.766   6.012  -6.579  0.00  0.00    -0.083 HD
ENDBRANCH  28  29
ENDBRANCH  27  28
ENDBRANCH  25  27
ENDBRANCH  22  23
ENDBRANCH   7  22
TORSDOF 7
