REMARK  Name = ZINC23121380
REMARK  6 active torsions:
REMARK  status: ('A' for Active; 'I' for Inactive)
REMARK    1  A    between atoms: C_1  and  C_2
REMARK    2  A    between atoms: C_2  and  C_4
REMARK    3  A    between atoms: C_2  and  S_22
REMARK    4  A    between atoms: C_9  and  C_12
REMARK    5  A    between atoms: S_22  and  C_23
REMARK    6  A    between atoms: C_26  and  N_29
REMARK                            x       y       z     vdW  Elec       q    Type
REMARK                         _______ _______ _______ _____ _____    ______ ____
ROOT
ATOM      1  C   UNL     1       0.525  -0.352   1.711  0.00  0.00    +0.232 C 
ATOM      2  O   UNL     1      -0.250  -0.618   2.605  0.00  0.00    -0.274 OA
ATOM      3  N   UNL     1       1.852  -0.363   1.943  0.00  0.00    -0.264 N 
ATOM      4  C   UNL     1       2.333  -0.679   3.208  0.00  0.00    +0.165 A 
ATOM      5  N   UNL     1       3.581  -0.739   3.636  0.00  0.00    -0.225 NA
ATOM      6  C   UNL     1       3.863  -1.061   4.889  0.00  0.00    +0.080 A 
ATOM      7  C   UNL     1       2.843  -1.336   5.757  0.00  0.00    +0.076 A 
ATOM      8  S   UNL     1       1.428  -1.105   4.689  0.00  0.00    -0.060 S 
ATOM      9  H   UNL     1       2.471  -0.150   1.228  0.00  0.00    +0.157 HD
ENDROOT
BRANCH   6  10
ATOM     10  C   UNL     1       5.273  -1.122   5.347  0.00  0.00    +0.005 A 
ATOM     11  C   UNL     1       5.564  -1.467   6.666  0.00  0.00    +0.014 A 
ATOM     12  C   UNL     1       6.876  -1.523   7.090  0.00  0.00    +0.050 A 
ATOM     13  C   UNL     1       7.909  -1.237   6.207  0.00  0.00    +0.162 A 
ATOM     14  C   UNL     1       7.623  -0.894   4.890  0.00  0.00    +0.163 A 
ATOM     15  C   UNL     1       6.308  -0.841   4.459  0.00  0.00    +0.059 A 
ATOM     16  O   UNL     1       8.624  -0.619   4.009  0.00  0.00    -0.485 OA
ATOM     17  C   UNL     1       9.909  -0.323   4.567  0.00  0.00    +0.270 C 
ATOM     18  C   UNL     1      10.216  -1.370   5.647  0.00  0.00    +0.270 C 
ATOM     19  O   UNL     1       9.196  -1.294   6.648  0.00  0.00    -0.485 OA
ENDBRANCH   6  10
BRANCH   1  21
ATOM     20  C   UNL     1       0.008   1.510   0.157  0.00  0.00    +0.029 C 
ATOM     21  C   UNL     1       0.003  -0.009   0.339  0.00  0.00    +0.134 C 
BRANCH  21  22
ATOM     22  S   UNL     1      -1.692  -0.633   0.164  0.00  0.00    -0.113 S 
BRANCH  22  23
ATOM     23  C   UNL     1      -1.501  -2.384   0.138  0.00  0.00    +0.009 A 
ATOM     24  C   UNL     1      -0.230  -2.946   0.123  0.00  0.00    +0.017 A 
ATOM     25  C   UNL     1      -0.084  -4.319   0.103  0.00  0.00    +0.034 A 
ATOM     26  C   UNL     1      -1.201  -5.135   0.097  0.00  0.00    +0.126 A 
ATOM     27  C   UNL     1      -2.467  -4.579   0.111  0.00  0.00    +0.034 A 
ATOM     28  C   UNL     1      -2.621  -3.207   0.138  0.00  0.00    +0.017 A 
BRANCH  26  29
ATOM     29  N   UNL     1      -1.040  -6.606   0.075  0.00  0.00    +0.056 N 
ATOM     30  O   UNL     1       0.066  -7.093   0.063  0.00  0.00    -0.126 OA
ATOM     31  O   UNL     1      -2.016  -7.320   0.070  0.00  0.00    -0.126 OA
ENDBRANCH  26  29
ENDBRANCH  22  23
ENDBRANCH  21  22
ENDBRANCH   1  21
TORSDOF 5
