REMARK  Name = ZINC39597357
REMARK  8 active torsions:
REMARK  status: ('A' for Active; 'I' for Inactive)
REMARK    1  A    between atoms: C_1  and  O_2
REMARK    2  A    between atoms: O_2  and  C_3
REMARK    3  A    between atoms: C_7  and  C_9
REMARK    4  A    between atoms: C_13  and  C_22
REMARK    5  A    between atoms: N_24  and  C_25
REMARK    6  A    between atoms: C_25  and  C_26
REMARK    7  A    between atoms: C_31  and  O_32
REMARK    8  A    between atoms: O_32  and  C_33
REMARK                            x       y       z     vdW  Elec       q    Type
REMARK                         _______ _______ _______ _____ _____    ______ ____
ROOT
ATOM      1  C   UNL     1       0.930  -3.782  -2.517  0.00  0.00    +0.248 C 
ATOM      2  O   UNL     1       1.509  -4.395  -3.391  0.00  0.00    -0.270 OA
ATOM      3  N   UNL     1       0.350  -4.447  -1.498  0.00  0.00    -0.296 N 
ATOM      4  C   UNL     1      -0.308  -3.877  -0.298  0.00  0.00    +0.121 C 
ATOM      5  C   UNL     1      -1.540  -4.779  -0.063  0.00  0.00    +0.100 C 
ATOM      6  C   UNL     1      -1.183  -6.115  -0.737  0.00  0.00    -0.004 C 
ATOM      7  C   UNL     1       0.220  -5.914  -1.327  0.00  0.00    +0.115 C 
ATOM      8  C   UNL     1      -2.178  -6.427  -1.851  0.00  0.00    -0.010 C 
ATOM      9  C   UNL     1      -1.836  -7.786  -2.467  0.00  0.00    -0.082 C 
ATOM     10  N   UNL     1      -1.890  -8.824  -1.430  0.00  0.00    +0.379 N 
ATOM     11  C   UNL     1      -0.867  -8.566  -0.410  0.00  0.00    -0.082 C 
ATOM     12  C   UNL     1      -1.167  -7.240   0.294  0.00  0.00    -0.010 C 
ATOM     13  H   UNL     1      -2.802  -8.819  -0.999  0.00  0.00    -0.086 HD
ATOM     14  H   UNL     1      -1.725  -9.726  -1.850  0.00  0.00    -0.086 HD
ENDROOT
BRANCH   1  19
ATOM     15  C   UNL     1       0.657  -0.187  -1.452  0.00  0.00    +0.121 A 
ATOM     16  C   UNL     1       0.731   0.462  -2.678  0.00  0.00    +0.047 A 
ATOM     17  C   UNL     1       0.868  -0.267  -3.844  0.00  0.00    +0.019 A 
ATOM     18  C   UNL     1       0.933  -1.646  -3.798  0.00  0.00    +0.030 A 
ATOM     19  C   UNL     1       0.861  -2.307  -2.570  0.00  0.00    +0.054 A 
ATOM     20  C   UNL     1       0.727  -1.568  -1.393  0.00  0.00    +0.059 A 
ATOM     21 BR   UNL     1       1.120  -2.638  -5.397  0.00  0.00    -0.050 Br
BRANCH  15  23
ATOM     22  C   UNL     1       0.335   1.945  -0.449  0.00  0.00    +0.277 C 
ATOM     23  O   UNL     1       0.522   0.535  -0.308  0.00  0.00    -0.495 OA
ENDBRANCH  15  23
ENDBRANCH   1  19
BRANCH   5  24
ATOM     24  C   UNL     1      -2.763  -4.175  -0.704  0.00  0.00    +0.218 C 
ATOM     25  O   UNL     1      -2.657  -3.542  -1.734  0.00  0.00    -0.275 OA
ATOM     26  N   UNL     1      -3.973  -4.339  -0.134  0.00  0.00    -0.311 N 
ATOM     27  H   UNL     1      -4.048  -4.783   0.725  0.00  0.00    +0.149 HD
BRANCH  26  28
ATOM     28  C   UNL     1      -5.174  -3.845  -0.812  0.00  0.00    +0.143 C 
BRANCH  28  29
ATOM     29  C   UNL     1      -6.372  -4.041   0.082  0.00  0.00    +0.011 A 
ATOM     30  C   UNL     1      -7.242  -5.089  -0.149  0.00  0.00    +0.009 A 
ATOM     31  C   UNL     1      -8.341  -5.269   0.671  0.00  0.00    +0.001 A 
ATOM     32  C   UNL     1      -8.571  -4.402   1.723  0.00  0.00    +0.004 A 
ATOM     33  C   UNL     1      -7.704  -3.353   1.958  0.00  0.00    +0.046 A 
ATOM     34  C   UNL     1      -6.597  -3.174   1.140  0.00  0.00    +0.125 A 
BRANCH  34  35
ATOM     35  O   UNL     1      -5.739  -2.146   1.373  0.00  0.00    -0.495 OA
ATOM     36  C   UNL     1      -5.974  -1.356   2.540  0.00  0.00    +0.277 C 
ENDBRANCH  34  35
ENDBRANCH  28  29
ENDBRANCH  26  28
ENDBRANCH   5  24
TORSDOF 6
