REMARK  Name = ZINC67102484
REMARK  7 active torsions:
REMARK  status: ('A' for Active; 'I' for Inactive)
REMARK    1  A    between atoms: C_1  and  C_2
REMARK    2  A    between atoms: C_7  and  C_8
REMARK    3  A    between atoms: C_8  and  C_10
REMARK    4  A    between atoms: C_8  and  N_11
REMARK    5  A    between atoms: N_14  and  N_15
REMARK    6  A    between atoms: C_16  and  C_18
REMARK    7  A    between atoms: C_19  and  C_23
REMARK                            x       y       z     vdW  Elec       q    Type
REMARK                         _______ _______ _______ _____ _____    ______ ____
ROOT
ATOM      1  N   UNL     1       0.630  -0.793   3.543  0.00  0.00    -0.292 N 
ATOM      2  C   UNL     1       1.199  -0.221   4.623  0.00  0.00    +0.316 C 
ATOM      3  O   UNL     1       1.211   0.989   4.735  0.00  0.00    -0.251 OA
ATOM      4  N   UNL     1       1.756  -0.992   5.578  0.00  0.00    -0.218 N 
ATOM      5  H   UNL     1       0.621  -1.758   3.453  0.00  0.00    +0.151 HD
ATOM      6  H   UNL     1       2.166  -0.581   6.355  0.00  0.00    +0.174 HD
ENDROOT
BRANCH   4   7
ATOM      7  N   UNL     1       1.743  -2.387   5.449  0.00  0.00    -0.229 N 
ATOM      8  C   UNL     1       2.300  -3.157   6.404  0.00  0.00    +0.267 C 
ATOM      9  O   UNL     1       2.814  -2.641   7.379  0.00  0.00    -0.268 OA
ATOM     10  H   UNL     1       1.333  -2.798   4.672  0.00  0.00    +0.173 HD
BRANCH   8  11
ATOM     11  C   UNL     1       2.286  -4.617   6.269  0.00  0.00    +0.078 A 
ATOM     12  C   UNL     1       2.792  -5.579   7.130  0.00  0.00    -0.031 A 
ATOM     13  C   UNL     1       2.627  -6.883   6.730  0.00  0.00    +0.011 A 
ATOM     14  C   UNL     1       2.000  -7.138   5.555  0.00  0.00    +0.046 A 
ATOM     15  S   UNL     1       1.608  -5.618   4.959  0.00  0.00    -0.092 S 
ATOM     16  C   UNL     1       3.479  -5.217   8.421  0.00  0.00    +0.045 C 
ENDBRANCH   8  11
ENDBRANCH   4   7
BRANCH   1  17
ATOM     17  C   UNL     1       0.025   0.045   2.504  0.00  0.00    +0.102 C 
ATOM     18  C   UNL     1      -1.413   0.387   2.899  0.00  0.00    +0.033 C 
BRANCH  17  25
ATOM     19  C   UNL     1      -0.018   1.503   0.010  0.00  0.00    +0.044 C 
ATOM     20  C   UNL     1       0.002  -0.004   0.002  0.00  0.00    -0.046 A 
ATOM     21  C   UNL     1       0.006  -0.689  -1.199  0.00  0.00    +0.004 A 
ATOM     22  C   UNL     1       0.025  -2.071  -1.207  0.00  0.00    +0.000 A 
ATOM     23  C   UNL     1       0.040  -2.768  -0.013  0.00  0.00    +0.000 A 
ATOM     24  C   UNL     1       0.037  -2.084   1.188  0.00  0.00    +0.006 A 
ATOM     25  C   UNL     1       0.023  -0.702   1.195  0.00  0.00    -0.025 A 
ENDBRANCH  17  25
ENDBRANCH   1  17
TORSDOF 4
