REMARK  Name = ZINC08951891
REMARK  15 active torsions:
REMARK  status: ('A' for Active; 'I' for Inactive)
REMARK    1  A    between atoms: C_1  and  C_2
REMARK    2  A    between atoms: C_5  and  O_33
REMARK    3  A    between atoms: C_7  and  C_24
REMARK    4  A    between atoms: C_7  and  C_25
REMARK    5  A    between atoms: C_14  and  C_16
REMARK    6  A    between atoms: C_17  and  C_18
REMARK    7  A    between atoms: C_25  and  O_26
REMARK    8  A    between atoms: O_26  and  C_27
REMARK    9  A    between atoms: C_27  and  C_29
REMARK   10  A    between atoms: C_29  and  C_30
REMARK   11  A    between atoms: C_30  and  C_31
REMARK   12  A    between atoms: O_33  and  C_34
REMARK   13  A    between atoms: C_34  and  C_36
REMARK   14  A    between atoms: C_36  and  C_37
REMARK   15  A    between atoms: C_37  and  C_38
REMARK                            x       y       z     vdW  Elec       q    Type
REMARK                         _______ _______ _______ _____ _____    ______ ____
ROOT
ATOM      1  C   UNL     1       1.053   3.442   0.674  0.00  0.00    +0.012 C 
ATOM      2  C   UNL     1       1.252   1.932   0.476  0.00  0.00    -0.018 C 
ATOM      3  C   UNL     1       2.172   1.701  -0.720  0.00  0.00    +0.011 C 
ATOM      4  C   UNL     1       3.567   2.253  -0.420  0.00  0.00    +0.046 C 
ATOM      5  C   UNL     1       4.158   1.555   0.799  0.00  0.00    +0.186 C 
ATOM      6  C   UNL     1       3.260   1.708   2.025  0.00  0.00    +0.042 C 
ATOM      7  C   UNL     1       1.832   1.259   1.717  0.00  0.00    +0.009 C 
ATOM      8  C   UNL     1       1.855  -0.266   1.538  0.00  0.00    +0.009 C 
ATOM      9  C   UNL     1       0.456  -0.833   1.273  0.00  0.00    +0.031 C 
ATOM     10  C   UNL     1      -0.105  -0.111   0.066  0.00  0.00    -0.069 C 
ATOM     11  C   UNL     1      -0.517  -0.751  -0.992  0.00  0.00    +0.008 C 
ATOM     12  C   UNL     1      -0.156   1.392   0.175  0.00  0.00    +0.043 C 
ATOM     13  C   UNL     1       3.855   0.815   3.139  0.00  0.00    +0.018 C 
ENDROOT
BRANCH  12  14
ATOM     14  C   UNL     1      -0.703   1.995  -1.086  0.00  0.00    -0.018 C 
ATOM     15  C   UNL     1      -1.808   2.728  -1.046  0.00  0.00    +0.011 C 
BRANCH  15  16
ATOM     16  C   UNL     1      -2.346   3.322  -2.288  0.00  0.00    +0.058 C 
ATOM     17  C   UNL     1      -3.457   4.076  -2.373  0.00  0.00    +0.028 C 
ATOM     18  C   UNL     1      -3.612   4.460  -3.826  0.00  0.00    +0.261 C 
ATOM     19  O   UNL     1      -2.498   3.844  -4.531  0.00  0.00    -0.457 OA
ATOM     20  C   UNL     1      -1.756   3.177  -3.629  0.00  0.00    +0.339 C 
ATOM     21  O   UNL     1      -0.748   2.549  -3.884  0.00  0.00    -0.245 OA
ENDBRANCH  15  16
ENDBRANCH  12  14
BRANCH   6  22
ATOM     22  C   UNL     1       3.339   3.136   2.566  0.00  0.00    +0.242 C 
BRANCH  22  23
ATOM     23  O   UNL     1       2.463   3.267   3.717  0.00  0.00    -0.464 OA
BRANCH  23  24
ATOM     24  C   UNL     1       2.416   4.468   4.314  0.00  0.00    +0.308 C 
ATOM     25  O   UNL     1       3.084   5.380   3.889  0.00  0.00    -0.251 OA
BRANCH  24  26
ATOM     26  C   UNL     1       1.530   4.679   5.515  0.00  0.00    +0.132 C 
BRANCH  26  27
ATOM     27  C   UNL     1       1.661   6.125   5.998  0.00  0.00    +0.136 C 
BRANCH  27  28
ATOM     28  C   UNL     1       0.775   6.335   7.199  0.00  0.00    +0.357 C 
ATOM     29  O   UNL     1       0.107   5.423   7.624  0.00  0.00    -0.246 OA
ATOM     30  O   UNL     1       0.728   7.537   7.795  0.00  0.00    -0.246 OA
ENDBRANCH  27  28
ENDBRANCH  26  27
ENDBRANCH  24  26
ENDBRANCH  23  24
ENDBRANCH  22  23
ENDBRANCH   6  22
BRANCH   5  31
ATOM     31  O   UNL     1       5.466   2.122   1.091  0.00  0.00    -0.461 OA
BRANCH  31  32
ATOM     32  C   UNL     1       6.525   1.546   0.501  0.00  0.00    +0.308 C 
ATOM     33  O   UNL     1       6.367   0.602  -0.236  0.00  0.00    -0.251 OA
BRANCH  32  34
ATOM     34  C   UNL     1       7.912   2.078   0.756  0.00  0.00    +0.132 C 
BRANCH  34  35
ATOM     35  C   UNL     1       8.929   1.250  -0.031  0.00  0.00    +0.136 C 
BRANCH  35  36
ATOM     36  C   UNL     1      10.316   1.782   0.224  0.00  0.00    +0.357 C 
ATOM     37  O   UNL     1      10.474   2.726   0.961  0.00  0.00    -0.246 OA
ATOM     38  O   UNL     1      11.375   1.206  -0.367  0.00  0.00    -0.246 OA
ENDBRANCH  35  36
ENDBRANCH  34  35
ENDBRANCH  32  34
ENDBRANCH  31  32
ENDBRANCH   5  31
TORSDOF 13
