REMARK  Name = ZINC66338141
REMARK  10 active torsions:
REMARK  status: ('A' for Active; 'I' for Inactive)
REMARK    1  A    between atoms: C_1  and  C_2
REMARK    2  A    between atoms: C_5  and  C_8
REMARK    3  A    between atoms: C_8  and  N_9
REMARK    4  A    between atoms: N_9  and  C_10
REMARK    5  A    between atoms: C_10  and  C_11
REMARK    6  A    between atoms: C_13  and  C_15
REMARK    7  A    between atoms: C_15  and  C_16
REMARK    8  A    between atoms: C_16  and  C_18
REMARK    9  A    between atoms: C_16  and  N_26
REMARK   10  A    between atoms: C_27  and  C_29
REMARK                            x       y       z     vdW  Elec       q    Type
REMARK                         _______ _______ _______ _____ _____    ______ ____
ROOT
ATOM      1  C   UNL     1       3.465  -5.611  -1.219  0.00  0.00    +0.123 C 
ENDROOT
BRANCH   1   3
ATOM      2  N   UNL     1       1.387  -5.018  -0.015  0.00  0.00    -0.286 N 
ATOM      3  C   UNL     1       2.049  -5.096  -1.187  0.00  0.00    +0.219 C 
ATOM      4  O   UNL     1       1.506  -4.750  -2.214  0.00  0.00    -0.275 OA
BRANCH   2   5
ATOM      5  C   UNL     1       0.011  -4.517   0.017  0.00  0.00    +0.143 C 
BRANCH   5  10
ATOM      6  C   UNL     1       0.061   1.211   0.776  0.00  0.00    +0.044 C 
ATOM      7  C   UNL     1       0.048  -0.283   0.578  0.00  0.00    -0.050 A 
ATOM      8  C   UNL     1       0.073  -0.811  -0.699  0.00  0.00    +0.003 A 
ATOM      9  C   UNL     1       0.061  -2.181  -0.881  0.00  0.00    +0.005 A 
ATOM     10  C   UNL     1       0.025  -3.023   0.215  0.00  0.00    -0.030 A 
ATOM     11  C   UNL     1       0.001  -2.495   1.492  0.00  0.00    +0.005 A 
ATOM     12  C   UNL     1       0.017  -1.125   1.674  0.00  0.00    +0.003 A 
ENDBRANCH   5  10
ENDBRANCH   2   5
BRANCH   2  13
ATOM     13  C   UNL     1       2.044  -5.435   1.226  0.00  0.00    +0.197 C 
BRANCH  13  14
ATOM     14  C   UNL     1       1.789  -6.866   1.459  0.00  0.00    -0.086 C 
ATOM     15  C   UNL     1       1.586  -8.008   1.645  0.00  0.00    +0.005 C 
ENDBRANCH  13  14
ENDBRANCH   2  13
ENDBRANCH   1   3
BRANCH   1  16
ATOM     16  C   UNL     1       3.980  -5.596  -2.660  0.00  0.00    +0.117 C 
BRANCH  16  17
ATOM     17  C   UNL     1       5.410  -6.071  -2.687  0.00  0.00    +0.043 A 
ATOM     18  C   UNL     1       5.955  -6.691  -1.576  0.00  0.00    +0.131 A 
ATOM     19  C   UNL     1       7.269  -7.127  -1.603  0.00  0.00    +0.039 A 
ATOM     20  C   UNL     1       8.036  -6.943  -2.737  0.00  0.00    +0.006 A 
ATOM     21  C   UNL     1       7.493  -6.323  -3.847  0.00  0.00    +0.039 A 
ATOM     22  C   UNL     1       6.178  -5.892  -3.825  0.00  0.00    +0.131 A 
ATOM     23  F   UNL     1       5.645  -5.292  -4.912  0.00  0.00    -0.205 F 
ATOM     24  F   UNL     1       5.205  -6.871  -0.467  0.00  0.00    -0.205 F 
ENDBRANCH  16  17
BRANCH  16  25
ATOM     25  N   UNL     1       3.908  -4.233  -3.190  0.00  0.00    -0.308 N 
ATOM     26  C   UNL     1       4.665  -3.258  -2.649  0.00  0.00    +0.210 C 
ATOM     27  O   UNL     1       5.338  -3.489  -1.666  0.00  0.00    -0.276 OA
ATOM     28  C   UNL     1       4.676  -1.883  -3.264  0.00  0.00    +0.109 C 
ATOM     29  H   UNL     1       3.315  -4.031  -3.931  0.00  0.00    +0.149 HD
ENDBRANCH  16  25
ENDBRANCH   1  16
TORSDOF 8
