REMARK  Name = ZINC09248004
REMARK  5 active torsions:
REMARK  status: ('A' for Active; 'I' for Inactive)
REMARK    1  A    between atoms: C_4  and  O_10
REMARK    2  A    between atoms: C_5  and  C_7
REMARK    3  A    between atoms: O_10  and  C_11
REMARK    4  A    between atoms: C_11  and  C_12
REMARK    5  A    between atoms: N_14  and  C_15
REMARK                            x       y       z     vdW  Elec       q    Type
REMARK                         _______ _______ _______ _____ _____    ______ ____
ROOT
ATOM      1  C   UNL     1      -2.538   4.051   0.034  0.00  0.00    +0.255 C 
ATOM      2  O   UNL     1      -3.492   3.302   0.026  0.00  0.00    -0.272 OA
ATOM      3  N   UNL     1      -2.730   5.385   0.044  0.00  0.00    -0.283 N 
ATOM      4  H   UNL     1      -1.970   5.984   0.118  0.00  0.00    +0.155 HD
ENDROOT
BRANCH   3   5
ATOM      5  C   UNL     1      -4.026   5.907  -0.052  0.00  0.00    +0.037 A 
ATOM      6  C   UNL     1      -5.090   5.240   0.541  0.00  0.00    +0.027 A 
ATOM      7  C   UNL     1      -6.369   5.755   0.446  0.00  0.00    +0.051 A 
ATOM      8  C   UNL     1      -6.594   6.937  -0.240  0.00  0.00    +0.173 A 
ATOM      9  C   UNL     1      -5.529   7.608  -0.836  0.00  0.00    +0.174 A 
ATOM     10  C   UNL     1      -4.247   7.095  -0.737  0.00  0.00    +0.073 A 
ATOM     11  O   UNL     1      -6.008   8.733  -1.443  0.00  0.00    -0.395 OA
ATOM     12  C   UNL     1      -7.308   8.959  -0.867  0.00  0.00    +0.589 C 
ATOM     13  O   UNL     1      -7.740   7.642  -0.474  0.00  0.00    -0.395 OA
ATOM     14  F   UNL     1      -7.212   9.798   0.248  0.00  0.00    -0.125 F 
ATOM     15  F   UNL     1      -8.179   9.502  -1.816  0.00  0.00    -0.125 F 
ENDBRANCH   3   5
BRANCH   1  16
ATOM     16  C   UNL     1      -1.140   3.490   0.033  0.00  0.00    +0.324 C 
BRANCH  16  17
ATOM     17  O   UNL     1      -1.199   2.063   0.022  0.00  0.00    -0.482 OA
BRANCH  17  21
ATOM     18  C   UNL     1       2.405   0.037   0.003  0.00  0.00    +0.001 A 
ATOM     19  C   UNL     1       2.381   1.423   0.014  0.00  0.00    +0.004 A 
ATOM     20  C   UNL     1       1.179   2.101   0.022  0.00  0.00    +0.046 A 
ATOM     21  C   UNL     1      -0.016   1.397   0.019  0.00  0.00    +0.133 A 
ATOM     22  C   UNL     1       0.003  -0.004   0.008  0.00  0.00    +0.078 A 
ATOM     23  C   UNL     1       1.227  -0.677   0.000  0.00  0.00    +0.017 A 
BRANCH  22  24
ATOM     24  C   UNL     1      -1.262  -0.763   0.005  0.00  0.00    +0.245 C 
ATOM     25  O   UNL     1      -2.325  -0.173   0.012  0.00  0.00    -0.270 OA
ATOM     26  N   UNL     1      -1.239  -2.111  -0.006  0.00  0.00    -0.325 N 
ATOM     27  H   UNL     1      -0.391  -2.581  -0.011  0.00  0.00    +0.145 HD
ATOM     28  H   UNL     1      -2.071  -2.610  -0.008  0.00  0.00    +0.145 HD
ENDBRANCH  22  24
ENDBRANCH  17  21
ENDBRANCH  16  17
ENDBRANCH   1  16
TORSDOF 5
