REMARK  Name = ZINC17112016
REMARK  3 active torsions:
REMARK  status: ('A' for Active; 'I' for Inactive)
REMARK    1  A    between atoms: C_1  and  C_2
REMARK    2  A    between atoms: C_14  and  C_17
REMARK    3  A    between atoms: C_17  and  C_19
REMARK                            x       y       z     vdW  Elec       q    Type
REMARK                         _______ _______ _______ _____ _____    ______ ____
ROOT
ATOM      1  C   UNL     1       0.600   1.833   0.067  0.00  0.00    +0.031 C 
ATOM      2  C   UNL     1       0.323   0.330   0.006  0.00  0.00    +0.092 C 
ATOM      3  C   UNL     1       1.021  -0.293  -1.220  0.00  0.00    +0.062 C 
ATOM      4  C   UNL     1       1.980  -1.303  -0.635  0.00  0.00    -0.021 A 
ATOM      5  C   UNL     1       2.889  -2.187  -1.176  0.00  0.00    +0.006 A 
ATOM      6  C   UNL     1       3.643  -3.007  -0.346  0.00  0.00    +0.001 A 
ATOM      7  C   UNL     1       3.502  -2.958   1.027  0.00  0.00    +0.014 A 
ATOM      8  C   UNL     1       2.585  -2.067   1.581  0.00  0.00    +0.046 A 
ATOM      9  C   UNL     1       1.835  -1.250   0.735  0.00  0.00    +0.059 A 
ATOM     10  N   UNL     1       0.908  -0.344   1.178  0.00  0.00    -0.304 N 
ATOM     11  C   UNL     1       0.671  -0.197   2.502  0.00  0.00    +0.267 A 
ATOM     12  O   UNL     1      -0.246   0.702   2.907  0.00  0.00    -0.267 OA
ATOM     13  C   UNL     1       1.350  -0.952   3.461  0.00  0.00    +0.137 A 
ATOM     14  C   UNL     1       2.361  -1.940   3.034  0.00  0.00    +0.204 A 
ATOM     15  O   UNL     1       2.976  -2.617   3.840  0.00  0.00    -0.286 OA
ENDROOT
BRANCH  13  16
ATOM     16  C   UNL     1       1.063  -0.761   4.884  0.00  0.00    +0.242 C 
ATOM     17  O   UNL     1      -0.029  -1.062   5.330  0.00  0.00    -0.283 OA
BRANCH  16  18
ATOM     18  C   UNL     1       2.100  -0.202   5.780  0.00  0.00    +0.247 A 
ATOM     19  N   UNL     1       3.294   0.271   5.420  0.00  0.00    -0.103 NA
ATOM     20  N   UNL     1       3.895   0.662   6.492  0.00  0.00    -0.021 NA
ATOM     21  N   UNL     1       3.130   0.455   7.507  0.00  0.00    -0.021 NA
ATOM     22  N   UNL     1       2.022  -0.067   7.104  0.00  0.00    -0.103 NA
ENDBRANCH  16  18
ENDBRANCH  13  16
TORSDOF 2
