REMARK  Name = ZINC29202353
REMARK  12 active torsions:
REMARK  status: ('A' for Active; 'I' for Inactive)
REMARK    1  A    between atoms: C_1  and  C_2
REMARK    2  A    between atoms: C_4  and  S_24
REMARK    3  A    between atoms: C_6  and  N_9
REMARK    4  A    between atoms: C_7  and  C_8
REMARK    5  A    between atoms: C_10  and  C_12
REMARK    6  A    between atoms: C_12  and  N_13
REMARK    7  A    between atoms: N_13  and  C_14
REMARK    8  A    between atoms: C_14  and  C_16
REMARK    9  A    between atoms: C_14  and  C_21
REMARK   10  A    between atoms: C_21  and  C_22
REMARK   11  A    between atoms: C_21  and  C_23
REMARK   12  A    between atoms: S_24  and  N_27
REMARK                            x       y       z     vdW  Elec       q    Type
REMARK                         _______ _______ _______ _____ _____    ______ ____
ROOT
ATOM      1  N   UNL     1      -3.002   0.141   3.849  0.00  0.00    -0.287 N 
ATOM      2  C   UNL     1      -3.387  -1.008   3.258  0.00  0.00    +0.200 C 
ATOM      3  O   UNL     1      -2.724  -1.480   2.360  0.00  0.00    -0.278 OA
ATOM      4  H   UNL     1      -3.569   0.537   4.704  0.00  0.00    +0.155 HD
ENDROOT
BRANCH   1  10
ATOM      5  C   UNL     1      -0.691   4.398   3.008  0.00  0.00    +0.044 C 
ATOM      6  C   UNL     1      -0.733   2.893   2.954  0.00  0.00    -0.044 A 
ATOM      7  C   UNL     1       0.341   2.190   2.439  0.00  0.00    +0.032 A 
ATOM      8  C   UNL     1       0.304   0.809   2.383  0.00  0.00    +0.107 A 
ATOM      9  C   UNL     1      -0.802   0.126   2.851  0.00  0.00    +0.052 A 
ATOM     10  C   UNL     1      -1.880   0.829   3.374  0.00  0.00    +0.038 A 
ATOM     11  C   UNL     1      -1.842   2.217   3.424  0.00  0.00    -0.026 A 
ATOM     12  C   UNL     1      -3.009   2.983   3.990  0.00  0.00    +0.046 C 
BRANCH   8  13
ATOM     13  S   UNL     1       1.672  -0.082   1.719  0.00  0.00    +0.056 S 
ATOM     14  O   UNL     1       1.621  -1.385   2.285  0.00  0.00    -0.153 OA
ATOM     15  O   UNL     1       2.808   0.761   1.850  0.00  0.00    -0.153 OA
BRANCH  13  16
ATOM     16  N   UNL     1       1.399  -0.260   0.096  0.00  0.00    -0.204 NA
ATOM     17  H   UNL     1       2.234  -0.814  -0.358  0.00  0.00    +0.144 HD
ATOM     18  H   UNL     1       1.319   0.732  -0.373  0.00  0.00    +0.144 HD
ENDBRANCH  13  16
ENDBRANCH   8  13
ENDBRANCH   1  10
BRANCH   2  19
ATOM     19  C   UNL     1      -4.643  -1.705   3.715  0.00  0.00    +0.016 C 
BRANCH  19  20
ATOM     20  N   UNL     1      -4.843  -2.924   2.921  0.00  0.00    +0.390 N 
ATOM     21  H   UNL     1      -4.854  -2.667   1.851  0.00  0.00    -0.084 HD
ATOM     22  H   UNL     1      -4.022  -3.630   3.119  0.00  0.00    -0.084 HD
BRANCH  20  23
ATOM     23  C   UNL     1      -6.115  -3.573   3.263  0.00  0.00    -0.031 C 
BRANCH  23  24
ATOM     24  C   UNL     1      -5.900  -4.526   4.410  0.00  0.00    -0.024 A 
ATOM     25  C   UNL     1      -6.693  -4.763   5.484  0.00  0.00    +0.009 A 
ATOM     26  C   UNL     1      -6.292  -5.696   6.422  0.00  0.00    +0.008 A 
ATOM     27  C   UNL     1      -5.112  -6.339   6.245  0.00  0.00    +0.045 A 
ATOM     28  S   UNL     1      -4.531  -5.632   4.712  0.00  0.00    -0.103 S 
ENDBRANCH  23  24
BRANCH  23  29
ATOM     29  C   UNL     1      -6.637  -4.345   2.050  0.00  0.00    -0.027 C 
ATOM     30  C   UNL     1      -7.004  -3.361   0.938  0.00  0.00    +0.006 C 
ATOM     31  C   UNL     1      -5.551  -5.300   1.547  0.00  0.00    +0.006 C 
ENDBRANCH  23  29
ENDBRANCH  20  23
ENDBRANCH  19  20
ENDBRANCH   2  19
TORSDOF 8
