REMARK  Name = ZINC25043286
REMARK  13 active torsions:
REMARK  status: ('A' for Active; 'I' for Inactive)
REMARK    1  A    between atoms: C_1  and  C_2
REMARK    2  A    between atoms: C_2  and  C_3
REMARK    3  A    between atoms: C_3  and  C_25
REMARK    4  A    between atoms: N_6  and  C_10
REMARK    5  A    between atoms: C_10  and  C_11
REMARK    6  A    between atoms: C_11  and  O_12
REMARK    7  A    between atoms: O_12  and  C_13
REMARK    8  A    between atoms: C_16  and  S_19
REMARK    9  A    between atoms: S_19  and  N_22
REMARK   10  A    between atoms: N_22  and  C_23
REMARK   11  A    between atoms: N_22  and  C_24
REMARK   12  A    between atoms: C_28  and  O_31
REMARK   13  A    between atoms: O_31  and  C_32
REMARK                            x       y       z     vdW  Elec       q    Type
REMARK                         _______ _______ _______ _____ _____    ______ ____
ROOT
ATOM      1  C   UNL     1      -0.011   5.201  -1.706  0.00  0.00    +0.138 C 
ATOM      2  C   UNL     1       0.314   3.734  -1.907  0.00  0.00    +0.251 C 
ATOM      3  O   UNL     1       1.262   3.269  -2.503  0.00  0.00    -0.272 OA
ATOM      4  N   UNL     1      -0.670   3.054  -1.286  0.00  0.00    -0.221 N 
ATOM      5  C   UNL     1      -1.565   3.879  -0.731  0.00  0.00    +0.310 C 
ATOM      6  O   UNL     1      -2.544   3.500  -0.119  0.00  0.00    -0.252 OA
ATOM      7  N   UNL     1      -1.257   5.175  -0.921  0.00  0.00    -0.281 N 
ATOM      8  H   UNL     1      -1.736   6.117  -0.618  0.00  0.00    +0.152 HD
ENDROOT
BRANCH   1   9
ATOM      9  C   UNL     1      -0.229   5.882  -3.032  0.00  0.00    -0.015 A 
ATOM     10  C   UNL     1       0.834   6.478  -3.686  0.00  0.00    +0.010 A 
ATOM     11  C   UNL     1       0.637   7.098  -4.904  0.00  0.00    +0.046 A 
ATOM     12  C   UNL     1      -0.631   7.133  -5.467  0.00  0.00    +0.120 A 
ATOM     13  C   UNL     1      -1.697   6.540  -4.806  0.00  0.00    +0.046 A 
ATOM     14  C   UNL     1      -1.494   5.915  -3.591  0.00  0.00    +0.010 A 
BRANCH  12  15
ATOM     15  O   UNL     1      -0.828   7.749  -6.662  0.00  0.00    -0.495 OA
ATOM     16  C   UNL     1       0.315   8.338  -7.285  0.00  0.00    +0.277 C 
ENDBRANCH  12  15
ENDBRANCH   1   9
BRANCH   1  18
ATOM     17  C   UNL     1       1.270   5.220   0.439  0.00  0.00    +0.007 C 
ATOM     18  C   UNL     1       1.104   5.897  -0.923  0.00  0.00    +0.037 C 
ENDBRANCH   1  18
BRANCH   4  19
ATOM     19  C   UNL     1      -0.753   1.593  -1.232  0.00  0.00    +0.159 C 
BRANCH  19  20
ATOM     20  C   UNL     1      -0.013   1.086   0.008  0.00  0.00    +0.248 C 
BRANCH  20  21
ATOM     21  O   UNL     1      -0.682   1.547   1.184  0.00  0.00    -0.490 OA
BRANCH  21  22
ATOM     22  C   UNL     1      -0.149   1.182   2.380  0.00  0.00    +0.121 A 
ATOM     23  C   UNL     1       0.991   0.392   2.421  0.00  0.00    +0.047 A 
ATOM     24  C   UNL     1       1.534   0.028   3.638  0.00  0.00    +0.032 A 
ATOM     25  C   UNL     1       0.936   0.440   4.814  0.00  0.00    +0.106 A 
ATOM     26  C   UNL     1      -0.203   1.223   4.776  0.00  0.00    +0.032 A 
ATOM     27  C   UNL     1      -0.747   1.595   3.561  0.00  0.00    +0.047 A 
BRANCH  25  28
ATOM     28  S   UNL     1       1.627  -0.033   6.364  0.00  0.00    +0.060 S 
ATOM     29  O   UNL     1       3.001  -0.308   6.130  0.00  0.00    -0.153 OA
ATOM     30  O   UNL     1       1.195   0.934   7.313  0.00  0.00    -0.153 OA
BRANCH  28  31
ATOM     31  N   UNL     1       0.923  -1.468   6.797  0.00  0.00    -0.183 NA
ATOM     32  C   UNL     1       1.532  -2.735   6.386  0.00  0.00    +0.131 C 
ATOM     33  C   UNL     1      -0.308  -1.470   7.591  0.00  0.00    +0.131 C 
ENDBRANCH  28  31
ENDBRANCH  25  28
ENDBRANCH  21  22
ENDBRANCH  20  21
ENDBRANCH  19  20
ENDBRANCH   4  19
TORSDOF 9
