REMARK  Name = ZINC13523210
REMARK  8 active torsions:
REMARK  status: ('A' for Active; 'I' for Inactive)
REMARK    1  A    between atoms: C_4  and  N_7
REMARK    2  A    between atoms: N_7  and  C_8
REMARK    3  A    between atoms: N_7  and  C_28
REMARK    4  A    between atoms: C_8  and  C_9
REMARK    5  A    between atoms: N_11  and  C_12
REMARK    6  A    between atoms: C_12  and  C_13
REMARK    7  A    between atoms: C_13  and  N_14
REMARK    8  A    between atoms: C_18  and  C_19
REMARK                            x       y       z     vdW  Elec       q    Type
REMARK                         _______ _______ _______ _____ _____    ______ ____
ROOT
ATOM      1  C   UNL     1       5.975  -0.111   1.394  0.00  0.00    +0.231 C 
ATOM      2  O   UNL     1       5.310  -0.830   2.110  0.00  0.00    -0.274 OA
ATOM      3  N   UNL     1       6.780   0.823   1.938  0.00  0.00    -0.312 N 
ATOM      4  H   UNL     1       7.312   1.397   1.366  0.00  0.00    +0.149 HD
ENDROOT
BRANCH   1   5
ATOM      5  C   UNL     1       5.901  -0.262  -0.104  0.00  0.00    +0.206 C 
BRANCH   5   6
ATOM      6  N   UNL     1       4.963  -1.337  -0.440  0.00  0.00    -0.291 N 
BRANCH   6  10
ATOM      7  C   UNL     1       0.932  -0.473  -1.026  0.00  0.00    +0.000 A 
ATOM      8  C   UNL     1       1.782  -0.565  -2.112  0.00  0.00    +0.002 A 
ATOM      9  C   UNL     1       3.120  -0.851  -1.922  0.00  0.00    +0.023 A 
ATOM     10  C   UNL     1       3.610  -1.047  -0.637  0.00  0.00    +0.034 A 
ATOM     11  C   UNL     1       2.753  -0.954   0.453  0.00  0.00    +0.023 A 
ATOM     12  C   UNL     1       1.417  -0.667   0.255  0.00  0.00    +0.002 A 
ENDBRANCH   6  10
BRANCH   6  13
ATOM     13  C   UNL     1       5.421  -2.651  -0.565  0.00  0.00    +0.034 A 
ATOM     14  C   UNL     1       6.782  -2.923  -0.496  0.00  0.00    +0.023 A 
ATOM     15  C   UNL     1       7.231  -4.223  -0.614  0.00  0.00    +0.002 A 
ATOM     16  C   UNL     1       6.329  -5.253  -0.811  0.00  0.00    +0.000 A 
ATOM     17  C   UNL     1       4.974  -4.985  -0.886  0.00  0.00    +0.002 A 
ATOM     18  C   UNL     1       4.518  -3.687  -0.763  0.00  0.00    +0.023 A 
ENDBRANCH   6  13
ENDBRANCH   5   6
ENDBRANCH   1   5
BRANCH   3  19
ATOM     19  C   UNL     1       6.852   0.970   3.394  0.00  0.00    +0.123 C 
BRANCH  19  20
ATOM     20  C   UNL     1       7.831   2.091   3.745  0.00  0.00    +0.136 C 
BRANCH  20  21
ATOM     21  N   UNL     1       7.904   2.238   5.201  0.00  0.00    -0.227 N 
ATOM     22  C   UNL     1       8.799   1.538   5.878  0.00  0.00    +0.260 C 
ATOM     23  O   UNL     1       9.566   0.774   5.322  0.00  0.00    -0.269 OA
ATOM     24  C   UNL     1       8.820   1.733   7.343  0.00  0.00    +0.080 C 
ATOM     25  C   UNL     1       9.616   1.160   8.279  0.00  0.00    +0.029 C 
ATOM     26  S   UNL     1       7.509   2.931   7.541  0.00  0.00    -0.026 S 
ATOM     27  C   UNL     1       7.059   3.088   5.820  0.00  0.00    +0.286 C 
ATOM     28  O   UNL     1       6.198   3.791   5.326  0.00  0.00    -0.262 OA
BRANCH  25  29
ATOM     29  C   UNL     1       9.571   1.631   9.671  0.00  0.00    -0.006 A 
ATOM     30  C   UNL     1       8.960   2.853   9.991  0.00  0.00    +0.011 A 
ATOM     31  C   UNL     1       8.940   3.248  11.316  0.00  0.00    +0.020 A 
ATOM     32  C   UNL     1       9.527   2.438  12.274  0.00  0.00    +0.111 A 
ATOM     33  N   UNL     1      10.100   1.297  11.944  0.00  0.00    -0.263 NA
ATOM     34  C   UNL     1      10.142   0.873  10.698  0.00  0.00    +0.118 A 
ENDBRANCH  25  29
ENDBRANCH  20  21
ENDBRANCH  19  20
ENDBRANCH   3  19
TORSDOF 8
