REMARK  Name = ZINC03295268
REMARK  9 active torsions:
REMARK  status: ('A' for Active; 'I' for Inactive)
REMARK    1  A    between atoms: C_1  and  C_2
REMARK    2  A    between atoms: C_2  and  C_3
REMARK    3  A    between atoms: C_2  and  C_4
REMARK    4  A    between atoms: C_9  and  N_10
REMARK    5  A    between atoms: C_11  and  C_25
REMARK    6  A    between atoms: N_13  and  C_16
REMARK    7  A    between atoms: C_16  and  N_60
REMARK    8  A    between atoms: C_20  and  C_23
REMARK    9  A    between atoms: C_23  and  O_24
REMARK                            x       y       z     vdW  Elec       q    Type
REMARK                         _______ _______ _______ _____ _____    ______ ____
ROOT
ATOM      1  N   UNL     1      -1.462   3.486   0.126  0.00  0.00    -0.271 N 
ATOM      2  C   UNL     1      -1.306   2.117   0.012  0.00  0.00    +0.169 A 
ATOM      3  N   UNL     1      -2.487   1.572  -0.080  0.00  0.00    -0.152 NA
ATOM      4  N   UNL     1      -3.443   2.595  -0.019  0.00  0.00    -0.257 N 
ATOM      5  C   UNL     1      -2.781   3.764   0.105  0.00  0.00    +0.181 A 
ATOM      6  S   UNL     1      -3.487   5.319   0.216  0.00  0.00    -0.011 S 
ENDROOT
BRANCH   2   7
ATOM      7  C   UNL     1      -0.016   1.393  -0.007  0.00  0.00    +0.038 A 
ATOM      8  C   UNL     1       1.019   1.828  -0.835  0.00  0.00    +0.014 A 
ATOM      9  C   UNL     1       2.222   1.152  -0.844  0.00  0.00    +0.021 A 
ATOM     10  C   UNL     1       2.403   0.043  -0.034  0.00  0.00    +0.042 A 
ATOM     11  C   UNL     1       1.380  -0.394   0.790  0.00  0.00    +0.040 A 
ATOM     12  C   UNL     1       0.172   0.274   0.808  0.00  0.00    +0.053 A 
ATOM     13 CL   UNL     1      -1.111  -0.275   1.841  0.00  0.00    -0.083 Cl
ATOM     14 CL   UNL     1       3.919  -0.802  -0.052  0.00  0.00    -0.083 Cl
ENDBRANCH   2   7
BRANCH   1  20
ATOM     15  C   UNL     1       0.107   4.718   1.490  0.00  0.00    -0.021 A 
ATOM     16  C   UNL     1       1.130   5.639   1.601  0.00  0.00    +0.006 A 
ATOM     17  C   UNL     1       1.615   6.275   0.474  0.00  0.00    +0.000 A 
ATOM     18  C   UNL     1       1.082   5.987  -0.770  0.00  0.00    +0.002 A 
ATOM     19  C   UNL     1       0.063   5.063  -0.888  0.00  0.00    +0.026 A 
ATOM     20  C   UNL     1      -0.427   4.423   0.243  0.00  0.00    +0.054 A 
BRANCH  15  22
ATOM     21  C   UNL     1       0.704   3.252   3.399  0.00  0.00    +0.012 C 
ATOM     22  C   UNL     1      -0.426   4.029   2.720  0.00  0.00    +0.015 C 
ATOM     23  C   UNL     1      -0.980   5.075   3.690  0.00  0.00    +0.012 C 
ENDBRANCH  15  22
ENDBRANCH   1  20
BRANCH   4  24
ATOM     24  C   UNL     1      -4.897   2.427  -0.083  0.00  0.00    +0.072 C 
BRANCH  24  30
ATOM     25  C   UNL     1      -5.108   3.827  -2.047  0.00  0.00    -0.076 C 
ATOM     26  C   UNL     1      -5.440   3.816  -3.541  0.00  0.00    -0.018 C 
ATOM     27  C   UNL     1      -6.902   3.403  -3.731  0.00  0.00    +0.002 C 
ATOM     28  C   UNL     1      -7.123   2.029  -3.094  0.00  0.00    -0.002 C 
ATOM     29  C   UNL     1      -6.743   2.092  -1.613  0.00  0.00    -0.071 C 
ATOM     30  N   UNL     1      -5.318   2.470  -1.499  0.00  0.00    +0.393 N 
ATOM     31  H   UNL     1      -4.753   1.803  -2.036  0.00  0.00    -0.079 HD
BRANCH  28  32
ATOM     32  C   UNL     1      -8.596   1.635  -3.227  0.00  0.00    +0.157 C 
BRANCH  32  33
ATOM     33  O   UNL     1      -8.920   1.463  -4.608  0.00  0.00    -0.395 OA
ATOM     34  H   UNL     1      -9.840   1.212  -4.768  0.00  0.00    +0.209 HD
ENDBRANCH  32  33
ENDBRANCH  28  32
ENDBRANCH  24  30
ENDBRANCH   4  24
TORSDOF 7
