REMARK  Name = ZINC08790280
REMARK  7 active torsions:
REMARK  status: ('A' for Active; 'I' for Inactive)
REMARK    1  A    between atoms: C_1  and  C_2
REMARK    2  A    between atoms: C_17  and  C_19
REMARK    3  A    between atoms: C_19  and  C_20
REMARK    4  A    between atoms: C_19  and  C_21
REMARK    5  A    between atoms: N_24  and  C_27
REMARK    6  A    between atoms: C_27  and  C_28
REMARK    7  A    between atoms: C_28  and  C_29
REMARK                            x       y       z     vdW  Elec       q    Type
REMARK                         _______ _______ _______ _____ _____    ______ ____
ROOT
ATOM      1  C   UNL     1       3.164  -0.457   4.380  0.00  0.00    +0.044 C 
ATOM      2  C   UNL     1       2.893   0.753   3.524  0.00  0.00    -0.049 A 
ATOM      3  C   UNL     1       2.229   0.615   2.317  0.00  0.00    +0.008 A 
ATOM      4  C   UNL     1       1.981   1.721   1.536  0.00  0.00    -0.026 A 
ATOM      5  C   UNL     1       2.391   2.986   1.947  0.00  0.00    +0.054 A 
ATOM      6  C   UNL     1       3.060   3.117   3.163  0.00  0.00    +0.063 A 
ATOM      7  C   UNL     1       3.306   2.005   3.942  0.00  0.00    +0.025 A 
ATOM      8 CL   UNL     1       3.584   4.683   3.698  0.00  0.00    -0.082 Cl
ATOM      9  N   UNL     1       2.029   3.944   0.996  0.00  0.00    -0.285 N 
ATOM     10  C   UNL     1       1.386   3.399  -0.054  0.00  0.00    +0.211 C 
ATOM     11  O   UNL     1       0.955   3.986  -1.024  0.00  0.00    -0.277 OA
ATOM     12  C   UNL     1       1.304   1.920   0.210  0.00  0.00    +0.050 C 
ATOM     13  C   UNL     1       1.990   1.113  -0.899  0.00  0.00    +0.088 C 
ATOM     14  C   UNL     1       1.124  -0.169  -1.043  0.00  0.00    +0.073 C 
ATOM     15  C   UNL     1       0.003  -0.011   0.006  0.00  0.00    -0.055 C 
ATOM     16  C   UNL     1       0.535  -0.039  -2.429  0.00  0.00    +0.224 C 
ATOM     17  O   UNL     1      -0.219  -0.835  -2.947  0.00  0.00    -0.275 OA
ATOM     18  N   UNL     1       0.975   1.090  -2.995  0.00  0.00    -0.241 N 
ATOM     19  C   UNL     1       1.799   1.812  -2.227  0.00  0.00    +0.225 C 
ATOM     20  O   UNL     1       2.313   2.863  -2.546  0.00  0.00    -0.275 OA
ATOM     21  H   UNL     1       2.220   4.891   1.082  0.00  0.00    +0.155 HD
ATOM     22  N   UNL     1      -0.065   1.435   0.236  0.00  0.00    +0.394 N 
ATOM     23  H   UNL     1      -0.616   1.886  -0.503  0.00  0.00    -0.083 HD
ATOM     24  H   UNL     1      -0.493   1.629   1.149  0.00  0.00    -0.083 HD
ENDROOT
BRANCH  15  25
ATOM     25  C   UNL     1      -1.319  -0.551  -0.542  0.00  0.00    -0.031 C 
ATOM     26  C   UNL     1      -1.235  -2.074  -0.665  0.00  0.00    +0.005 C 
ATOM     27  C   UNL     1      -2.457  -0.178   0.409  0.00  0.00    +0.005 C 
ENDBRANCH  15  25
BRANCH  18  28
ATOM     28  C   UNL     1       0.587   1.503  -4.346  0.00  0.00    +0.121 C 
BRANCH  28  29
ATOM     29  C   UNL     1       1.582   0.934  -5.359  0.00  0.00    +0.054 C 
BRANCH  29  30
ATOM     30  C   UNL     1       1.182   1.359  -6.749  0.00  0.00    -0.046 A 
ATOM     31  C   UNL     1       0.331   0.566  -7.496  0.00  0.00    +0.004 A 
ATOM     32  C   UNL     1      -0.039   0.958  -8.768  0.00  0.00    +0.000 A 
ATOM     33  C   UNL     1       0.449   2.137  -9.298  0.00  0.00    +0.000 A 
ATOM     34  C   UNL     1       1.305   2.927  -8.553  0.00  0.00    +0.000 A 
ATOM     35  C   UNL     1       1.671   2.538  -7.279  0.00  0.00    +0.004 A 
ENDBRANCH  29  30
ENDBRANCH  28  29
ENDBRANCH  18  28
TORSDOF 4
