REMARK  Name = ZINC12030621
REMARK  8 active torsions:
REMARK  status: ('A' for Active; 'I' for Inactive)
REMARK    1  A    between atoms: C_1  and  C_2
REMARK    2  A    between atoms: C_3  and  C_4
REMARK    3  A    between atoms: C_3  and  C_5
REMARK    4  A    between atoms: C_5  and  N_55
REMARK    5  A    between atoms: C_7  and  S_25
REMARK    6  A    between atoms: C_10  and  C_12
REMARK    7  A    between atoms: N_14  and  C_15
REMARK    8  A    between atoms: S_25  and  C_26
REMARK                            x       y       z     vdW  Elec       q    Type
REMARK                         _______ _______ _______ _____ _____    ______ ____
ROOT
ATOM      1  C   UNL     1      -2.857   0.917   3.210  0.00  0.00    -0.063 C 
ATOM      2  C   UNL     1      -3.879   0.040   3.964  0.00  0.00    +0.035 C 
ATOM      3  C   UNL     1      -3.535   0.218   5.457  0.00  0.00    +0.006 C 
ATOM      4  C   UNL     1      -2.334   1.188   5.480  0.00  0.00    +0.021 C 
ATOM      5  N   UNL     1      -1.740   1.029   4.155  0.00  0.00    +0.390 N 
ATOM      6  H   UNL     1      -1.169   0.176   4.127  0.00  0.00    -0.080 HD
ENDROOT
BRANCH   4   7
ATOM      7  C   UNL     1      -1.363   0.796   6.564  0.00  0.00    +0.204 C 
ATOM      8  O   UNL     1      -0.247   0.424   6.272  0.00  0.00    -0.277 OA
ATOM      9  N   UNL     1      -1.736   0.861   7.858  0.00  0.00    -0.287 N 
ATOM     10  H   UNL     1      -2.600   1.231   8.096  0.00  0.00    +0.155 HD
BRANCH   9  11
ATOM     11  C   UNL     1      -0.876   0.395   8.856  0.00  0.00    +0.035 A 
ATOM     12  C   UNL     1      -0.046  -0.704   8.599  0.00  0.00    +0.025 A 
ATOM     13  C   UNL     1       0.803  -1.174   9.550  0.00  0.00    +0.032 A 
ATOM     14  C   UNL     1       0.848  -0.563  10.816  0.00  0.00    +0.089 A 
ATOM     15  C   UNL     1       0.006   0.546  11.087  0.00  0.00    +0.091 A 
ATOM     16  C   UNL     1      -0.859   1.016  10.085  0.00  0.00    +0.053 A 
ATOM     17  N   UNL     1       0.046   1.128  12.291  0.00  0.00    -0.252 NA
ATOM     18  C   UNL     1       0.865   0.667  13.209  0.00  0.00    +0.131 A 
ATOM     19  C   UNL     1       1.693  -0.424  12.943  0.00  0.00    +0.131 A 
ATOM     20  N   UNL     1       1.671  -1.013  11.768  0.00  0.00    -0.252 NA
ENDBRANCH   9  11
ENDBRANCH   4   7
BRANCH   5  21
ATOM     21  C   UNL     1      -0.881   2.207   3.813  0.00  0.00    -0.047 C 
BRANCH  21  24
ATOM     22  C   UNL     1       0.295   2.003   0.163  0.00  0.00    +0.035 C 
ATOM     23  C   UNL     1      -0.514   2.292   1.401  0.00  0.00    -0.033 C 
ATOM     24  C   UNL     1      -0.071   1.918   2.575  0.00  0.00    -0.093 C 
ATOM     25  C   UNL     1       1.249   1.200   2.689  0.00  0.00    +0.037 C 
ENDBRANCH  21  24
ENDBRANCH   5  21
BRANCH   2  26
ATOM     26  S   UNL     1      -5.567   0.614   3.633  0.00  0.00    -0.104 S 
BRANCH  26  27
ATOM     27  C   UNL     1      -5.833   0.203   1.940  0.00  0.00    +0.097 A 
ATOM     28  C   UNL     1      -7.054   0.502   1.341  0.00  0.00    +0.035 A 
ATOM     29  C   UNL     1      -7.247   0.178   0.011  0.00  0.00    +0.004 A 
ATOM     30  C   UNL     1      -6.214  -0.445  -0.676  0.00  0.00    +0.020 A 
ATOM     31  C   UNL     1      -5.031  -0.717  -0.019  0.00  0.00    +0.112 A 
ATOM     32  N   UNL     1      -4.872  -0.392   1.250  0.00  0.00    -0.249 NA
ENDBRANCH  26  27
ENDBRANCH   2  26
TORSDOF 6
