REMARK  Name = ZINC09633335
REMARK  11 active torsions:
REMARK  status: ('A' for Active; 'I' for Inactive)
REMARK    1  A    between atoms: C_1  and  C_2
REMARK    2  A    between atoms: C_3  and  C_32
REMARK    3  A    between atoms: C_5  and  N_24
REMARK    4  A    between atoms: C_6  and  C_7
REMARK    5  A    between atoms: C_7  and  C_9
REMARK    6  A    between atoms: C_7  and  N_60
REMARK    7  A    between atoms: C_12  and  O_17
REMARK    8  A    between atoms: C_13  and  O_15
REMARK    9  A    between atoms: O_15  and  C_16
REMARK   10  A    between atoms: O_17  and  C_18
REMARK   11  A    between atoms: C_25  and  C_27
REMARK                            x       y       z     vdW  Elec       q    Type
REMARK                         _______ _______ _______ _____ _____    ______ ____
ROOT
ATOM      1  C   UNL     1      -1.249  -0.773   0.038  0.00  0.00    -0.004 C 
ENDROOT
BRANCH   1   7
ATOM      2  C   UNL     1      -1.776   2.068   0.413  0.00  0.00    +0.045 C 
ATOM      3  C   UNL     1      -0.361   1.559   0.316  0.00  0.00    -0.037 A 
ATOM      4  C   UNL     1       0.684   2.417   0.399  0.00  0.00    -0.008 A 
ATOM      5  S   UNL     1       2.081   1.321   0.220  0.00  0.00    -0.078 S 
ATOM      6  C   UNL     1       1.181  -0.211   0.046  0.00  0.00    +0.074 A 
ATOM      7  C   UNL     1      -0.112   0.211   0.135  0.00  0.00    -0.025 A 
ATOM      8  C   UNL     1       0.670   3.912   0.591  0.00  0.00    +0.052 C 
BRANCH   6   9
ATOM      9  N   UNL     1       1.673  -1.505  -0.134  0.00  0.00    -0.273 N 
ATOM     10  C   UNL     1       2.999  -1.736  -0.078  0.00  0.00    +0.284 C 
ATOM     11  O   UNL     1       3.769  -0.815   0.130  0.00  0.00    -0.266 OA
ATOM     12  H   UNL     1       1.060  -2.239  -0.299  0.00  0.00    +0.156 HD
BRANCH  10  13
ATOM     13  C   UNL     1       3.516  -3.095  -0.266  0.00  0.00    +0.189 A 
ATOM     14  C   UNL     1       4.830  -3.465  -0.235  0.00  0.00    +0.054 A 
ATOM     15  C   UNL     1       4.865  -4.850  -0.461  0.00  0.00    +0.042 A 
ATOM     16  C   UNL     1       3.587  -5.259  -0.620  0.00  0.00    +0.196 A 
ATOM     17  O   UNL     1       2.777  -4.199  -0.496  0.00  0.00    -0.458 OA
ENDBRANCH  10  13
ENDBRANCH   6   9
ENDBRANCH   1   7
BRANCH   1  23
ATOM     18  C   UNL     1      -0.753  -1.035  -2.318  0.00  0.00    -0.049 C 
ATOM     19  C   UNL     1      -0.415  -2.063  -3.401  0.00  0.00    +0.141 C 
ATOM     20  O   UNL     1      -1.472  -3.023  -3.486  0.00  0.00    -0.383 OA
ATOM     21  C   UNL     1      -1.717  -3.719  -2.261  0.00  0.00    +0.141 C 
ATOM     22  C   UNL     1      -2.068  -2.708  -1.167  0.00  0.00    -0.049 C 
ATOM     23  N   UNL     1      -0.955  -1.745  -1.037  0.00  0.00    +0.390 N 
ATOM     24  H   UNL     1      -0.096  -2.256  -0.800  0.00  0.00    -0.080 HD
ENDBRANCH   1  23
BRANCH   1  25
ATOM     25  C   UNL     1      -1.385  -1.514   1.343  0.00  0.00    -0.053 A 
ATOM     26  C   UNL     1      -0.630  -2.650   1.573  0.00  0.00    +0.006 A 
ATOM     27  C   UNL     1      -0.747  -3.330   2.771  0.00  0.00    +0.049 A 
ATOM     28  C   UNL     1      -1.630  -2.880   3.740  0.00  0.00    +0.161 A 
ATOM     29  C   UNL     1      -2.393  -1.740   3.506  0.00  0.00    +0.162 A 
ATOM     30  C   UNL     1      -2.267  -1.060   2.305  0.00  0.00    +0.051 A 
BRANCH  29  31
ATOM     31  O   UNL     1      -3.261  -1.295   4.454  0.00  0.00    -0.491 OA
ATOM     32  C   UNL     1      -4.011  -0.119   4.145  0.00  0.00    +0.277 C 
ENDBRANCH  29  31
BRANCH  28  33
ATOM     33  O   UNL     1      -1.750  -3.551   4.917  0.00  0.00    -0.491 OA
ATOM     34  C   UNL     1      -0.935  -4.713   5.087  0.00  0.00    +0.277 C 
ENDBRANCH  28  33
ENDBRANCH   1  25
TORSDOF 7
