REMARK  Name = ZINC53811383
REMARK  10 active torsions:
REMARK  status: ('A' for Active; 'I' for Inactive)
REMARK    1  A    between atoms: C_1  and  C_2
REMARK    2  A    between atoms: C_2  and  N_3
REMARK    3  A    between atoms: N_3  and  C_4
REMARK    4  A    between atoms: N_3  and  C_6
REMARK    5  A    between atoms: C_4  and  C_5
REMARK    6  A    between atoms: C_9  and  C_13
REMARK    7  A    between atoms: C_10  and  O_12
REMARK    8  A    between atoms: N_15  and  C_16
REMARK    9  A    between atoms: C_16  and  C_17
REMARK   10  A    between atoms: C_27  and  C_30
REMARK                            x       y       z     vdW  Elec       q    Type
REMARK                         _______ _______ _______ _____ _____    ______ ____
ROOT
ATOM      1  C   UNL     1       6.282  -1.317   0.977  0.00  0.00    +0.248 C 
ATOM      2  O   UNL     1       6.876  -1.740   1.950  0.00  0.00    -0.270 OA
ATOM      3  N   UNL     1       6.951  -1.073  -0.167  0.00  0.00    -0.307 N 
ATOM      4  H   UNL     1       6.478  -0.735  -0.943  0.00  0.00    +0.149 HD
ENDROOT
BRANCH   1   8
ATOM      5  C   UNL     1       2.104  -0.605   1.177  0.00  0.00    +0.033 A 
ATOM      6  C   UNL     1       2.803  -0.355  -0.002  0.00  0.00    +0.024 A 
ATOM      7  C   UNL     1       4.147  -0.583  -0.069  0.00  0.00    +0.018 A 
ATOM      8  C   UNL     1       4.833  -1.070   1.049  0.00  0.00    +0.078 A 
ATOM      9  C   UNL     1       4.133  -1.324   2.239  0.00  0.00    +0.131 A 
ATOM     10  C   UNL     1       2.771  -1.084   2.298  0.00  0.00    +0.069 A 
BRANCH   9  11
ATOM     11  O   UNL     1       4.789  -1.797   3.328  0.00  0.00    -0.506 OA
ATOM     12  H   UNL     1       5.134  -1.106   3.911  0.00  0.00    +0.292 HD
ENDBRANCH   9  11
BRANCH   5  13
ATOM     13  N   UNL     1       0.735  -0.369   1.234  0.00  0.00    -0.330 N 
BRANCH  13  15
ATOM     14  C   UNL     1       0.034   1.666   0.073  0.00  0.00    +0.024 C 
ATOM     15  C   UNL     1       0.029   0.136   0.054  0.00  0.00    +0.102 C 
ENDBRANCH  13  15
BRANCH  13  16
ATOM     16  C   UNL     1      -0.002  -0.625   2.475  0.00  0.00    +0.102 C 
ATOM     17  C   UNL     1      -0.509  -2.069   2.477  0.00  0.00    +0.024 C 
ENDBRANCH  13  16
ENDBRANCH   5  13
ENDBRANCH   1   8
BRANCH   3  18
ATOM     18  C   UNL     1       8.394  -1.318  -0.239  0.00  0.00    +0.141 C 
BRANCH  18  19
ATOM     19  C   UNL     1       8.895  -0.968  -1.616  0.00  0.00    -0.014 A 
ATOM     20  C   UNL     1       8.914  -1.927  -2.620  0.00  0.00    +0.010 A 
ATOM     21  C   UNL     1       9.382  -1.564  -3.870  0.00  0.00    +0.042 A 
ATOM     22  C   UNL     1       9.816  -0.259  -4.078  0.00  0.00    +0.099 A 
ATOM     23  N   UNL     1       9.782   0.627  -3.094  0.00  0.00    -0.349 N 
ATOM     24  C   UNL     1       9.335   0.311  -1.893  0.00  0.00    +0.089 A 
ATOM     25  N   UNL     1      10.289   0.119  -5.329  0.00  0.00    -0.312 N 
ATOM     26  C   UNL     1      10.635   1.520  -5.617  0.00  0.00    +0.134 C 
ATOM     27  C   UNL     1      12.038   1.555  -6.232  0.00  0.00    +0.179 C 
ATOM     28  O   UNL     1      12.091   0.649  -7.337  0.00  0.00    -0.374 OA
ATOM     29  C   UNL     1      11.871  -0.719  -6.982  0.00  0.00    +0.132 C 
ATOM     30  C   UNL     1      10.464  -0.871  -6.404  0.00  0.00    +0.137 C 
ATOM     31  C   UNL     1      12.013  -1.598  -8.226  0.00  0.00    +0.039 C 
ATOM     32  H   UNL     1      10.089   1.532  -3.262  0.00  0.00    +0.167 HD
ENDBRANCH  18  19
ENDBRANCH   3  18
TORSDOF 7
