REMARK  Name = ZINC35867534
REMARK  7 active torsions:
REMARK  status: ('A' for Active; 'I' for Inactive)
REMARK    1  A    between atoms: C_1  and  C_2
REMARK    2  A    between atoms: C_2  and  C_3
REMARK    3  A    between atoms: C_3  and  C_4
REMARK    4  A    between atoms: C_14  and  C_18
REMARK    5  A    between atoms: N_27  and  C_28
REMARK    6  A    between atoms: C_31  and  C_34
REMARK    7  A    between atoms: C_34  and  C_35
REMARK                            x       y       z     vdW  Elec       q    Type
REMARK                         _______ _______ _______ _____ _____    ______ ____
ROOT
ATOM      1  C   UNL     1      -3.273  -3.068   0.566  0.00  0.00    +0.132 A 
ATOM      2  N   UNL     1      -3.184  -3.719  -0.581  0.00  0.00    -0.217 NA
ATOM      3  C   UNL     1      -2.019  -4.019  -1.132  0.00  0.00    +0.133 A 
ATOM      4  C   UNL     1      -0.820  -3.630  -0.472  0.00  0.00    +0.051 A 
ATOM      5  C   UNL     1       0.567  -3.848  -0.886  0.00  0.00    -0.025 A 
ATOM      6  C   UNL     1       1.530  -3.375  -0.070  0.00  0.00    -0.004 A 
ATOM      7  S   UNL     1       0.664  -2.620   1.280  0.00  0.00    -0.073 S 
ATOM      8  C   UNL     1      -0.996  -2.941   0.745  0.00  0.00    +0.114 A 
ATOM      9  N   UNL     1      -2.197  -2.678   1.221  0.00  0.00    -0.225 NA
ATOM     10  C   UNL     1       3.013  -3.467  -0.267  0.00  0.00    +0.046 C 
ATOM     11  C   UNL     1       3.284  -3.857  -1.727  0.00  0.00    -0.009 C 
ATOM     12  C   UNL     1       2.382  -5.039  -2.095  0.00  0.00    +0.008 C 
ATOM     13  C   UNL     1       0.927  -4.576  -2.178  0.00  0.00    +0.037 C 
ATOM     14  C   UNL     1       4.752  -4.259  -1.887  0.00  0.00    +0.008 C 
ATOM     15  N   UNL     1      -1.967  -4.703  -2.333  0.00  0.00    -0.312 N 
ATOM     16  C   UNL     1      -2.210  -6.151  -2.381  0.00  0.00    +0.125 C 
ATOM     17  C   UNL     1      -3.340  -6.426  -3.381  0.00  0.00    +0.128 C 
ATOM     18  N   UNL     1      -3.041  -5.716  -4.633  0.00  0.00    -0.282 N 
ATOM     19  C   UNL     1      -2.798  -4.268  -4.586  0.00  0.00    +0.128 C 
ATOM     20  C   UNL     1      -1.674  -3.992  -3.586  0.00  0.00    +0.125 C 
ATOM     21  C   UNL     1      -2.991  -6.382  -5.804  0.00  0.00    +0.307 C 
ATOM     22  O   UNL     1      -3.313  -7.554  -5.851  0.00  0.00    -0.252 OA
ATOM     23  N   UNL     1      -2.584  -5.749  -6.922  0.00  0.00    -0.269 N 
ATOM     24  H   UNL     1      -2.219  -4.852  -6.866  0.00  0.00    +0.156 HD
ENDROOT
BRANCH  23  25
ATOM     25  C   UNL     1      -2.687  -6.387  -8.164  0.00  0.00    +0.035 A 
ATOM     26  C   UNL     1      -2.679  -7.773  -8.237  0.00  0.00    +0.023 A 
ATOM     27  C   UNL     1      -2.782  -8.399  -9.464  0.00  0.00    +0.005 A 
ATOM     28  C   UNL     1      -2.893  -7.646 -10.618  0.00  0.00    -0.048 A 
ATOM     29  C   UNL     1      -2.901  -6.266 -10.549  0.00  0.00    +0.005 A 
ATOM     30  C   UNL     1      -2.804  -5.634  -9.325  0.00  0.00    +0.023 A 
BRANCH  28  31
ATOM     31  C   UNL     1      -3.005  -8.333 -11.956  0.00  0.00    +0.032 C 
ATOM     32  C   UNL     1      -4.480  -8.580 -12.280  0.00  0.00    +0.009 C 
ENDBRANCH  28  31
ENDBRANCH  23  25
BRANCH   1  33
ATOM     33  C   UNL     1      -4.635  -2.760   1.133  0.00  0.00    +0.076 C 
BRANCH  33  35
ATOM     34  C   UNL     1      -6.494  -1.091   1.183  0.00  0.00    +0.004 C 
ATOM     35  C   UNL     1      -5.111  -1.404   0.607  0.00  0.00    +0.004 C 
ENDBRANCH  33  35
ENDBRANCH   1  33
TORSDOF 4
