REMARK  Name = ZINC36073573
REMARK  13 active torsions:
REMARK  status: ('A' for Active; 'I' for Inactive)
REMARK    1  A    between atoms: C_1  and  C_2
REMARK    2  A    between atoms: C_5  and  C_9
REMARK    3  A    between atoms: C_6  and  C_8
REMARK    4  A    between atoms: C_9  and  N_10
REMARK    5  A    between atoms: N_10  and  C_11
REMARK    6  A    between atoms: N_10  and  C_29
REMARK    7  A    between atoms: C_11  and  C_12
REMARK    8  A    between atoms: C_14  and  C_17
REMARK    9  A    between atoms: N_19  and  C_20
REMARK   10  A    between atoms: C_20  and  C_22
REMARK   11  A    between atoms: C_20  and  C_23
REMARK   12  A    between atoms: C_29  and  C_31
REMARK   13  A    between atoms: C_29  and  C_32
REMARK                            x       y       z     vdW  Elec       q    Type
REMARK                         _______ _______ _______ _____ _____    ______ ____
ROOT
ATOM      1  N   UNL     1      -1.206  -4.690  -0.119  0.00  0.00    +0.393 N 
ATOM      2  H   UNL     1      -2.055  -4.901  -0.620  0.00  0.00    -0.080 HD
ENDROOT
BRANCH   1   3
ATOM      3  C   UNL     1      -1.482  -3.677   0.908  0.00  0.00    -0.040 C 
ATOM      4  C   UNL     1      -1.644  -2.308   0.244  0.00  0.00    -0.008 C 
BRANCH   3   5
ATOM      5  C   UNL     1      -2.751  -4.035   1.639  0.00  0.00    -0.061 A 
ATOM      6  C   UNL     1      -3.866  -4.437   0.929  0.00  0.00    +0.002 A 
ATOM      7  C   UNL     1      -5.030  -4.765   1.599  0.00  0.00    +0.000 A 
ATOM      8  C   UNL     1      -5.078  -4.691   2.978  0.00  0.00    +0.000 A 
ATOM      9  C   UNL     1      -3.962  -4.289   3.688  0.00  0.00    +0.000 A 
ATOM     10  C   UNL     1      -2.797  -3.965   3.018  0.00  0.00    +0.002 A 
ENDBRANCH   3   5
ENDBRANCH   1   3
BRANCH   1  11
ATOM     11  C   UNL     1      -0.199  -4.175  -1.056  0.00  0.00    -0.041 C 
BRANCH  11  16
ATOM     12  C   UNL     1       0.717  -8.070  -5.226  0.00  0.00    +0.044 C 
ATOM     13  C   UNL     1       0.478  -7.054  -4.138  0.00  0.00    -0.050 A 
ATOM     14  C   UNL     1       1.351  -6.968  -3.069  0.00  0.00    +0.003 A 
ATOM     15  C   UNL     1       1.131  -6.037  -2.072  0.00  0.00    +0.002 A 
ATOM     16  C   UNL     1       0.041  -5.190  -2.144  0.00  0.00    -0.061 A 
ATOM     17  C   UNL     1      -0.831  -5.276  -3.214  0.00  0.00    -0.049 A 
ATOM     18  C   UNL     1      -0.609  -6.205  -4.213  0.00  0.00    +0.007 A 
ATOM     19  C   UNL     1      -2.020  -4.354  -3.292  0.00  0.00    +0.044 C 
ENDBRANCH  11  16
ENDBRANCH   1  11
BRANCH   1  20
ATOM     20  C   UNL     1      -0.699  -5.911   0.521  0.00  0.00    +0.020 C 
BRANCH  20  21
ATOM     21  C   UNL     1      -1.805  -6.558   1.315  0.00  0.00    +0.179 A 
ATOM     22  N   UNL     1      -2.738  -7.318   0.826  0.00  0.00    -0.210 NA
ATOM     23  C   UNL     1      -3.550  -7.714   1.843  0.00  0.00    +0.163 A 
ATOM     24  C   UNL     1      -3.064  -7.154   2.984  0.00  0.00    +0.230 A 
ATOM     25  O   UNL     1      -1.978  -6.444   2.640  0.00  0.00    -0.449 OA
BRANCH  23  26
ATOM     26  C   UNL     1      -4.734  -8.585   1.730  0.00  0.00    +0.266 C 
ATOM     27  O   UNL     1      -5.380  -8.865   2.721  0.00  0.00    -0.268 OA
ATOM     28  N   UNL     1      -5.102  -9.070   0.527  0.00  0.00    -0.303 N 
ATOM     29  H   UNL     1      -4.587  -8.846  -0.264  0.00  0.00    +0.150 HD
BRANCH  28  30
ATOM     30  C   UNL     1      -6.278  -9.935   0.415  0.00  0.00    +0.100 C 
ATOM     31  C   UNL     1      -5.878 -11.382   0.713  0.00  0.00    +0.033 C 
BRANCH  30  32
ATOM     32  C   UNL     1      -6.836  -9.846  -0.982  0.00  0.00    -0.027 A 
ATOM     33  C   UNL     1      -5.980  -9.801  -2.067  0.00  0.00    +0.005 A 
ATOM     34  C   UNL     1      -6.492  -9.719  -3.348  0.00  0.00    +0.000 A 
ATOM     35  C   UNL     1      -7.859  -9.682  -3.546  0.00  0.00    +0.000 A 
ATOM     36  C   UNL     1      -8.716  -9.727  -2.461  0.00  0.00    +0.000 A 
ATOM     37  C   UNL     1      -8.204  -9.814  -1.180  0.00  0.00    +0.005 A 
ENDBRANCH  30  32
ENDBRANCH  28  30
ENDBRANCH  23  26
ENDBRANCH  20  21
ENDBRANCH   1  20
TORSDOF 9
