REMARK  Name = ZINC13499463
REMARK  12 active torsions:
REMARK  status: ('A' for Active; 'I' for Inactive)
REMARK    1  A    between atoms: C_1  and  C_2
REMARK    2  A    between atoms: C_2  and  C_3
REMARK    3  A    between atoms: C_3  and  C_4
REMARK    4  A    between atoms: C_4  and  C_6
REMARK    5  A    between atoms: C_4  and  N_16
REMARK    6  A    between atoms: N_10  and  C_11
REMARK    7  A    between atoms: N_16  and  C_17
REMARK    8  A    between atoms: N_16  and  C_23
REMARK    9  A    between atoms: C_17  and  C_18
REMARK   10  A    between atoms: C_23  and  C_24
REMARK   11  A    between atoms: C_28  and  C_37
REMARK   12  A    between atoms: C_29  and  C_36
REMARK                            x       y       z     vdW  Elec       q    Type
REMARK                         _______ _______ _______ _____ _____    ______ ____
ROOT
ATOM      1  N   UNL     1      -1.083  -2.857   1.523  0.00  0.00    -0.281 NA
ENDROOT
BRANCH   1   2
ATOM      2  C   UNL     1      -1.244  -2.024   0.324  0.00  0.00    +0.127 C 
BRANCH   2   3
ATOM      3  C   UNL     1      -0.403  -2.585  -0.794  0.00  0.00    +0.169 A 
ATOM      4  N   UNL     1      -0.154  -3.851  -1.027  0.00  0.00    -0.112 NA
ATOM      5  N   UNL     1       0.601  -3.923  -2.068  0.00  0.00    -0.023 NA
ATOM      6  N   UNL     1       0.840  -2.737  -2.506  0.00  0.00    -0.044 NA
ATOM      7  N   UNL     1       0.234  -1.884  -1.750  0.00  0.00    -0.225 N 
BRANCH   7   8
ATOM      8  C   UNL     1       0.241  -0.427  -1.902  0.00  0.00    +0.111 C 
ATOM      9  C   UNL     1      -0.369  -0.035  -3.264  0.00  0.00    +0.027 C 
ATOM     10  C   UNL     1       0.480   1.175  -3.726  0.00  0.00    +0.002 C 
ATOM     11  C   UNL     1       1.907   0.787  -3.264  0.00  0.00    +0.002 C 
ATOM     12  C   UNL     1       1.689   0.096  -1.903  0.00  0.00    +0.027 C 
ENDBRANCH   7   8
ENDBRANCH   2   3
BRANCH   2  13
ATOM     13  C   UNL     1      -2.714  -2.017  -0.099  0.00  0.00    +0.026 C 
BRANCH  13  15
ATOM     14  C   UNL     1      -5.007  -1.244   0.524  0.00  0.00    +0.004 C 
ATOM     15  C   UNL     1      -3.557  -1.363   0.998  0.00  0.00    -0.001 C 
ENDBRANCH  13  15
ENDBRANCH   2  13
ENDBRANCH   1   2
BRANCH   1  16
ATOM     16  C   UNL     1      -1.427  -4.257   1.241  0.00  0.00    +0.159 C 
BRANCH  16  17
ATOM     17  C   UNL     1      -1.635  -4.994   2.539  0.00  0.00    +0.119 A 
ATOM     18  C   UNL     1      -2.814  -5.178   3.160  0.00  0.00    +0.046 A 
ATOM     19  C   UNL     1      -2.547  -5.916   4.336  0.00  0.00    +0.041 A 
ATOM     20  C   UNL     1      -1.221  -6.140   4.363  0.00  0.00    +0.195 A 
ATOM     21  O   UNL     1      -0.674  -5.584   3.270  0.00  0.00    -0.467 OA
ENDBRANCH  16  17
ENDBRANCH   1  16
BRANCH   1  22
ATOM     22  C   UNL     1       0.280  -2.748   2.061  0.00  0.00    +0.126 C 
BRANCH  22  23
ATOM     23  C   UNL     1       0.427  -1.440   2.794  0.00  0.00    +0.031 A 
ATOM     24  C   UNL     1       0.227  -1.390   4.134  0.00  0.00    +0.020 A 
ATOM     25  C   UNL     1       0.378  -0.103   4.816  0.00  0.00    -0.001 A 
ATOM     26  C   UNL     1       0.185   0.011   6.197  0.00  0.00    +0.013 A 
ATOM     27  C   UNL     1       0.334   1.226   6.804  0.00  0.00    -0.047 A 
ATOM     28  C   UNL     1       0.675   2.349   6.062  0.00  0.00    -0.046 A 
ATOM     29  C   UNL     1       0.870   2.260   4.701  0.00  0.00    +0.030 A 
ATOM     30  C   UNL     1       0.724   1.033   4.061  0.00  0.00    +0.049 A 
ATOM     31  N   UNL     1       0.914   0.915   2.701  0.00  0.00    -0.322 N 
ATOM     32  H   UNL     1       1.153   1.699   2.182  0.00  0.00    +0.169 HD
ATOM     33  C   UNL     1       0.778  -0.272   2.084  0.00  0.00    +0.254 A 
ATOM     34  O   UNL     1       0.958  -0.340   0.880  0.00  0.00    -0.268 OA
ATOM     35  C   UNL     1       0.834   3.678   6.753  0.00  0.00    +0.044 C 
ATOM     36  C   UNL     1       0.126   1.348   8.291  0.00  0.00    +0.044 C 
ENDBRANCH  22  23
ENDBRANCH   1  22
TORSDOF 9
