REMARK  Name = ZINC40315958
REMARK  13 active torsions:
REMARK  status: ('A' for Active; 'I' for Inactive)
REMARK    1  A    between atoms: C_1  and  C_2
REMARK    2  A    between atoms: C_2  and  C_3
REMARK    3  A    between atoms: C_2  and  C_4
REMARK    4  A    between atoms: C_7  and  O_10
REMARK    5  A    between atoms: O_10  and  C_11
REMARK    6  A    between atoms: C_11  and  C_12
REMARK    7  A    between atoms: C_12  and  C_14
REMARK    8  A    between atoms: C_12  and  O_33
REMARK    9  A    between atoms: C_14  and  N_15
REMARK   10  A    between atoms: N_15  and  C_16
REMARK   11  A    between atoms: N_15  and  C_27
REMARK   12  A    between atoms: C_16  and  C_17
REMARK   13  A    between atoms: C_27  and  C_28
REMARK                            x       y       z     vdW  Elec       q    Type
REMARK                         _______ _______ _______ _____ _____    ______ ____
ROOT
ATOM      1  N   UNL     1      -9.125  -4.908  -1.654  0.00  0.00    +0.389 N 
ATOM      2  H   UNL     1      -9.460  -5.255  -0.768  0.00  0.00    -0.081 HD
ENDROOT
BRANCH   1   3
ATOM      3  C   UNL     1      -7.728  -4.476  -1.514  0.00  0.00    -0.043 C 
BRANCH   3   4
ATOM      4  C   UNL     1      -7.609  -3.510  -0.334  0.00  0.00    +0.135 C 
BRANCH   4   5
ATOM      5  O   UNL     1      -8.282  -2.289  -0.648  0.00  0.00    -0.390 OA
ATOM      6  H   UNL     1      -7.930  -1.835  -1.426  0.00  0.00    +0.210 HD
ENDBRANCH   4   5
BRANCH   4   7
ATOM      7  C   UNL     1      -6.132  -3.221  -0.058  0.00  0.00    +0.258 C 
BRANCH   7   8
ATOM      8  O   UNL     1      -6.016  -2.412   1.115  0.00  0.00    -0.489 OA
BRANCH   8  12
ATOM      9  C   UNL     1      -2.206  -1.353   2.290  0.00  0.00    -0.045 A 
ATOM     10  C   UNL     1      -3.298  -0.925   3.022  0.00  0.00    +0.007 A 
ATOM     11  C   UNL     1      -4.575  -1.279   2.631  0.00  0.00    +0.046 A 
ATOM     12  C   UNL     1      -4.761  -2.063   1.502  0.00  0.00    +0.121 A 
ATOM     13  C   UNL     1      -3.664  -2.490   0.768  0.00  0.00    +0.046 A 
ATOM     14  C   UNL     1      -2.389  -2.129   1.161  0.00  0.00    +0.007 A 
BRANCH   9  16
ATOM     15  C   UNL     1      -0.688   0.559   2.727  0.00  0.00    +0.012 C 
ATOM     16  C   UNL     1      -0.814  -0.966   2.719  0.00  0.00    +0.013 C 
ATOM     17  C   UNL     1      -0.545  -1.507   4.125  0.00  0.00    +0.012 C 
ENDBRANCH   9  16
ENDBRANCH   8  12
ENDBRANCH   7   8
ENDBRANCH   4   7
ENDBRANCH   3   4
ENDBRANCH   1   3
BRANCH   1  18
ATOM     18  C   UNL     1      -9.208  -5.974  -2.662  0.00  0.00    -0.042 C 
BRANCH  18  19
ATOM     19  C   UNL     1      -8.470  -7.191  -2.168  0.00  0.00    -0.056 A 
ATOM     20  C   UNL     1      -7.228  -7.478  -2.645  0.00  0.00    +0.002 A 
ATOM     21  C   UNL     1      -6.529  -8.599  -2.200  0.00  0.00    +0.001 A 
ATOM     22  C   UNL     1      -7.069  -9.439  -1.276  0.00  0.00    +0.008 A 
ATOM     23  C   UNL     1      -8.349  -9.176  -0.760  0.00  0.00    -0.018 A 
ATOM     24  C   UNL     1      -9.057  -8.032  -1.208  0.00  0.00    -0.017 A 
ATOM     25  C   UNL     1     -10.335  -7.766  -0.687  0.00  0.00    +0.009 A 
ATOM     26  C   UNL     1     -10.871  -8.603   0.242  0.00  0.00    +0.001 A 
ATOM     27  C   UNL     1     -10.173  -9.724   0.687  0.00  0.00    +0.001 A 
ATOM     28  C   UNL     1      -8.939 -10.021   0.196  0.00  0.00    +0.008 A 
ENDBRANCH  18  19
ENDBRANCH   1  18
BRANCH   1  29
ATOM     29  C   UNL     1      -9.949  -3.768  -2.078  0.00  0.00    -0.003 C 
BRANCH  29  30
ATOM     30  C   UNL     1     -11.391  -4.197  -2.166  0.00  0.00    +0.089 A 
ATOM     31  C   UNL     1     -12.311  -4.070  -1.192  0.00  0.00    +0.042 A 
ATOM     32  C   UNL     1     -13.520  -4.598  -1.699  0.00  0.00    +0.041 A 
ATOM     33  C   UNL     1     -13.268  -5.016  -2.952  0.00  0.00    +0.195 A 
ATOM     34  O   UNL     1     -11.978  -4.766  -3.232  0.00  0.00    -0.470 OA
ENDBRANCH  29  30
ENDBRANCH   1  29
TORSDOF 11
