REMARK  Name = ZINC38760138
REMARK  10 active torsions:
REMARK  status: ('A' for Active; 'I' for Inactive)
REMARK    1  A    between atoms: C_1  and  C_2
REMARK    2  A    between atoms: C_2  and  O_3
REMARK    3  A    between atoms: O_3  and  C_4
REMARK    4  A    between atoms: C_9  and  O_10
REMARK    5  A    between atoms: O_10  and  C_11
REMARK    6  A    between atoms: C_15  and  C_17
REMARK    7  A    between atoms: C_20  and  O_24
REMARK    8  A    between atoms: C_22  and  O_23
REMARK    9  A    between atoms: O_24  and  C_25
REMARK   10  A    between atoms: C_25  and  C_26
REMARK                            x       y       z     vdW  Elec       q    Type
REMARK                         _______ _______ _______ _____ _____    ______ ____
ROOT
ATOM      1  C   UNL     1       4.412  -0.744  -5.223  0.00  0.00    +0.025 A 
ATOM      2  C   UNL     1       5.665  -1.314  -5.345  0.00  0.00    +0.013 A 
ATOM      3  C   UNL     1       6.787  -0.611  -4.952  0.00  0.00    +0.046 A 
ATOM      4  C   UNL     1       6.659   0.670  -4.434  0.00  0.00    +0.124 A 
ATOM      5  C   UNL     1       5.403   1.244  -4.310  0.00  0.00    +0.091 A 
ATOM      6  C   UNL     1       4.279   0.538  -4.710  0.00  0.00    +0.126 A 
ENDROOT
BRANCH   1  11
ATOM      7  C   UNL     1       2.490  -2.126  -4.450  0.00  0.00    +0.154 C 
ATOM      8  C   UNL     1       2.547  -3.452  -4.690  0.00  0.00    +0.176 C 
ATOM      9  N   UNL     1       3.178  -3.698  -5.844  0.00  0.00    -0.182 NA
ATOM     10  N   UNL     1       3.571  -2.695  -6.445  0.00  0.00    -0.294 N 
ATOM     11  C   UNL     1       3.189  -1.514  -5.652  0.00  0.00    +0.199 C 
ATOM     12  H   UNL     1       4.045  -2.686  -7.291  0.00  0.00    +0.184 HD
BRANCH   7  13
ATOM     13  O   UNL     1       1.936  -1.492  -3.395  0.00  0.00    -0.453 OA
BRANCH  13  19
ATOM     14  C   UNL     1       0.292   0.031  -2.583  0.00  0.00    +0.162 A 
ATOM     15  C   UNL     1      -0.828   0.813  -2.815  0.00  0.00    +0.049 A 
ATOM     16  C   UNL     1      -1.409   0.834  -4.069  0.00  0.00    +0.004 A 
ATOM     17  C   UNL     1      -0.875   0.075  -5.095  0.00  0.00    +0.004 A 
ATOM     18  C   UNL     1       0.242  -0.707  -4.870  0.00  0.00    +0.050 A 
ATOM     19  C   UNL     1       0.833  -0.728  -3.616  0.00  0.00    +0.170 A 
BRANCH  14  20
ATOM     20  O   UNL     1       0.864   0.009  -1.349  0.00  0.00    -0.489 OA
BRANCH  20  22
ATOM     21  C   UNL     1       1.031   0.660   0.972  0.00  0.00    +0.048 C 
ATOM     22  C   UNL     1       0.254   0.813  -0.337  0.00  0.00    +0.226 C 
ENDBRANCH  20  22
ENDBRANCH  14  20
ENDBRANCH  13  19
ENDBRANCH   7  13
ENDBRANCH   1  11
BRANCH   6  23
ATOM     23  O   UNL     1       3.047   1.101  -4.595  0.00  0.00    -0.506 OA
ATOM     24  H   UNL     1       2.614   0.930  -3.748  0.00  0.00    +0.292 HD
ENDBRANCH   6  23
BRANCH   4  25
ATOM     25  O   UNL     1       7.764   1.361  -4.048  0.00  0.00    -0.487 OA
BRANCH  25  26
ATOM     26  C   UNL     1       9.025   0.708  -4.203  0.00  0.00    +0.266 C 
BRANCH  26  27
ATOM     27  C   UNL     1      10.126   1.620  -3.726  0.00  0.00    +0.008 A 
ATOM     28  C   UNL     1       9.818   2.873  -3.229  0.00  0.00    +0.008 A 
ATOM     29  C   UNL     1      10.827   3.709  -2.791  0.00  0.00    +0.000 A 
ATOM     30  C   UNL     1      12.145   3.294  -2.849  0.00  0.00    +0.001 A 
ATOM     31  C   UNL     1      12.453   2.041  -3.346  0.00  0.00    +0.020 A 
ATOM     32  C   UNL     1      11.443   1.201  -3.779  0.00  0.00    +0.047 A 
ATOM     33 CL   UNL     1      11.829  -0.374  -4.397  0.00  0.00    -0.083 Cl
ENDBRANCH  26  27
ENDBRANCH  25  26
ENDBRANCH   4  25
TORSDOF 9
