REMARK  Name = ZINC09139333
REMARK  8 active torsions:
REMARK  status: ('A' for Active; 'I' for Inactive)
REMARK    1  A    between atoms: C_1  and  O_2
REMARK    2  A    between atoms: O_2  and  C_3
REMARK    3  A    between atoms: C_6  and  N_9
REMARK    4  A    between atoms: N_9  and  S_10
REMARK    5  A    between atoms: S_10  and  C_13
REMARK    6  A    between atoms: C_16  and  O_30
REMARK    7  A    between atoms: C_17  and  N_19
REMARK    8  A    between atoms: C_20  and  C_22
REMARK                            x       y       z     vdW  Elec       q    Type
REMARK                         _______ _______ _______ _____ _____    ______ ____
ROOT
ATOM      1  C   UNL     1      -4.599   4.698   0.018  0.00  0.00    +0.110 A 
ATOM      2  C   UNL     1      -4.520   6.078   0.020  0.00  0.00    +0.032 A 
ATOM      3  C   UNL     1      -3.289   6.704   0.095  0.00  0.00    +0.049 A 
ATOM      4  C   UNL     1      -2.131   5.948   0.169  0.00  0.00    +0.138 A 
ATOM      5  C   UNL     1      -2.210   4.557   0.167  0.00  0.00    +0.077 A 
ATOM      6  C   UNL     1      -3.448   3.936   0.087  0.00  0.00    +0.055 A 
ENDROOT
BRANCH   5   7
ATOM      7  N   UNL     1      -1.042   3.787   0.241  0.00  0.00    -0.278 N 
ATOM      8  C   UNL     1      -1.101   2.514   0.679  0.00  0.00    +0.255 C 
ATOM      9  O   UNL     1      -2.149   2.065   1.106  0.00  0.00    -0.269 OA
ATOM     10  H   UNL     1      -0.191   4.170  -0.023  0.00  0.00    +0.155 HD
BRANCH   8  11
ATOM     11  C   UNL     1       0.096   1.670   0.641  0.00  0.00    +0.075 A 
ATOM     12  C   UNL     1       0.248   0.357   1.037  0.00  0.00    +0.024 A 
ATOM     13  C   UNL     1       1.504  -0.234   0.893  0.00  0.00    -0.036 A 
ATOM     14  C   UNL     1       2.490   0.544   0.371  0.00  0.00    -0.006 A 
ATOM     15  S   UNL     1       1.736   2.069   0.066  0.00  0.00    -0.088 S 
ATOM     16  C   UNL     1       3.795  -0.196   0.269  0.00  0.00    +0.043 C 
ATOM     17  C   UNL     1       3.624  -1.418   1.198  0.00  0.00    +0.010 C 
ATOM     18  C   UNL     1       2.095  -1.615   1.187  0.00  0.00    +0.036 C 
ENDBRANCH   8  11
ENDBRANCH   5   7
BRANCH   1  19
ATOM     19  S   UNL     1      -6.171   3.908  -0.077  0.00  0.00    +0.072 S 
ATOM     20  O   UNL     1      -6.039   2.658   0.585  0.00  0.00    -0.150 OA
ATOM     21  O   UNL     1      -7.137   4.877   0.309  0.00  0.00    -0.150 OA
BRANCH  19  22
ATOM     22  N   UNL     1      -6.453   3.570  -1.674  0.00  0.00    -0.216 N 
ATOM     23  H   UNL     1      -7.176   4.013  -2.144  0.00  0.00    +0.174 HD
BRANCH  22  27
ATOM     24  C   UNL     1      -4.053   0.811  -3.674  0.00  0.00    +0.120 A 
ATOM     25  C   UNL     1      -5.010   0.371  -2.772  0.00  0.00    +0.047 A 
ATOM     26  C   UNL     1      -5.806   1.284  -2.109  0.00  0.00    +0.028 A 
ATOM     27  C   UNL     1      -5.647   2.643  -2.345  0.00  0.00    +0.048 A 
ATOM     28  C   UNL     1      -4.692   3.083  -3.253  0.00  0.00    +0.028 A 
ATOM     29  C   UNL     1      -3.893   2.168  -3.911  0.00  0.00    +0.047 A 
BRANCH  24  31
ATOM     30  C   UNL     1      -2.305   0.433  -5.243  0.00  0.00    +0.277 C 
ATOM     31  O   UNL     1      -3.270  -0.089  -4.327  0.00  0.00    -0.495 OA
ENDBRANCH  24  31
ENDBRANCH  22  27
ENDBRANCH  19  22
ENDBRANCH   1  19
BRANCH   4  32
ATOM     32  O   UNL     1      -0.920   6.561   0.242  0.00  0.00    -0.505 OA
ATOM     33  H   UNL     1      -0.514   6.737  -0.618  0.00  0.00    +0.292 HD
ENDBRANCH   4  32
TORSDOF 7
