REMARK  Name = ZINC35559901
REMARK  8 active torsions:
REMARK  status: ('A' for Active; 'I' for Inactive)
REMARK    1  A    between atoms: C_1  and  C_2
REMARK    2  A    between atoms: C_2  and  C_3
REMARK    3  A    between atoms: C_2  and  C_4
REMARK    4  A    between atoms: C_7  and  N_10
REMARK    5  A    between atoms: C_11  and  C_17
REMARK    6  A    between atoms: C_21  and  N_23
REMARK    7  A    between atoms: N_23  and  S_24
REMARK    8  A    between atoms: S_24  and  C_27
REMARK                            x       y       z     vdW  Elec       q    Type
REMARK                         _______ _______ _______ _____ _____    ______ ____
ROOT
ATOM      1  C   UNL     1      -4.864  -3.797  -1.536  0.00  0.00    -0.015 A 
ATOM      2  C   UNL     1      -4.024  -4.381  -0.605  0.00  0.00    +0.006 A 
ATOM      3  C   UNL     1      -3.126  -5.356  -0.995  0.00  0.00    +0.002 A 
ATOM      4  C   UNL     1      -3.063  -5.751  -2.317  0.00  0.00    +0.024 A 
ATOM      5  C   UNL     1      -3.905  -5.166  -3.255  0.00  0.00    +0.048 A 
ATOM      6  C   UNL     1      -4.811  -4.190  -2.858  0.00  0.00    +0.030 A 
ENDROOT
BRANCH   1   8
ATOM      7  N   UNL     1      -5.320  -1.968   0.042  0.00  0.00    -0.254 N 
ATOM      8  C   UNL     1      -5.841  -2.734  -1.105  0.00  0.00    +0.170 C 
ATOM      9  S   UNL     1      -7.361  -3.485  -0.379  0.00  0.00    -0.124 S 
ATOM     10  C   UNL     1      -7.522  -2.305   1.031  0.00  0.00    +0.167 C 
ATOM     11  C   UNL     1      -6.109  -1.748   1.087  0.00  0.00    +0.231 C 
ATOM     12  O   UNL     1      -5.717  -1.123   2.049  0.00  0.00    -0.274 OA
BRANCH   7  16
ATOM     13  C   UNL     1      -1.412  -0.526   0.011  0.00  0.00    -0.045 A 
ATOM     14  C   UNL     1      -1.812  -1.413   0.993  0.00  0.00    +0.006 A 
ATOM     15  C   UNL     1      -3.107  -1.893   1.006  0.00  0.00    +0.024 A 
ATOM     16  C   UNL     1      -4.008  -1.483   0.032  0.00  0.00    +0.038 A 
ATOM     17  C   UNL     1      -3.603  -0.592  -0.953  0.00  0.00    +0.024 A 
ATOM     18  C   UNL     1      -2.308  -0.112  -0.957  0.00  0.00    +0.006 A 
BRANCH  13  20
ATOM     19  C   UNL     1       0.284   0.734   1.310  0.00  0.00    +0.012 C 
ATOM     20  C   UNL     1       0.002  -0.004   0.000  0.00  0.00    +0.013 C 
ATOM     21  C   UNL     1       0.976  -1.175  -0.146  0.00  0.00    +0.012 C 
ENDBRANCH  13  20
ENDBRANCH   7  16
ENDBRANCH   1   8
BRANCH   5  22
ATOM     22  N   UNL     1      -3.845  -5.563  -4.593  0.00  0.00    -0.216 N 
ATOM     23  H   UNL     1      -3.846  -4.895  -5.297  0.00  0.00    +0.174 HD
BRANCH  22  24
ATOM     24  S   UNL     1      -3.770  -7.172  -4.978  0.00  0.00    +0.072 S 
ATOM     25  O   UNL     1      -3.746  -7.250  -6.396  0.00  0.00    -0.150 OA
ATOM     26  O   UNL     1      -2.749  -7.736  -4.166  0.00  0.00    -0.150 OA
BRANCH  24  27
ATOM     27  C   UNL     1      -5.287  -7.902  -4.458  0.00  0.00    +0.109 A 
ATOM     28  C   UNL     1      -5.394  -8.418  -3.168  0.00  0.00    +0.029 A 
ATOM     29  C   UNL     1      -6.552  -8.989  -2.736  0.00  0.00    +0.010 A 
ATOM     30  C   UNL     1      -7.657  -9.061  -3.600  0.00  0.00    -0.018 A 
ATOM     31  C   UNL     1      -8.869  -9.643  -3.190  0.00  0.00    +0.008 A 
ATOM     32  C   UNL     1      -9.919  -9.694  -4.054  0.00  0.00    +0.001 A 
ATOM     33  C   UNL     1      -9.812  -9.177  -5.344  0.00  0.00    +0.001 A 
ATOM     34  C   UNL     1      -8.654  -8.606  -5.777  0.00  0.00    +0.008 A 
ATOM     35  C   UNL     1      -7.548  -8.535  -4.912  0.00  0.00    -0.016 A 
ATOM     36  C   UNL     1      -6.339  -7.949  -5.321  0.00  0.00    +0.037 A 
ENDBRANCH  24  27
ENDBRANCH  22  24
ENDBRANCH   5  22
TORSDOF 6
