REMARK  Name = ZINC21782995
REMARK  8 active torsions:
REMARK  status: ('A' for Active; 'I' for Inactive)
REMARK    1  A    between atoms: C_1  and  C_2
REMARK    2  A    between atoms: C_10  and  C_11
REMARK    3  A    between atoms: N_13  and  N_14
REMARK    4  A    between atoms: C_15  and  C_17
REMARK    5  A    between atoms: C_18  and  C_27
REMARK    6  A    between atoms: C_19  and  C_24
REMARK    7  A    between atoms: C_20  and  C_23
REMARK    8  A    between atoms: C_24  and  C_26
REMARK                            x       y       z     vdW  Elec       q    Type
REMARK                         _______ _______ _______ _____ _____    ______ ____
ROOT
ATOM      1  N   UNL     1       1.290   1.678  -0.727  0.00  0.00    -0.229 N 
ATOM      2  C   UNL     1       2.464   1.034  -0.574  0.00  0.00    +0.277 C 
ATOM      3  O   UNL     1       2.510  -0.178  -0.674  0.00  0.00    -0.267 OA
ATOM      4  H   UNL     1       1.248   2.773  -0.636  0.00  0.00    +0.173 HD
ENDROOT
BRANCH   2   5
ATOM      5  C   UNL     1       3.687   1.794  -0.285  0.00  0.00    +0.107 A 
ATOM      6  C   UNL     1       4.929   1.266  -0.103  0.00  0.00    -0.010 A 
ATOM      7  C   UNL     1       5.806   2.349   0.147  0.00  0.00    +0.041 A 
ATOM      8  C   UNL     1       5.042   3.504   0.114  0.00  0.00    +0.024 A 
ATOM      9  N   UNL     1       3.771   3.163  -0.145  0.00  0.00    -0.354 N 
ATOM     10  H   UNL     1       2.869   3.783  -0.252  0.00  0.00    +0.166 HD
ATOM     11  C   UNL     1       5.551   4.905   0.333  0.00  0.00    +0.064 C 
ATOM     12  C   UNL     1       5.300  -0.194  -0.160  0.00  0.00    +0.047 C 
BRANCH   7  13
ATOM     13  C   UNL     1       7.248   2.263   0.399  0.00  0.00    +0.162 C 
ATOM     14  O   UNL     1       7.660   2.161   1.535  0.00  0.00    -0.292 OA
ATOM     15  C   UNL     1       8.218   2.303  -0.754  0.00  0.00    +0.091 C 
ENDBRANCH   7  13
ENDBRANCH   2   5
BRANCH   1  18
ATOM     16  C   UNL     1      -1.049   1.597  -1.162  0.00  0.00    +0.296 C 
ATOM     17  O   UNL     1      -1.096   2.809  -1.061  0.00  0.00    -0.265 OA
ATOM     18  N   UNL     1       0.124   0.952  -1.003  0.00  0.00    -0.228 N 
ATOM     19  H   UNL     1       0.165  -0.143  -1.089  0.00  0.00    +0.173 HD
BRANCH  16  29
ATOM     20  C   UNL     1      -3.873   2.837  -1.561  0.00  0.00    +0.048 C 
ATOM     21  C   UNL     1      -3.505   1.377  -1.631  0.00  0.00    +0.008 A 
ATOM     22  C   UNL     1      -4.404   0.256  -1.903  0.00  0.00    +0.024 A 
ATOM     23  C   UNL     1      -5.772   0.146  -2.166  0.00  0.00    +0.012 A 
ATOM     24  C   UNL     1      -6.323  -1.085  -2.379  0.00  0.00    +0.001 A 
ATOM     25  C   UNL     1      -5.534  -2.227  -2.336  0.00  0.00    +0.004 A 
ATOM     26  C   UNL     1      -4.183  -2.140  -2.078  0.00  0.00    +0.047 A 
ATOM     27  C   UNL     1      -3.599  -0.897  -1.858  0.00  0.00    +0.136 A 
ATOM     28  O   UNL     1      -2.339  -0.504  -1.590  0.00  0.00    -0.450 OA
ATOM     29  C   UNL     1      -2.272   0.837  -1.457  0.00  0.00    +0.195 A 
ENDBRANCH  16  29
ENDBRANCH   1  18
TORSDOF 4
