REMARK  Name = ZINC21220976
REMARK  10 active torsions:
REMARK  status: ('A' for Active; 'I' for Inactive)
REMARK    1  A    between atoms: C_1  and  O_2
REMARK    2  A    between atoms: O_2  and  C_3
REMARK    3  A    between atoms: C_6  and  O_39
REMARK    4  A    between atoms: C_7  and  C_9
REMARK    5  A    between atoms: C_14  and  C_24
REMARK    6  A    between atoms: C_26  and  N_33
REMARK    7  A    between atoms: C_27  and  O_32
REMARK    8  A    between atoms: C_28  and  O_30
REMARK    9  A    between atoms: O_30  and  C_31
REMARK   10  A    between atoms: O_39  and  C_40
REMARK                            x       y       z     vdW  Elec       q    Type
REMARK                         _______ _______ _______ _____ _____    ______ ____
ROOT
ATOM      1  C   UNL     1       3.958   2.784  -4.267  0.00  0.00    +0.036 C 
ATOM      2  C   UNL     1       4.326   4.013  -3.438  0.00  0.00    +0.060 C 
ATOM      3  C   UNL     1       3.958   3.787  -1.981  0.00  0.00    +0.017 C 
ATOM      4  C   UNL     1       4.003   2.554  -1.448  0.00  0.00    +0.036 C 
ATOM      5  C   UNL     1       3.671   2.193  -0.021  0.00  0.00    +0.136 C 
ATOM      6  N   UNL     1       3.530   3.326   0.870  0.00  0.00    -0.331 N 
ATOM      7  C   UNL     1       2.507   4.255   0.692  0.00  0.00    +0.049 A 
ATOM      8  C   UNL     1       1.470   4.372   1.603  0.00  0.00    +0.025 A 
ATOM      9  C   UNL     1       0.416   5.226   1.329  0.00  0.00    +0.002 A 
ATOM     10  C   UNL     1       0.396   5.959   0.156  0.00  0.00    +0.002 A 
ATOM     11  C   UNL     1       1.442   5.861  -0.746  0.00  0.00    +0.025 A 
ATOM     12  C   UNL     1       2.505   5.021  -0.464  0.00  0.00    +0.052 A 
ATOM     13  N   UNL     1       3.608   4.910  -1.303  0.00  0.00    -0.316 N 
ATOM     14  C   UNL     1       4.387   1.449  -2.244  0.00  0.00    +0.163 C 
ATOM     15  O   UNL     1       4.439   0.347  -1.732  0.00  0.00    -0.292 OA
ATOM     16  C   UNL     1       4.731   1.589  -3.697  0.00  0.00    +0.088 C 
ATOM     17  H   UNL     1       4.237   3.463   1.701  0.00  0.00    +0.147 HD
ATOM     18  H   UNL     1       4.217   5.821  -1.396  0.00  0.00    +0.152 HD
ENDROOT
BRANCH   1  23
ATOM     19  C   UNL     1       6.024   3.444  -7.362  0.00  0.00    +0.121 A 
ATOM     20  C   UNL     1       5.056   3.409  -8.354  0.00  0.00    +0.049 A 
ATOM     21  C   UNL     1       3.736   3.172  -8.024  0.00  0.00    +0.049 A 
ATOM     22  C   UNL     1       3.379   2.969  -6.699  0.00  0.00    +0.124 A 
ATOM     23  C   UNL     1       4.347   3.004  -5.706  0.00  0.00    +0.002 A 
ATOM     24  C   UNL     1       5.666   3.246  -6.037  0.00  0.00    +0.053 A 
BRANCH  19  26
ATOM     25  C   UNL     1       7.620   3.877  -9.070  0.00  0.00    +0.277 C 
ATOM     26  O   UNL     1       7.324   3.677  -7.687  0.00  0.00    -0.495 OA
ENDBRANCH  19  26
BRANCH  22  27
ATOM     27  O   UNL     1       2.079   2.736  -6.373  0.00  0.00    -0.495 OA
ATOM     28  C   UNL     1       1.136   2.714  -7.446  0.00  0.00    +0.277 C 
ENDBRANCH  22  27
ENDBRANCH   1  23
BRANCH   5  29
ATOM     29  C   UNL     1       2.379   1.417  -0.013  0.00  0.00    -0.017 A 
ATOM     30  C   UNL     1       1.212   2.017  -0.447  0.00  0.00    +0.042 A 
ATOM     31  C   UNL     1       0.024   1.309  -0.442  0.00  0.00    +0.171 A 
ATOM     32  C   UNL     1       0.002  -0.004  -0.000  0.00  0.00    +0.189 A 
ATOM     33  C   UNL     1       1.177  -0.608   0.437  0.00  0.00    +0.164 A 
ATOM     34  C   UNL     1       2.364   0.107   0.429  0.00  0.00    +0.055 A 
BRANCH  31  35
ATOM     35  N   UNL     1      -1.223   1.952  -0.913  0.00  0.00    +0.060 N 
ATOM     36  O   UNL     1      -1.204   3.107  -1.301  0.00  0.00    -0.126 OA
ATOM     37  O   UNL     1      -2.268   1.327  -0.913  0.00  0.00    -0.126 OA
ENDBRANCH  31  35
BRANCH  33  38
ATOM     38  O   UNL     1       1.161  -1.897   0.871  0.00  0.00    -0.491 OA
ATOM     39  C   UNL     1       2.405  -2.451   1.305  0.00  0.00    +0.277 C 
ENDBRANCH  33  38
BRANCH  32  40
ATOM     40  O   UNL     1      -1.165  -0.702   0.006  0.00  0.00    -0.502 OA
ATOM     41  H   UNL     1      -1.181  -1.744   0.357  0.00  0.00    +0.292 HD
ENDBRANCH  32  40
ENDBRANCH   5  29
TORSDOF 7
