REMARK  Name = ZINC34954467
REMARK  5 active torsions:
REMARK  status: ('A' for Active; 'I' for Inactive)
REMARK    1  A    between atoms: C_1  and  C_2
REMARK    2  A    between atoms: C_11  and  C_19
REMARK    3  A    between atoms: C_12  and  N_18
REMARK    4  A    between atoms: C_13  and  C_14
REMARK    5  A    between atoms: C_13  and  C_16
REMARK                            x       y       z     vdW  Elec       q    Type
REMARK                         _______ _______ _______ _____ _____    ______ ____
ROOT
ATOM      1  C   UNL     1      -0.019   1.526   0.010  0.00  0.00    +0.011 C 
ATOM      2  C   UNL     1       0.002  -0.004   0.002  0.00  0.00    +0.033 C 
ATOM      3  C   UNL     1       0.611  -0.501  -1.311  0.00  0.00    +0.026 C 
ATOM      4  C   UNL     1      -0.040   0.142  -2.513  0.00  0.00    +0.009 C 
ATOM      5  C   UNL     1      -1.093  -0.766  -3.144  0.00  0.00    +0.005 C 
ATOM      6  C   UNL     1      -0.412  -2.076  -3.564  0.00  0.00    +0.027 C 
ATOM      7  C   UNL     1       0.141  -2.725  -2.323  0.00  0.00    -0.022 C 
ATOM      8  C   UNL     1       0.552  -2.000  -1.320  0.00  0.00    -0.029 C 
ATOM      9  C   UNL     1       0.970  -2.697  -0.075  0.00  0.00    +0.074 C 
ATOM     10  C   UNL     1       1.093  -1.988   1.075  0.00  0.00    +0.054 C 
ATOM     11  C   UNL     1       0.851  -0.511   1.168  0.00  0.00    +0.184 C 
ENDROOT
BRANCH  10  12
ATOM     12  N   UNL     1       1.456  -2.656   2.210  0.00  0.00    -0.358 N 
ATOM     13  H   UNL     1       1.617  -3.612   2.180  0.00  0.00    +0.142 HD
ATOM     14  H   UNL     1       1.552  -2.174   3.047  0.00  0.00    +0.142 HD
ENDBRANCH  10  12
BRANCH  11  15
ATOM     15  C   UNL     1       2.147   0.188   1.158  0.00  0.00    +0.091 C 
ATOM     16  N   UNL     1       3.147   0.727   1.151  0.00  0.00    -0.195 NA
ENDBRANCH  11  15
BRANCH  11  17
ATOM     17  C   UNL     1       0.157  -0.215   2.432  0.00  0.00    +0.091 C 
ATOM     18  N   UNL     1      -0.378   0.014   3.408  0.00  0.00    -0.195 NA
ENDBRANCH  11  17
BRANCH   9  19
ATOM     19  C   UNL     1       1.238  -4.104  -0.090  0.00  0.00    +0.101 C 
ATOM     20  N   UNL     1       1.451  -5.220  -0.101  0.00  0.00    -0.191 NA
ENDBRANCH   9  19
TORSDOF 4
