REMARK  Name = ZINC28296104
REMARK  12 active torsions:
REMARK  status: ('A' for Active; 'I' for Inactive)
REMARK    1  A    between atoms: C_1  and  C_2
REMARK    2  A    between atoms: C_2  and  N_3
REMARK    3  A    between atoms: N_3  and  C_4
REMARK    4  A    between atoms: N_3  and  C_6
REMARK    5  A    between atoms: C_4  and  C_5
REMARK    6  A    between atoms: C_6  and  C_8
REMARK    7  A    between atoms: C_6  and  C_24
REMARK    8  A    between atoms: C_8  and  N_9
REMARK    9  A    between atoms: C_10  and  C_12
REMARK   10  A    between atoms: C_14  and  C_17
REMARK   11  A    between atoms: C_27  and  O_30
REMARK   12  A    between atoms: O_30  and  C_31
REMARK                            x       y       z     vdW  Elec       q    Type
REMARK                         _______ _______ _______ _____ _____    ______ ____
ROOT
ATOM      1  C   UNL     1       5.868  -1.358  -0.315  0.00  0.00    +0.094 C 
ENDROOT
BRANCH   1   2
ATOM      2  N   UNL     1       4.619  -0.786  -0.825  0.00  0.00    -0.311 N 
ATOM      3  C   UNL     1       4.597   0.481  -1.285  0.00  0.00    +0.266 C 
ATOM      4  O   UNL     1       5.612   1.148  -1.276  0.00  0.00    -0.268 OA
ATOM      5  H   UNL     1       3.700  -1.390  -0.832  0.00  0.00    +0.149 HD
BRANCH   3   6
ATOM      6  C   UNL     1       3.333   1.060  -1.801  0.00  0.00    +0.168 A 
ATOM      7  C   UNL     1       3.145   2.369  -2.317  0.00  0.00    +0.086 A 
ATOM      8  C   UNL     1       1.819   2.401  -2.652  0.00  0.00    +0.168 A 
ATOM      9  O   UNL     1       1.321   1.191  -2.340  0.00  0.00    -0.354 OA
ATOM     10  N   UNL     1       2.167   0.465  -1.873  0.00  0.00    -0.073 NA
BRANCH   8  11
ATOM     11  C   UNL     1       1.083   3.537  -3.245  0.00  0.00    +0.020 A 
ATOM     12  C   UNL     1       1.742   4.738  -3.509  0.00  0.00    +0.013 A 
ATOM     13  C   UNL     1       1.050   5.793  -4.067  0.00  0.00    +0.016 A 
ATOM     14  C   UNL     1      -0.298   5.665  -4.357  0.00  0.00    +0.018 A 
ATOM     15  C   UNL     1      -0.958   4.477  -4.093  0.00  0.00    +0.016 A 
ATOM     16  C   UNL     1      -0.276   3.413  -3.539  0.00  0.00    +0.013 A 
ATOM     17 BR   UNL     1      -1.241   7.118  -5.115  0.00  0.00    -0.050 Br
ENDBRANCH   8  11
ENDBRANCH   3   6
ENDBRANCH   1   2
BRANCH   1  18
ATOM     18  C   UNL     1       5.595  -2.752   0.254  0.00  0.00    -0.020 C 
BRANCH  18  19
ATOM     19  C   UNL     1       6.899  -3.403   0.635  0.00  0.00    -0.059 A 
ATOM     20  C   UNL     1       7.886  -3.582  -0.316  0.00  0.00    +0.005 A 
ATOM     21  C   UNL     1       9.085  -4.173   0.033  0.00  0.00    +0.046 A 
ATOM     22  C   UNL     1       9.294  -4.598   1.336  0.00  0.00    +0.120 A 
ATOM     23  C   UNL     1       8.300  -4.423   2.288  0.00  0.00    +0.046 A 
ATOM     24  C   UNL     1       7.105  -3.826   1.936  0.00  0.00    +0.005 A 
BRANCH  22  25
ATOM     25  O   UNL     1      10.470  -5.186   1.681  0.00  0.00    -0.495 OA
ATOM     26  C   UNL     1      11.448  -5.334   0.649  0.00  0.00    +0.277 C 
ENDBRANCH  22  25
ENDBRANCH  18  19
BRANCH  18  27
ATOM     27  N   UNL     1       4.918  -3.571  -0.761  0.00  0.00    +0.385 N 
ATOM     28  H   UNL     1       4.279  -2.906  -1.361  0.00  0.00    -0.081 HD
BRANCH  27  30
ATOM     29  C   UNL     1       6.347  -3.179  -2.711  0.00  0.00    -0.017 C 
ATOM     30  C   UNL     1       5.890  -4.199  -1.665  0.00  0.00    -0.081 C 
ENDBRANCH  27  30
BRANCH  27  31
ATOM     31  C   UNL     1       4.055  -4.580  -0.133  0.00  0.00    -0.081 C 
ATOM     32  C   UNL     1       2.809  -3.901   0.440  0.00  0.00    -0.017 C 
ENDBRANCH  27  31
ENDBRANCH  18  27
ENDBRANCH   1  18
TORSDOF 9
