REMARK  Name = ZINC34975284
REMARK  9 active torsions:
REMARK  status: ('A' for Active; 'I' for Inactive)
REMARK    1  A    between atoms: C_1  and  C_2
REMARK    2  A    between atoms: C_5  and  C_8
REMARK    3  A    between atoms: C_15  and  C_17
REMARK    4  A    between atoms: C_18  and  C_20
REMARK    5  A    between atoms: C_20  and  C_22
REMARK    6  A    between atoms: C_20  and  N_25
REMARK    7  A    between atoms: C_22  and  C_23
REMARK    8  A    between atoms: C_22  and  C_24
REMARK    9  A    between atoms: N_28  and  C_29
REMARK                            x       y       z     vdW  Elec       q    Type
REMARK                         _______ _______ _______ _____ _____    ______ ____
ROOT
ATOM      1  C   UNL     1      -1.319  -4.633   0.214  0.00  0.00    +0.247 C 
ATOM      2  O   UNL     1      -1.392  -5.243  -0.835  0.00  0.00    -0.270 OA
ATOM      3  N   UNL     1      -0.901  -5.261   1.331  0.00  0.00    -0.292 N 
ATOM      4  C   UNL     1      -0.907  -4.566   2.627  0.00  0.00    +0.127 C 
ATOM      5  C   UNL     1       0.504  -4.633   3.224  0.00  0.00    +0.127 C 
ATOM      6  N   UNL     1       0.973  -6.025   3.169  0.00  0.00    -0.297 N 
ATOM      7  C   UNL     1       0.978  -6.719   1.874  0.00  0.00    +0.130 C 
ATOM      8  C   UNL     1      -0.438  -6.655   1.277  0.00  0.00    +0.091 C 
ATOM      9  C   UNL     1      -1.383  -7.542   2.091  0.00  0.00    +0.029 C 
ATOM     10  C   UNL     1       1.391  -6.652   4.286  0.00  0.00    +0.236 C 
ATOM     11  O   UNL     1       1.866  -7.766   4.214  0.00  0.00    -0.274 OA
ENDROOT
BRANCH   1  16
ATOM     12  C   UNL     1      -2.757   0.935   0.412  0.00  0.00    +0.044 C 
ATOM     13  C   UNL     1      -2.381  -0.523   0.360  0.00  0.00    -0.050 A 
ATOM     14  C   UNL     1      -2.859  -1.393   1.324  0.00  0.00    +0.004 A 
ATOM     15  C   UNL     1      -2.518  -2.729   1.283  0.00  0.00    +0.013 A 
ATOM     16  C   UNL     1      -1.689  -3.203   0.265  0.00  0.00    +0.037 A 
ATOM     17  C   UNL     1      -1.210  -2.320  -0.704  0.00  0.00    +0.013 A 
ATOM     18  C   UNL     1      -1.562  -0.987  -0.654  0.00  0.00    +0.004 A 
ENDBRANCH   1  16
BRANCH  10  19
ATOM     19  C   UNL     1       1.268  -5.971   5.624  0.00  0.00    +0.163 C 
BRANCH  19  20
ATOM     20  N   UNL     1       0.987  -6.971   6.657  0.00  0.00    -0.288 N 
ATOM     21  C   UNL     1       0.353  -6.609   7.791  0.00  0.00    +0.304 C 
ATOM     22  O   UNL     1       0.015  -5.453   7.956  0.00  0.00    -0.252 OA
ATOM     23  N   UNL     1       0.095  -7.529   8.741  0.00  0.00    -0.268 N 
ATOM     24  H   UNL     1       1.256  -7.893   6.526  0.00  0.00    +0.151 HD
ATOM     25  H   UNL     1       0.445  -8.430   8.652  0.00  0.00    +0.156 HD
BRANCH  23  26
ATOM     26  C   UNL     1      -0.678  -7.185   9.857  0.00  0.00    +0.049 A 
ATOM     27  C   UNL     1      -1.649  -6.198   9.753  0.00  0.00    +0.024 A 
ATOM     28  C   UNL     1      -2.410  -5.861  10.854  0.00  0.00    +0.002 A 
ATOM     29  C   UNL     1      -2.207  -6.505  12.061  0.00  0.00    +0.001 A 
ATOM     30  C   UNL     1      -1.241  -7.489  12.168  0.00  0.00    +0.017 A 
ATOM     31  C   UNL     1      -0.479  -7.835  11.068  0.00  0.00    +0.039 A 
ATOM     32 BR   UNL     1       0.836  -9.185  11.214  0.00  0.00    -0.048 Br
ENDBRANCH  23  26
ENDBRANCH  19  20
BRANCH  19  33
ATOM     33  C   UNL     1       2.578  -5.252   5.953  0.00  0.00    +0.012 C 
ATOM     34  C   UNL     1       2.841  -4.167   4.906  0.00  0.00    +0.009 C 
ATOM     35  C   UNL     1       2.473  -4.610   7.338  0.00  0.00    +0.009 C 
ENDBRANCH  19  33
ENDBRANCH  10  19
TORSDOF 5
