REMARK  Name = ZINC16395429
REMARK  7 active torsions:
REMARK  status: ('A' for Active; 'I' for Inactive)
REMARK    1  A    between atoms: C_1  and  C_2
REMARK    2  A    between atoms: C_15  and  C_17
REMARK    3  A    between atoms: C_17  and  N_18
REMARK    4  A    between atoms: N_18  and  C_19
REMARK    5  A    between atoms: N_18  and  C_22
REMARK    6  A    between atoms: C_19  and  C_20
REMARK    7  A    between atoms: C_22  and  C_23
REMARK                            x       y       z     vdW  Elec       q    Type
REMARK                         _______ _______ _______ _____ _____    ______ ____
ROOT
ATOM      1  C   UNL     1       0.318   1.724  -0.735  0.00  0.00    +0.029 C 
ATOM      2  C   UNL     1       0.320   0.195  -0.774  0.00  0.00    +0.087 C 
ATOM      3  C   UNL     1      -1.103  -0.309  -1.021  0.00  0.00    +0.118 C 
ATOM      4  C   UNL     1      -1.201  -1.772  -0.676  0.00  0.00    +0.219 C 
ATOM      5  O   UNL     1      -1.241  -2.599  -1.562  0.00  0.00    -0.275 OA
ATOM      6  N   UNL     1      -1.246  -2.168   0.615  0.00  0.00    -0.284 N 
ATOM      7  C   UNL     1      -1.104  -1.236   1.648  0.00  0.00    +0.055 A 
ATOM      8  C   UNL     1      -1.998  -1.206   2.706  0.00  0.00    +0.025 A 
ATOM      9  C   UNL     1      -1.823  -0.291   3.728  0.00  0.00    +0.002 A 
ATOM     10  C   UNL     1      -0.760   0.593   3.699  0.00  0.00    +0.002 A 
ATOM     11  C   UNL     1       0.132   0.576   2.642  0.00  0.00    +0.025 A 
ATOM     12  C   UNL     1      -0.043  -0.330   1.608  0.00  0.00    +0.058 A 
ATOM     13  N   UNL     1       0.815  -0.325   0.502  0.00  0.00    -0.268 N 
ATOM     14  C   UNL     1       2.076  -0.788   0.611  0.00  0.00    +0.204 C 
ATOM     15  O   UNL     1       2.812  -0.778  -0.353  0.00  0.00    -0.277 OA
ATOM     16  H   UNL     1      -1.377  -3.106   0.826  0.00  0.00    +0.155 HD
ENDROOT
BRANCH  14  17
ATOM     17  C   UNL     1       2.572  -1.319   1.932  0.00  0.00    +0.020 C 
BRANCH  17  18
ATOM     18  N   UNL     1       3.966  -1.760   1.790  0.00  0.00    +0.391 N 
ATOM     19  H   UNL     1       4.032  -2.428   1.037  0.00  0.00    -0.080 HD
BRANCH  18  20
ATOM     20  C   UNL     1       4.818  -0.601   1.493  0.00  0.00    -0.051 C 
BRANCH  20  21
ATOM     21  C   UNL     1       6.220  -1.070   1.202  0.00  0.00    -0.053 C 
ATOM     22  C   UNL     1       6.797  -0.750   0.070  0.00  0.00    +0.002 C 
ENDBRANCH  20  21
ENDBRANCH  18  20
BRANCH  18  23
ATOM     23  C   UNL     1       4.411  -2.387   3.042  0.00  0.00    -0.035 C 
BRANCH  23  24
ATOM     24  C   UNL     1       3.627  -3.652   3.276  0.00  0.00    -0.027 A 
ATOM     25  C   UNL     1       3.853  -4.899   2.793  0.00  0.00    +0.009 A 
ATOM     26  C   UNL     1       2.992  -5.921   3.146  0.00  0.00    +0.008 A 
ATOM     27  C   UNL     1       1.947  -5.647   3.965  0.00  0.00    +0.045 A 
ATOM     28  S   UNL     1       2.163  -3.901   4.268  0.00  0.00    -0.103 S 
ENDBRANCH  23  24
ENDBRANCH  18  23
ENDBRANCH  17  18
ENDBRANCH  14  17
TORSDOF 6
