REMARK  Name = ZINC22577338
REMARK  8 active torsions:
REMARK  status: ('A' for Active; 'I' for Inactive)
REMARK    1  A    between atoms: C_1  and  C_2
REMARK    2  A    between atoms: C_14  and  C_15
REMARK    3  A    between atoms: C_15  and  O_17
REMARK    4  A    between atoms: O_17  and  C_18
REMARK    5  A    between atoms: C_18  and  C_20
REMARK    6  A    between atoms: C_18  and  C_23
REMARK    7  A    between atoms: C_20  and  C_21
REMARK    8  A    between atoms: C_20  and  C_22
REMARK                            x       y       z     vdW  Elec       q    Type
REMARK                         _______ _______ _______ _____ _____    ______ ____
ROOT
ATOM      1  C   UNL     1       1.813   1.811  -0.153  0.00  0.00    +0.376 C 
ATOM      2  O   UNL     1       2.634   0.997  -0.529  0.00  0.00    -0.241 OA
ENDROOT
BRANCH   1  16
ATOM      3  C   UNL     1       4.678   2.940  -0.572  0.00  0.00    +0.048 C 
ATOM      4  C   UNL     1       3.462   3.707  -0.120  0.00  0.00    +0.010 A 
ATOM      5  C   UNL     1       3.403   5.087   0.195  0.00  0.00    +0.025 A 
ATOM      6  C   UNL     1       4.364   6.120   0.194  0.00  0.00    +0.012 A 
ATOM      7  C   UNL     1       4.028   7.380   0.555  0.00  0.00    +0.009 A 
ATOM      8  C   UNL     1       2.703   7.681   0.938  0.00  0.00    -0.014 A 
ATOM      9  C   UNL     1       2.343   8.985   1.315  0.00  0.00    +0.008 A 
ATOM     10  C   UNL     1       1.057   9.252   1.680  0.00  0.00    +0.001 A 
ATOM     11  C   UNL     1       0.092   8.249   1.686  0.00  0.00    +0.001 A 
ATOM     12  C   UNL     1       0.407   6.973   1.327  0.00  0.00    +0.012 A 
ATOM     13  C   UNL     1       1.721   6.662   0.945  0.00  0.00    +0.025 A 
ATOM     14  C   UNL     1       2.081   5.350   0.568  0.00  0.00    +0.144 A 
ATOM     15  O   UNL     1       1.392   4.198   0.476  0.00  0.00    -0.447 OA
ATOM     16  C   UNL     1       2.210   3.207   0.061  0.00  0.00    +0.216 A 
ENDBRANCH   1  16
BRANCH   1  17
ATOM     17  O   UNL     1       0.538   1.432   0.066  0.00  0.00    -0.446 OA
BRANCH  17  18
ATOM     18  C   UNL     1       0.217   0.035  -0.167  0.00  0.00    +0.265 C 
BRANCH  18  19
ATOM     19  C   UNL     1      -0.901  -0.384   0.753  0.00  0.00    +0.261 C 
ATOM     20  O   UNL     1      -1.191  -1.556   0.860  0.00  0.00    -0.271 OA
ATOM     21  N   UNL     1      -1.578   0.545   1.456  0.00  0.00    -0.237 N 
ATOM     22  C   UNL     1      -2.510   0.165   2.353  0.00  0.00    +0.303 C 
ATOM     23  O   UNL     1      -2.740  -1.016   2.526  0.00  0.00    -0.253 OA
ATOM     24  N   UNL     1      -3.187   1.093   3.056  0.00  0.00    -0.313 N 
ATOM     25  H   UNL     1      -1.370   1.614   1.300  0.00  0.00    +0.159 HD
ATOM     26  H   UNL     1      -3.948   0.783   3.788  0.00  0.00    +0.146 HD
ATOM     27  H   UNL     1      -2.979   2.162   2.900  0.00  0.00    +0.146 HD
ENDBRANCH  18  19
BRANCH  18  28
ATOM     28  C   UNL     1      -0.222  -0.152  -1.621  0.00  0.00    +0.033 C 
ATOM     29  C   UNL     1       0.906   0.289  -2.555  0.00  0.00    +0.011 C 
ATOM     30  C   UNL     1      -0.545  -1.626  -1.871  0.00  0.00    +0.011 C 
ENDBRANCH  18  28
ENDBRANCH  17  18
ENDBRANCH   1  17
TORSDOF 5
