REMARK  Name = ZINC21873109
REMARK  8 active torsions:
REMARK  status: ('A' for Active; 'I' for Inactive)
REMARK    1  A    between atoms: C_1  and  C_2
REMARK    2  A    between atoms: C_5  and  S_11
REMARK    3  A    between atoms: C_7  and  N_8
REMARK    4  A    between atoms: S_11  and  N_14
REMARK    5  A    between atoms: N_14  and  C_15
REMARK    6  A    between atoms: C_18  and  C_21
REMARK    7  A    between atoms: N_23  and  C_24
REMARK    8  A    between atoms: C_24  and  C_25
REMARK                            x       y       z     vdW  Elec       q    Type
REMARK                         _______ _______ _______ _____ _____    ______ ____
ROOT
ATOM      1  C   UNL     1       7.119   5.809  -0.348  0.00  0.00    +0.074 A 
ATOM      2  C   UNL     1       5.903   6.485  -0.370  0.00  0.00    +0.027 A 
ATOM      3  C   UNL     1       4.729   5.800  -0.153  0.00  0.00    +0.015 A 
ATOM      4  C   UNL     1       4.760   4.423   0.089  0.00  0.00    +0.037 A 
ATOM      5  C   UNL     1       5.983   3.748   0.116  0.00  0.00    +0.015 A 
ATOM      6  C   UNL     1       7.153   4.438  -0.107  0.00  0.00    +0.027 A 
ENDROOT
BRANCH   4   7
ATOM      7  C   UNL     1       3.503   3.686   0.322  0.00  0.00    +0.244 C 
ATOM      8  O   UNL     1       2.440   4.275   0.303  0.00  0.00    -0.270 OA
ATOM      9  N   UNL     1       3.534   2.359   0.556  0.00  0.00    -0.308 N 
ATOM     10  H   UNL     1       4.496   1.826   0.573  0.00  0.00    +0.149 HD
BRANCH   9  11
ATOM     11  C   UNL     1       2.287   1.627   0.787  0.00  0.00    +0.152 C 
BRANCH  11  12
ATOM     12  C   UNL     1       2.600   0.148   1.024  0.00  0.00    +0.228 C 
ATOM     13  C   UNL     1       1.291  -0.646   1.143  0.00  0.00    +0.275 C 
ATOM     14  O   UNL     1       1.620  -2.019   1.378  0.00  0.00    -0.485 OA
ATOM     15  C   UNL     1       2.570  -2.269   2.319  0.00  0.00    +0.162 A 
ATOM     16  C   UNL     1       2.685  -3.546   2.849  0.00  0.00    +0.049 A 
ATOM     17  C   UNL     1       3.647  -3.815   3.804  0.00  0.00    +0.004 A 
ATOM     18  C   UNL     1       4.499  -2.814   4.233  0.00  0.00    +0.004 A 
ATOM     19  C   UNL     1       4.389  -1.540   3.709  0.00  0.00    +0.049 A 
ATOM     20  C   UNL     1       3.425  -1.262   2.752  0.00  0.00    +0.163 A 
ATOM     21  O   UNL     1       3.327  -0.001   2.249  0.00  0.00    -0.480 OA
ENDBRANCH  11  12
ENDBRANCH   9  11
ENDBRANCH   4   7
BRANCH   1  22
ATOM     22  N   UNL     1       8.304   6.503  -0.568  0.00  0.00    -0.098 NA
BRANCH  22  23
ATOM     23  S   UNL     1       9.611   6.242   0.414  0.00  0.00    +0.092 S 
ATOM     24  O   UNL     1       9.825   4.838   0.440  0.00  0.00    -0.148 OA
ATOM     25  O   UNL     1      10.617   7.158   0.004  0.00  0.00    -0.148 OA
BRANCH  23  30
ATOM     26  C   UNL     1       7.995   7.845   6.002  0.00  0.00    +0.046 C 
ATOM     27  C   UNL     1       8.399   7.444   4.606  0.00  0.00    -0.020 A 
ATOM     28  C   UNL     1       8.864   8.399   3.721  0.00  0.00    +0.007 A 
ATOM     29  C   UNL     1       9.239   8.031   2.442  0.00  0.00    +0.029 A 
ATOM     30  C   UNL     1       9.139   6.710   2.046  0.00  0.00    +0.113 A 
ATOM     31  C   UNL     1       8.675   5.756   2.931  0.00  0.00    +0.061 A 
ATOM     32  C   UNL     1       8.305   6.123   4.212  0.00  0.00    +0.131 A 
BRANCH  32  33
ATOM     33  N   UNL     1       7.807   5.101   5.160  0.00  0.00    +0.057 N 
ATOM     34  O   UNL     1       7.607   3.962   4.778  0.00  0.00    -0.126 OA
ATOM     35  O   UNL     1       7.598   5.399   6.323  0.00  0.00    -0.126 OA
ENDBRANCH  32  33
ENDBRANCH  23  30
ENDBRANCH  22  23
ENDBRANCH   1  22
TORSDOF 7
