REMARK  Name = ZINC35704594
REMARK  8 active torsions:
REMARK  status: ('A' for Active; 'I' for Inactive)
REMARK    1  A    between atoms: C_1  and  C_2
REMARK    2  A    between atoms: C_3  and  C_25
REMARK    3  A    between atoms: C_4  and  C_20
REMARK    4  A    between atoms: C_7  and  C_12
REMARK    5  A    between atoms: C_13  and  N_15
REMARK    6  A    between atoms: C_25  and  O_27
REMARK    7  A    between atoms: O_27  and  C_28
REMARK    8  A    between atoms: C_28  and  C_29
REMARK                            x       y       z     vdW  Elec       q    Type
REMARK                         _______ _______ _______ _____ _____    ______ ____
ROOT
ATOM      1  C   UNL     1      -0.030   1.535   0.151  0.00  0.00    +0.066 C 
ATOM      2  C   UNL     1      -0.013   0.029   0.114  0.00  0.00    +0.053 C 
ATOM      3  C   UNL     1      -1.204  -0.671   0.125  0.00  0.00    +0.083 C 
ATOM      4  C   UNL     1      -1.134  -2.182   0.085  0.00  0.00    +0.156 C 
ATOM      5  N   UNL     1       0.220  -2.796   0.037  0.00  0.00    -0.267 N 
ATOM      6  C   UNL     1       0.520  -4.143  -0.004  0.00  0.00    +0.048 C 
ATOM      7  C   UNL     1       1.825  -4.493  -0.044  0.00  0.00    +0.072 C 
ATOM      8  S   UNL     1       2.633  -2.905  -0.023  0.00  0.00    -0.060 S 
ATOM      9  C   UNL     1       1.273  -1.924   0.034  0.00  0.00    +0.166 C 
ATOM     10  N   UNL     1       1.143  -0.614   0.065  0.00  0.00    -0.230 NA
ENDROOT
BRANCH   4  11
ATOM     11  C   UNL     1      -1.898  -2.650  -1.127  0.00  0.00    +0.015 A 
ATOM     12  C   UNL     1      -3.119  -3.235  -1.192  0.00  0.00    +0.013 A 
ATOM     13  C   UNL     1      -3.629  -3.584  -2.429  0.00  0.00    +0.008 A 
ATOM     14  C   UNL     1      -2.893  -3.331  -3.539  0.00  0.00    +0.045 A 
ATOM     15  S   UNL     1      -1.433  -2.571  -2.848  0.00  0.00    -0.099 S 
ENDBRANCH   4  11
BRANCH   6  16
ATOM     16  C   UNL     1      -0.541  -5.160  -0.003  0.00  0.00    +0.091 C 
ATOM     17  C   UNL     1      -0.224  -6.464   0.103  0.00  0.00    +0.241 C 
ATOM     18  O   UNL     1       1.058  -6.832   0.344  0.00  0.00    -0.271 OA
BRANCH  17  19
ATOM     19  N   UNL     1      -1.207  -7.429  -0.033  0.00  0.00    -0.298 N 
ATOM     20  C   UNL     1      -2.645  -7.170  -0.195  0.00  0.00    +0.108 C 
ATOM     21  C   UNL     1      -3.350  -8.540  -0.281  0.00  0.00    +0.020 C 
ATOM     22  C   UNL     1      -2.338  -9.496   0.404  0.00  0.00    +0.020 C 
ATOM     23  C   UNL     1      -0.985  -8.887  -0.046  0.00  0.00    +0.108 C 
ENDBRANCH  17  19
ENDBRANCH   6  16
BRANCH   3  24
ATOM     24  C   UNL     1      -2.434  -0.005   0.171  0.00  0.00    +0.339 C 
ATOM     25  O   UNL     1      -2.467   1.213   0.203  0.00  0.00    -0.245 OA
BRANCH  24  26
ATOM     26  O   UNL     1      -3.586  -0.713   0.181  0.00  0.00    -0.457 OA
BRANCH  26  27
ATOM     27  C   UNL     1      -4.804   0.032   0.229  0.00  0.00    +0.268 C 
BRANCH  27  28
ATOM     28  C   UNL     1      -5.974  -0.918   0.233  0.00  0.00    -0.010 A 
ATOM     29  C   UNL     1      -6.536  -1.328  -0.962  0.00  0.00    +0.007 A 
ATOM     30  C   UNL     1      -7.609  -2.199  -0.958  0.00  0.00    +0.000 A 
ATOM     31  C   UNL     1      -8.120  -2.661   0.241  0.00  0.00    +0.000 A 
ATOM     32  C   UNL     1      -7.558  -2.252   1.435  0.00  0.00    +0.000 A 
ATOM     33  C   UNL     1      -6.482  -1.384   1.431  0.00  0.00    +0.007 A 
ENDBRANCH  27  28
ENDBRANCH  26  27
ENDBRANCH  24  26
ENDBRANCH   3  24
TORSDOF 7
