REMARK  Name = ZINC39676303
REMARK  9 active torsions:
REMARK  status: ('A' for Active; 'I' for Inactive)
REMARK    1  A    between atoms: C_1  and  C_2
REMARK    2  A    between atoms: C_2  and  C_3
REMARK    3  A    between atoms: C_3  and  C_4
REMARK    4  A    between atoms: C_4  and  C_5
REMARK    5  A    between atoms: C_5  and  C_7
REMARK    6  A    between atoms: C_5  and  C_8
REMARK    7  A    between atoms: C_12  and  C_21
REMARK    8  A    between atoms: N_23  and  C_24
REMARK    9  A    between atoms: C_24  and  C_25
REMARK                            x       y       z     vdW  Elec       q    Type
REMARK                         _______ _______ _______ _____ _____    ______ ____
ROOT
ATOM      1  C   UNL     1       1.551  -4.182  -2.453  0.00  0.00    +0.218 C 
ATOM      2  O   UNL     1       1.171  -4.816  -1.491  0.00  0.00    -0.275 OA
ATOM      3  N   UNL     1       2.189  -4.806  -3.463  0.00  0.00    -0.300 N 
ATOM      4  C   UNL     1       2.728  -4.205  -4.705  0.00  0.00    +0.121 C 
ATOM      5  C   UNL     1       4.066  -4.939  -4.946  0.00  0.00    +0.100 C 
ATOM      6  C   UNL     1       3.916  -6.279  -4.207  0.00  0.00    -0.004 C 
ATOM      7  C   UNL     1       2.516  -6.247  -3.578  0.00  0.00    +0.115 C 
ATOM      8  C   UNL     1       4.975  -6.402  -3.115  0.00  0.00    -0.010 C 
ATOM      9  C   UNL     1       4.842  -7.767  -2.434  0.00  0.00    -0.082 C 
ATOM     10  N   UNL     1       5.011  -8.832  -3.429  0.00  0.00    +0.379 N 
ATOM     11  C   UNL     1       3.934  -8.763  -4.425  0.00  0.00    -0.082 C 
ATOM     12  C   UNL     1       4.028  -7.440  -5.190  0.00  0.00    -0.010 C 
ATOM     13  H   UNL     1       5.901  -8.721  -3.891  0.00  0.00    -0.086 HD
ATOM     14  H   UNL     1       4.984  -9.729  -2.968  0.00  0.00    -0.086 HD
ENDROOT
BRANCH   5  15
ATOM     15  C   UNL     1       4.281  -5.170  -6.419  0.00  0.00    +0.219 C 
ATOM     16  O   UNL     1       3.328  -5.327  -7.153  0.00  0.00    -0.275 OA
ATOM     17  N   UNL     1       5.531  -5.202  -6.921  0.00  0.00    -0.308 N 
ATOM     18  H   UNL     1       6.293  -5.077  -6.334  0.00  0.00    +0.149 HD
BRANCH  17  19
ATOM     19  C   UNL     1       5.740  -5.427  -8.354  0.00  0.00    +0.178 C 
BRANCH  19  20
ATOM     20  C   UNL     1       7.216  -5.417  -8.654  0.00  0.00    +0.128 A 
ATOM     21  N   UNL     1       7.614  -5.605  -9.939  0.00  0.00    -0.309 N 
ATOM     22  H   UNL     1       6.950  -5.740 -10.633  0.00  0.00    +0.170 HD
ATOM     23  C   UNL     1       8.929  -5.605 -10.261  0.00  0.00    +0.259 A 
ATOM     24  O   UNL     1       9.299  -5.771 -11.408  0.00  0.00    -0.267 OA
ATOM     25  C   UNL     1       9.892  -5.395  -9.170  0.00  0.00    +0.065 A 
ATOM     26  C   UNL     1      11.268  -5.378  -9.394  0.00  0.00    +0.015 A 
ATOM     27  C   UNL     1      12.126  -5.178  -8.335  0.00  0.00    +0.001 A 
ATOM     28  C   UNL     1      11.631  -4.995  -7.050  0.00  0.00    +0.002 A 
ATOM     29  C   UNL     1      10.276  -5.009  -6.807  0.00  0.00    +0.028 A 
ATOM     30  C   UNL     1       9.386  -5.209  -7.864  0.00  0.00    +0.078 A 
ATOM     31  N   UNL     1       8.043  -5.225  -7.671  0.00  0.00    -0.232 NA
ENDBRANCH  19  20
ENDBRANCH  17  19
ENDBRANCH   5  15
BRANCH   1  32
ATOM     32  C   UNL     1       1.309  -2.696  -2.518  0.00  0.00    +0.072 C 
ATOM     33  C   UNL     1       0.460  -2.371  -3.748  0.00  0.00    +0.017 C 
BRANCH  32  34
ATOM     34  C   UNL     1       0.572  -2.243  -1.256  0.00  0.00    +0.012 C 
BRANCH  34  35
ATOM     35  C   UNL     1       0.437  -0.719  -1.263  0.00  0.00    +0.000 C 
BRANCH  35  37
ATOM     36  C   UNL     1      -0.435   1.258  -0.008  0.00  0.00    +0.004 C 
ATOM     37  C   UNL     1      -0.300  -0.266  -0.001  0.00  0.00    -0.003 C 
ENDBRANCH  35  37
ENDBRANCH  34  35
ENDBRANCH  32  34
ENDBRANCH   1  32
TORSDOF 7
