REMARK  Name = ZINC18068097
REMARK  7 active torsions:
REMARK  status: ('A' for Active; 'I' for Inactive)
REMARK    1  A    between atoms: C_1  and  C_2
REMARK    2  A    between atoms: C_2  and  C_32
REMARK    3  A    between atoms: C_4  and  N_10
REMARK    4  A    between atoms: C_6  and  C_8
REMARK    5  A    between atoms: C_6  and  C_9
REMARK    6  A    between atoms: C_11  and  C_12
REMARK    7  A    between atoms: C_13  and  C_28
REMARK                            x       y       z     vdW  Elec       q    Type
REMARK                         _______ _______ _______ _____ _____    ______ ____
ROOT
ATOM      1  C   UNL     1       3.768  -0.544  -4.709  0.00  0.00    +0.088 A 
ATOM      2  C   UNL     1       4.454   0.170  -5.670  0.00  0.00    +0.150 A 
ATOM      3  N   UNL     1       4.765  -0.665  -6.683  0.00  0.00    -0.284 N 
ATOM      4  H   UNL     1       5.249  -0.413  -7.484  0.00  0.00    +0.187 HD
ATOM      5  N   UNL     1       4.286  -1.949  -6.404  0.00  0.00    -0.194 N 
ATOM      6  C   UNL     1       3.673  -1.926  -5.202  0.00  0.00    +0.283 A 
ATOM      7  O   UNL     1       3.142  -2.865  -4.639  0.00  0.00    -0.265 OA
ATOM      8  C   UNL     1       4.424  -3.058  -7.220  0.00  0.00    +0.196 A 
ATOM      9  N   UNL     1       5.016  -3.152  -8.389  0.00  0.00    -0.221 NA
ATOM     10  C   UNL     1       5.076  -4.310  -9.081  0.00  0.00    +0.081 A 
ATOM     11  C   UNL     1       5.677  -4.545 -10.339  0.00  0.00    +0.029 A 
ATOM     12  C   UNL     1       5.647  -5.792 -10.907  0.00  0.00    +0.002 A 
ATOM     13  C   UNL     1       5.031  -6.862 -10.275  0.00  0.00    +0.001 A 
ATOM     14  C   UNL     1       4.433  -6.668  -9.043  0.00  0.00    +0.017 A 
ATOM     15  C   UNL     1       4.458  -5.423  -8.466  0.00  0.00    +0.041 A 
ATOM     16  S   UNL     1       3.849  -4.728  -6.949  0.00  0.00    -0.048 S 
ENDROOT
BRANCH   2  17
ATOM     17  C   UNL     1       4.798   1.636  -5.600  0.00  0.00    +0.434 C 
ATOM     18  F   UNL     1       4.312   2.172  -4.403  0.00  0.00    -0.164 F 
ATOM     19  F   UNL     1       6.188   1.792  -5.652  0.00  0.00    -0.164 F 
ATOM     20  F   UNL     1       4.214   2.304  -6.682  0.00  0.00    -0.164 F 
ENDBRANCH   2  17
BRANCH   1  22
ATOM     21  N   UNL     1       2.615  -0.819  -2.626  0.00  0.00    -0.288 NA
ATOM     22  C   UNL     1       3.240  -0.026  -3.441  0.00  0.00    +0.120 C 
BRANCH  21  26
ATOM     23  C   UNL     1      -0.019   1.528   0.010  0.00  0.00    -0.010 C 
ATOM     24  C   UNL     1       0.002  -0.004   0.002  0.00  0.00    -0.071 C 
ATOM     25  C   UNL     1       0.573  -0.505  -1.321  0.00  0.00    +0.014 C 
ATOM     26  C   UNL     1       2.088  -0.301  -1.357  0.00  0.00    +0.103 C 
ATOM     27  C   UNL     1       2.703  -1.086  -0.198  0.00  0.00    +0.014 C 
ATOM     28  C   UNL     1       2.147  -0.590   1.133  0.00  0.00    -0.071 C 
ATOM     29  N   UNL     1       0.697  -0.529   1.164  0.00  0.00    +0.386 N 
ATOM     30  C   UNL     1       2.769   0.766   1.481  0.00  0.00    -0.010 C 
ATOM     31  C   UNL     1       2.600  -1.589   2.223  0.00  0.00    -0.010 C 
ATOM     32  C   UNL     1      -1.468  -0.478   0.079  0.00  0.00    -0.010 C 
ATOM     33  H   UNL     1       0.416   0.021   1.982  0.00  0.00    -0.084 HD
ATOM     34  H   UNL     1       0.341  -1.472   1.351  0.00  0.00    -0.084 HD
ENDBRANCH  21  26
ENDBRANCH   1  22
TORSDOF 3
