REMARK  Name = ZINC02640872
REMARK  15 active torsions:
REMARK  status: ('A' for Active; 'I' for Inactive)
REMARK    1  A    between atoms: C_1  and  C_2
REMARK    2  A    between atoms: C_2  and  O_3
REMARK    3  A    between atoms: O_3  and  C_4
REMARK    4  A    between atoms: C_4  and  C_6
REMARK    5  A    between atoms: C_7  and  C_38
REMARK    6  A    between atoms: C_8  and  C_13
REMARK    7  A    between atoms: C_9  and  C_12
REMARK    8  A    between atoms: C_13  and  O_15
REMARK    9  A    between atoms: O_15  and  C_16
REMARK   10  A    between atoms: C_16  and  C_17
REMARK   11  A    between atoms: C_17  and  C_19
REMARK   12  A    between atoms: C_21  and  C_37
REMARK   13  A    between atoms: N_22  and  C_25
REMARK   14  A    between atoms: C_23  and  C_24
REMARK   15  A    between atoms: C_25  and  C_26
REMARK                            x       y       z     vdW  Elec       q    Type
REMARK                         _______ _______ _______ _____ _____    ______ ____
ROOT
ATOM      1  C   UNL     1       3.549  -0.855   4.162  0.00  0.00    +0.202 C 
ATOM      2  O   UNL     1       2.687  -1.702   4.266  0.00  0.00    -0.288 OA
ENDROOT
BRANCH   1   3
ATOM      3  C   UNL     1       4.928  -1.160   4.549  0.00  0.00    +0.042 A 
ATOM      4  C   UNL     1       6.085  -0.258   4.488  0.00  0.00    +0.034 A 
ATOM      5  C   UNL     1       7.137  -0.961   4.940  0.00  0.00    +0.017 A 
ATOM      6  N   UNL     1       6.725  -2.219   5.274  0.00  0.00    -0.344 N 
ATOM      7  C   UNL     1       5.406  -2.355   5.053  0.00  0.00    +0.027 A 
ATOM      8  C   UNL     1       4.591  -3.597   5.307  0.00  0.00    +0.064 C 
ATOM      9  C   UNL     1       8.547  -0.443   5.059  0.00  0.00    +0.063 C 
BRANCH   6  10
ATOM     10  C   UNL     1       7.597  -3.270   5.805  0.00  0.00    +0.169 C 
BRANCH  10  11
ATOM     11  C   UNL     1       7.622  -3.187   7.333  0.00  0.00    +0.230 C 
ATOM     12  C   UNL     1       8.629  -4.203   7.889  0.00  0.00    +0.275 C 
ATOM     13  O   UNL     1       8.618  -4.109   9.318  0.00  0.00    -0.485 OA
ATOM     14  C   UNL     1       7.397  -4.071   9.919  0.00  0.00    +0.162 A 
ATOM     15  C   UNL     1       7.298  -4.340  11.276  0.00  0.00    +0.049 A 
ATOM     16  C   UNL     1       6.066  -4.301  11.901  0.00  0.00    +0.004 A 
ATOM     17  C   UNL     1       4.929  -3.996  11.175  0.00  0.00    +0.004 A 
ATOM     18  C   UNL     1       5.021  -3.728   9.823  0.00  0.00    +0.049 A 
ATOM     19  C   UNL     1       6.254  -3.766   9.189  0.00  0.00    +0.163 A 
ATOM     20  O   UNL     1       6.328  -3.506   7.855  0.00  0.00    -0.480 OA
ENDBRANCH  10  11
ENDBRANCH   6  10
ENDBRANCH   1   3
BRANCH   1  21
ATOM     21  C   UNL     1       3.200   0.513   3.633  0.00  0.00    +0.311 C 
BRANCH  21  22
ATOM     22  O   UNL     1       1.783   0.565   3.322  0.00  0.00    -0.453 OA
BRANCH  22  23
ATOM     23  C   UNL     1       1.305   1.727   2.835  0.00  0.00    +0.342 C 
ATOM     24  O   UNL     1       2.053   2.672   2.675  0.00  0.00    -0.245 OA
BRANCH  23  27
ATOM     25  C   UNL     1      -2.052   1.829   1.375  0.00  0.00    +0.128 A 
ATOM     26  C   UNL     1      -0.718   1.572   1.248  0.00  0.00    -0.005 A 
ATOM     27  C   UNL     1      -0.122   1.853   2.498  0.00  0.00    +0.083 A 
ATOM     28  C   UNL     1      -1.134   2.270   3.345  0.00  0.00    +0.028 A 
ATOM     29  N   UNL     1      -2.291   2.250   2.665  0.00  0.00    -0.352 N 
ATOM     30  H   UNL     1      -3.157   2.496   3.024  0.00  0.00    +0.166 HD
ATOM     31  C   UNL     1      -0.965   2.677   4.786  0.00  0.00    +0.064 C 
ATOM     32  C   UNL     1      -0.013   1.086   0.008  0.00  0.00    +0.047 C 
BRANCH  25  33
ATOM     33  C   UNL     1      -3.059   1.680   0.319  0.00  0.00    +0.356 C 
ATOM     34  O   UNL     1      -2.729   1.296  -0.786  0.00  0.00    -0.243 OA
BRANCH  33  35
ATOM     35  O   UNL     1      -4.351   1.969   0.575  0.00  0.00    -0.460 OA
BRANCH  35  37
ATOM     36  C   UNL     1      -6.699   2.172  -0.040  0.00  0.00    +0.048 C 
ATOM     37  C   UNL     1      -5.294   1.799  -0.516  0.00  0.00    +0.229 C 
ENDBRANCH  35  37
ENDBRANCH  33  35
ENDBRANCH  25  33
ENDBRANCH  23  27
ENDBRANCH  22  23
ENDBRANCH  21  22
ENDBRANCH   1  21
TORSDOF 10
