REMARK  Name = ZINC64984657
REMARK  7 active torsions:
REMARK  status: ('A' for Active; 'I' for Inactive)
REMARK    1  A    between atoms: C_1  and  C_2
REMARK    2  A    between atoms: C_2  and  C_3
REMARK    3  A    between atoms: C_3  and  C_4
REMARK    4  A    between atoms: C_6  and  C_9
REMARK    5  A    between atoms: N_17  and  C_18
REMARK    6  A    between atoms: C_20  and  C_25
REMARK    7  A    between atoms: C_22  and  C_24
REMARK                            x       y       z     vdW  Elec       q    Type
REMARK                         _______ _______ _______ _____ _____    ______ ____
ROOT
ATOM      1  C   UNL     1       2.148  -5.344   0.433  0.00  0.00    +0.130 C 
ATOM      2  C   UNL     1       2.450  -6.269   1.632  0.00  0.00    +0.030 C 
ATOM      3  C   UNL     1       2.294  -7.687   1.024  0.00  0.00    +0.021 C 
ATOM      4  C   UNL     1       1.132  -7.471   0.022  0.00  0.00    +0.110 C 
ATOM      5  N   UNL     1       1.358  -6.120  -0.533  0.00  0.00    -0.277 N 
ATOM      6  C   UNL     1       0.914  -5.673  -1.724  0.00  0.00    +0.307 C 
ATOM      7  O   UNL     1       1.161  -4.536  -2.077  0.00  0.00    -0.252 OA
ATOM      8  N   UNL     1       0.196  -6.485  -2.524  0.00  0.00    -0.269 N 
ATOM      9  H   UNL     1       0.055  -7.412  -2.274  0.00  0.00    +0.156 HD
ENDROOT
BRANCH   8  10
ATOM     10  C   UNL     1      -0.347  -5.992  -3.716  0.00  0.00    +0.035 A 
ATOM     11  C   UNL     1      -1.581  -6.449  -4.160  0.00  0.00    +0.026 A 
ATOM     12  C   UNL     1      -2.115  -5.961  -5.336  0.00  0.00    -0.048 A 
ATOM     13  C   UNL     1      -1.422  -5.017  -6.072  0.00  0.00    +0.006 A 
ATOM     14  C   UNL     1      -0.193  -4.560  -5.633  0.00  0.00    -0.048 A 
ATOM     15  C   UNL     1       0.344  -5.041  -4.455  0.00  0.00    +0.026 A 
ATOM     16  C   UNL     1       0.560  -3.532  -6.438  0.00  0.00    +0.044 C 
ATOM     17  C   UNL     1      -3.454  -6.457  -5.819  0.00  0.00    +0.044 C 
ENDBRANCH   8  10
BRANCH   1  20
ATOM     18  C   UNL     1       0.752  -2.030   1.250  0.00  0.00    +0.138 A 
ATOM     19  C   UNL     1       1.706  -2.799   0.690  0.00  0.00    +0.072 A 
ATOM     20  C   UNL     1       1.359  -4.146   0.896  0.00  0.00    +0.104 A 
ATOM     21  N   UNL     1       0.237  -4.178   1.557  0.00  0.00    -0.081 NA
ATOM     22  O   UNL     1      -0.166  -2.842   1.797  0.00  0.00    -0.359 OA
BRANCH  18  23
ATOM     23  C   UNL     1       0.724  -0.524   1.264  0.00  0.00    +0.077 C 
BRANCH  23  25
ATOM     24  C   UNL     1      -0.052   1.514   0.044  0.00  0.00    +0.004 C 
ATOM     25  C   UNL     1      -0.023  -0.016   0.030  0.00  0.00    +0.004 C 
ENDBRANCH  23  25
ENDBRANCH  18  23
ENDBRANCH   1  20
TORSDOF 4
