REMARK  Name = ZINC28291775
REMARK  5 active torsions:
REMARK  status: ('A' for Active; 'I' for Inactive)
REMARK    1  A    between atoms: C_4  and  C_7
REMARK    2  A    between atoms: C_7  and  C_9
REMARK    3  A    between atoms: C_7  and  N_25
REMARK    4  A    between atoms: C_9  and  N_10
REMARK    5  A    between atoms: C_11  and  C_13
REMARK                            x       y       z     vdW  Elec       q    Type
REMARK                         _______ _______ _______ _____ _____    ______ ____
ROOT
ATOM      1  N   UNL     1       1.511   1.775   0.736  0.00  0.00    -0.310 N 
ATOM      2  C   UNL     1       1.848   2.947   1.310  0.00  0.00    +0.279 C 
ATOM      3  O   UNL     1       0.989   3.651   1.803  0.00  0.00    -0.267 OA
ATOM      4  H   UNL     1       2.289   1.138   0.290  0.00  0.00    +0.149 HD
ENDROOT
BRANCH   2   5
ATOM      5  C   UNL     1       3.266   3.376   1.341  0.00  0.00    +0.193 A 
ATOM      6  C   UNL     1       3.575   4.561   1.920  0.00  0.00    +0.103 A 
ATOM      7  C   UNL     1       4.982   4.986   1.957  0.00  0.00    +0.193 A 
ATOM      8  O   UNL     1       5.318   6.040   2.469  0.00  0.00    -0.287 OA
ATOM      9  C   UNL     1       5.968   4.079   1.338  0.00  0.00    +0.064 A 
ATOM     10  C   UNL     1       7.327   4.392   1.315  0.00  0.00    +0.016 A 
ATOM     11  C   UNL     1       8.210   3.527   0.733  0.00  0.00    +0.016 A 
ATOM     12  C   UNL     1       7.762   2.341   0.165  0.00  0.00    +0.021 A 
ATOM     13  C   UNL     1       6.422   2.015   0.179  0.00  0.00    +0.062 A 
ATOM     14  C   UNL     1       5.506   2.881   0.767  0.00  0.00    +0.141 A 
ATOM     15  O   UNL     1       4.193   2.579   0.790  0.00  0.00    -0.450 OA
ATOM     16 BR   UNL     1       9.003   1.159  -0.635  0.00  0.00    -0.050 Br
ENDBRANCH   2   5
BRANCH   1  17
ATOM     17  C   UNL     1       0.110   1.350   0.705  0.00  0.00    +0.094 C 
BRANCH  17  18
ATOM     18  C   UNL     1       0.002  -0.004   0.002  0.00  0.00    -0.020 C 
BRANCH  18  19
ATOM     19  N   UNL     1       0.616   0.086  -1.329  0.00  0.00    +0.385 N 
ATOM     20  C   UNL     1      -0.085   1.067  -2.167  0.00  0.00    -0.078 C 
ATOM     21  C   UNL     1       0.666   1.240  -3.489  0.00  0.00    -0.019 C 
ATOM     22  C   UNL     1       0.742  -0.110  -4.208  0.00  0.00    -0.004 C 
ATOM     23  C   UNL     1       1.433  -1.127  -3.295  0.00  0.00    -0.019 C 
ATOM     24  C   UNL     1       0.660  -1.231  -1.978  0.00  0.00    -0.078 C 
ATOM     25  H   UNL     1       1.652   0.432  -1.203  0.00  0.00    -0.081 HD
ENDBRANCH  18  19
BRANCH  18  29
ATOM     26  C   UNL     1      -4.113  -1.079  -0.397  0.00  0.00    +0.000 A 
ATOM     27  C   UNL     1      -3.683   0.171  -0.799  0.00  0.00    +0.000 A 
ATOM     28  C   UNL     1      -2.352   0.519  -0.670  0.00  0.00    +0.002 A 
ATOM     29  C   UNL     1      -1.450  -0.383  -0.139  0.00  0.00    -0.059 A 
ATOM     30  C   UNL     1      -1.878  -1.636   0.259  0.00  0.00    +0.002 A 
ATOM     31  C   UNL     1      -3.211  -1.982   0.134  0.00  0.00    +0.000 A 
ENDBRANCH  18  29
ENDBRANCH  17  18
ENDBRANCH   1  17
TORSDOF 5
