REMARK  Name = ZINC40826850
REMARK  8 active torsions:
REMARK  status: ('A' for Active; 'I' for Inactive)
REMARK    1  A    between atoms: C_1  and  C_2
REMARK    2  A    between atoms: C_3  and  C_9
REMARK    3  A    between atoms: C_4  and  C_8
REMARK    4  A    between atoms: N_11  and  C_12
REMARK    5  A    between atoms: C_18  and  C_20
REMARK    6  A    between atoms: C_20  and  C_21
REMARK    7  A    between atoms: C_20  and  C_22
REMARK    8  A    between atoms: C_20  and  C_23
REMARK                            x       y       z     vdW  Elec       q    Type
REMARK                         _______ _______ _______ _____ _____    ______ ____
ROOT
ATOM      1  C   UNL     1      -0.635   0.312  -2.439  0.00  0.00    +0.248 C 
ATOM      2  O   UNL     1       0.339   0.815  -2.965  0.00  0.00    -0.270 OA
ATOM      3  N   UNL     1      -1.763   0.122  -3.153  0.00  0.00    -0.308 N 
ATOM      4  H   UNL     1      -2.540  -0.279  -2.734  0.00  0.00    +0.149 HD
ENDROOT
BRANCH   1   7
ATOM      5  C   UNL     1      -1.394   2.124   0.021  0.00  0.00    +0.066 C 
ATOM      6  C   UNL     1      -0.914   0.696   0.065  0.00  0.00    +0.045 A 
ATOM      7  C   UNL     1      -0.583  -0.089  -1.022  0.00  0.00    +0.080 A 
ATOM      8  C   UNL     1      -0.187  -1.349  -0.520  0.00  0.00    +0.072 A 
ATOM      9  N   UNL     1      -0.277  -1.312   0.780  0.00  0.00    -0.178 NA
ATOM     10  N   UNL     1      -0.723  -0.044   1.168  0.00  0.00    -0.281 N 
ATOM     11  H   UNL     1      -0.872   0.250   2.081  0.00  0.00    +0.189 HD
ATOM     12  C   UNL     1       0.262  -2.528  -1.344  0.00  0.00    +0.068 C 
ENDBRANCH   1   7
BRANCH   3  13
ATOM     13  C   UNL     1      -1.814   0.521  -4.562  0.00  0.00    +0.077 C 
ATOM     14  C   UNL     1      -2.232   1.989  -4.661  0.00  0.00    +0.022 C 
ATOM     15  C   UNL     1      -2.285   2.405  -6.132  0.00  0.00    +0.002 C 
ATOM     16  C   UNL     1      -3.303   1.535  -6.872  0.00  0.00    +0.000 C 
ATOM     17  C   UNL     1      -2.886   0.066  -6.772  0.00  0.00    +0.006 C 
ATOM     18  C   UNL     1      -2.832  -0.350  -5.301  0.00  0.00    +0.015 C 
BRANCH  18  19
ATOM     19  C   UNL     1      -2.414  -1.819  -5.202  0.00  0.00    -0.033 C 
ATOM     20  C   UNL     1      -2.526  -2.283  -3.748  0.00  0.00    +0.011 C 
ATOM     21  C   UNL     1      -3.332  -2.670  -6.082  0.00  0.00    +0.011 C 
ATOM     22  C   UNL     1      -0.968  -1.971  -5.676  0.00  0.00    +0.011 C 
ENDBRANCH  18  19
ENDBRANCH   3  13
TORSDOF 3
