REMARK  Name = ZINC08856785
REMARK  11 active torsions:
REMARK  status: ('A' for Active; 'I' for Inactive)
REMARK    1  A    between atoms: C_1  and  C_2
REMARK    2  A    between atoms: C_2  and  O_3
REMARK    3  A    between atoms: O_3  and  C_4
REMARK    4  A    between atoms: C_4  and  C_6
REMARK    5  A    between atoms: C_9  and  O_30
REMARK    6  A    between atoms: N_13  and  C_23
REMARK    7  A    between atoms: C_14  and  C_15
REMARK    8  A    between atoms: C_15  and  N_62
REMARK    9  A    between atoms: C_20  and  C_22
REMARK   10  A    between atoms: O_30  and  C_31
REMARK   11  A    between atoms: C_31  and  C_33
REMARK                            x       y       z     vdW  Elec       q    Type
REMARK                         _______ _______ _______ _____ _____    ______ ____
ROOT
ATOM      1  C   UNL     1       0.754   1.808   0.259  0.00  0.00    +0.086 A 
ATOM      2  C   UNL     1       1.337   2.243  -1.025  0.00  0.00    +0.018 A 
ATOM      3  C   UNL     1       0.951   2.107  -2.356  0.00  0.00    +0.058 A 
ATOM      4  C   UNL     1       1.740   2.645  -3.355  0.00  0.00    +0.146 A 
ATOM      5  C   UNL     1       2.916   3.319  -3.031  0.00  0.00    +0.062 A 
ATOM      6  C   UNL     1       3.304   3.458  -1.717  0.00  0.00    +0.045 A 
ATOM      7  C   UNL     1       2.521   2.922  -0.700  0.00  0.00    +0.056 A 
ATOM      8  N   UNL     1       2.647   2.901   0.677  0.00  0.00    -0.314 N 
ATOM      9  C   UNL     1       1.598   2.247   1.237  0.00  0.00    +0.022 A 
ATOM     10 BR   UNL     1       3.987   4.049  -4.408  0.00  0.00    -0.046 Br
ENDROOT
BRANCH   8  11
ATOM     11  C   UNL     1       3.703   3.478   1.393  0.00  0.00    +0.047 A 
ATOM     12  C   UNL     1       4.569   2.675   2.124  0.00  0.00    +0.026 A 
ATOM     13  C   UNL     1       5.613   3.246   2.824  0.00  0.00    +0.002 A 
ATOM     14  C   UNL     1       5.790   4.617   2.808  0.00  0.00    +0.000 A 
ATOM     15  C   UNL     1       4.927   5.420   2.085  0.00  0.00    +0.002 A 
ATOM     16  C   UNL     1       3.884   4.854   1.378  0.00  0.00    +0.026 A 
ENDBRANCH   8  11
BRANCH   1  17
ATOM     17  C   UNL     1      -0.492   1.057   0.447  0.00  0.00    +0.341 C 
ATOM     18  O   UNL     1      -0.473  -0.159   0.463  0.00  0.00    -0.245 OA
BRANCH  17  19
ATOM     19  O   UNL     1      -1.660   1.714   0.598  0.00  0.00    -0.461 OA
BRANCH  19  21
ATOM     20  C   UNL     1      -4.070   1.821   0.927  0.00  0.00    +0.048 C 
ATOM     21  C   UNL     1      -2.853   0.907   0.774  0.00  0.00    +0.229 C 
ENDBRANCH  19  21
ENDBRANCH  17  19
ENDBRANCH   1  17
BRANCH   9  22
ATOM     22  C   UNL     1       1.398   2.035   2.715  0.00  0.00    -0.023 C 
BRANCH  22  29
ATOM     23  C   UNL     1       1.321   4.430   3.055  0.00  0.00    -0.078 C 
ATOM     24  C   UNL     1       0.427   5.584   3.514  0.00  0.00    -0.019 C 
ATOM     25  C   UNL     1       0.095   5.407   4.998  0.00  0.00    -0.003 C 
ATOM     26  C   UNL     1      -0.584   4.050   5.203  0.00  0.00    -0.016 C 
ATOM     27  C   UNL     1       0.340   2.941   4.695  0.00  0.00    -0.071 C 
ATOM     28  C   UNL     1      -0.342   1.584   4.880  0.00  0.00    -0.013 C 
ATOM     29  N   UNL     1       0.601   3.155   3.256  0.00  0.00    +0.385 N 
ATOM     30  H   UNL     1      -0.296   3.197   2.758  0.00  0.00    -0.081 HD
ENDBRANCH  22  29
ENDBRANCH   9  22
BRANCH   4  31
ATOM     31  O   UNL     1       1.369   2.515  -4.657  0.00  0.00    -0.425 OA
BRANCH  31  32
ATOM     32  C   UNL     1       1.941   1.523  -5.357  0.00  0.00    +0.309 C 
ATOM     33  O   UNL     1       2.668   0.733  -4.803  0.00  0.00    -0.251 OA
ATOM     34  C   UNL     1       1.676   1.395  -6.835  0.00  0.00    +0.136 C 
ENDBRANCH  31  32
ENDBRANCH   4  31
TORSDOF 8
