REMARK  Name = ZINC57796503
REMARK  4 active torsions:
REMARK  status: ('A' for Active; 'I' for Inactive)
REMARK    1  A    between atoms: C_1  and  N_2
REMARK    2  A    between atoms: N_2  and  C_3
REMARK    3  A    between atoms: C_7  and  C_10
REMARK    4  A    between atoms: C_10  and  N_11
REMARK                            x       y       z     vdW  Elec       q    Type
REMARK                         _______ _______ _______ _____ _____    ______ ____
ROOT
ATOM      1  N   UNL     1      -1.393  -3.018  -5.250  0.00  0.00    -0.298 NA
ATOM      2  C   UNL     1      -2.091  -1.763  -5.557  0.00  0.00    +0.090 C 
ATOM      3  C   UNL     1      -3.565  -2.055  -5.845  0.00  0.00    +0.084 C 
ATOM      4  C   UNL     1      -3.667  -3.018  -7.033  0.00  0.00    +0.181 C 
ATOM      5  C   UNL     1      -2.893  -4.298  -6.704  0.00  0.00    +0.084 C 
ATOM      6  C   UNL     1      -1.438  -3.943  -6.390  0.00  0.00    +0.090 C 
ATOM      7  N   UNL     1      -3.078  -2.387  -8.216  0.00  0.00    -0.274 N 
ATOM      8  C   UNL     1      -3.463  -2.770  -9.454  0.00  0.00    +0.250 C 
ATOM      9  O   UNL     1      -2.888  -2.360 -10.444  0.00  0.00    -0.270 OA
ATOM     10  C   UNL     1      -4.603  -3.702  -9.567  0.00  0.00    +0.078 A 
ATOM     11  C   UNL     1      -4.934  -4.306 -10.776  0.00  0.00    +0.017 A 
ATOM     12  C   UNL     1      -6.001  -5.179 -10.830  0.00  0.00    +0.001 A 
ATOM     13  C   UNL     1      -6.737  -5.456  -9.689  0.00  0.00    +0.004 A 
ATOM     14  C   UNL     1      -6.419  -4.857  -8.484  0.00  0.00    +0.046 A 
ATOM     15  C   UNL     1      -5.357  -3.973  -8.415  0.00  0.00    +0.135 A 
ATOM     16  O   UNL     1      -5.039  -3.340  -7.259  0.00  0.00    -0.468 OA
ATOM     17  H   UNL     1      -2.409  -1.692  -8.111  0.00  0.00    +0.153 HD
ENDROOT
BRANCH   1  18
ATOM     18  C   UNL     1      -0.007  -2.762  -4.835  0.00  0.00    +0.122 C 
BRANCH  18  25
ATOM     19  C   UNL     1      -0.018   1.461   0.010  0.00  0.00    +0.132 C 
ATOM     20  N   UNL     1       0.002  -0.004   0.002  0.00  0.00    -0.306 N 
ATOM     21  C   UNL     1       0.024  -0.743   1.267  0.00  0.00    +0.132 C 
ATOM     22  C   UNL     1       0.000  -0.690  -1.200  0.00  0.00    +0.217 A 
ATOM     23  N   UNL     1       0.013  -2.014  -1.190  0.00  0.00    -0.222 NA
ATOM     24  C   UNL     1       0.011  -2.700  -2.321  0.00  0.00    +0.120 A 
ATOM     25  C   UNL     1      -0.005  -2.016  -3.526  0.00  0.00    +0.003 A 
ATOM     26  C   UNL     1      -0.018  -0.630  -3.501  0.00  0.00    +0.120 A 
ATOM     27  N   UNL     1      -0.020  -0.005  -2.335  0.00  0.00    -0.222 NA
ENDBRANCH  18  25
ENDBRANCH   1  18
TORSDOF 2
