REMARK  Name = ZINC17051154
REMARK  9 active torsions:
REMARK  status: ('A' for Active; 'I' for Inactive)
REMARK    1  A    between atoms: C_1  and  N_2
REMARK    2  A    between atoms: N_2  and  C_3
REMARK    3  A    between atoms: C_6  and  N_27
REMARK    4  A    between atoms: C_8  and  C_9
REMARK    5  A    between atoms: C_9  and  O_11
REMARK    6  A    between atoms: O_11  and  C_12
REMARK    7  A    between atoms: C_12  and  C_13
REMARK    8  A    between atoms: N_15  and  C_16
REMARK    9  A    between atoms: C_17  and  C_24
REMARK                            x       y       z     vdW  Elec       q    Type
REMARK                         _______ _______ _______ _____ _____    ______ ____
ROOT
ATOM      1  C   UNL     1       1.181  -6.280  -0.787  0.00  0.00    +0.255 C 
ATOM      2  O   UNL     1       0.062  -6.742  -0.847  0.00  0.00    -0.272 OA
ATOM      3  N   UNL     1       2.252  -7.087  -0.926  0.00  0.00    -0.277 N 
ATOM      4  H   UNL     1       3.147  -6.717  -0.878  0.00  0.00    +0.155 HD
ENDROOT
BRANCH   3   5
ATOM      5  C   UNL     1       2.073  -8.445  -1.138  0.00  0.00    +0.084 A 
ATOM      6  C   UNL     1       3.045  -9.416  -1.296  0.00  0.00    +0.068 A 
ATOM      7  C   UNL     1       2.591 -10.790  -1.508  0.00  0.00    -0.023 A 
ATOM      8  C   UNL     1       1.253 -10.929  -1.522  0.00  0.00    -0.004 A 
ATOM      9  S   UNL     1       0.629  -9.290  -1.254  0.00  0.00    -0.077 S 
ATOM     10  C   UNL     1       0.841 -12.359  -1.747  0.00  0.00    +0.043 C 
ATOM     11  C   UNL     1       2.108 -13.047  -2.302  0.00  0.00    +0.010 C 
ATOM     12  C   UNL     1       3.228 -12.161  -1.722  0.00  0.00    +0.037 C 
BRANCH   6  13
ATOM     13  C   UNL     1       4.472  -9.082  -1.254  0.00  0.00    +0.244 C 
ATOM     14  O   UNL     1       5.071  -9.106  -0.195  0.00  0.00    -0.270 OA
ATOM     15  N   UNL     1       5.120  -8.747  -2.387  0.00  0.00    -0.325 N 
ATOM     16  H   UNL     1       4.642  -8.728  -3.231  0.00  0.00    +0.145 HD
ATOM     17  H   UNL     1       6.064  -8.526  -2.359  0.00  0.00    +0.145 HD
ENDBRANCH   6  13
ENDBRANCH   3   5
BRANCH   1  18
ATOM     18  C   UNL     1       1.375  -4.803  -0.556  0.00  0.00    +0.328 C 
BRANCH  18  19
ATOM     19  O   UNL     1       0.101  -4.167  -0.442  0.00  0.00    -0.452 OA
BRANCH  19  20
ATOM     20  C   UNL     1       0.098  -2.836  -0.232  0.00  0.00    +0.342 C 
ATOM     21  O   UNL     1       1.149  -2.232  -0.149  0.00  0.00    -0.245 OA
BRANCH  20  27
ATOM     22  C   UNL     1      -1.192  -0.713  -0.003  0.00  0.00    +0.041 A 
ATOM     23  C   UNL     1      -2.404  -0.043   0.111  0.00  0.00    +0.026 A 
ATOM     24  C   UNL     1      -3.587  -0.753   0.131  0.00  0.00    +0.034 A 
ATOM     25  C   UNL     1      -3.577  -2.136   0.038  0.00  0.00    +0.127 A 
ATOM     26  C   UNL     1      -2.386  -2.818  -0.076  0.00  0.00    +0.049 A 
ATOM     27  C   UNL     1      -1.179  -2.114  -0.104  0.00  0.00    +0.082 A 
BRANCH  22  29
ATOM     28  C   UNL     1      -0.022   1.464  -0.044  0.00  0.00    +0.125 C 
ATOM     29  N   UNL     1       0.000  -0.001  -0.023  0.00  0.00    -0.346 N 
ATOM     30  H   UNL     1       0.847  -0.474  -0.023  0.00  0.00    +0.146 HD
ENDBRANCH  22  29
BRANCH  25  31
ATOM     31  N   UNL     1      -4.854  -2.884   0.061  0.00  0.00    +0.056 N 
ATOM     32  O   UNL     1      -5.902  -2.288   0.161  0.00  0.00    -0.126 OA
ATOM     33  O   UNL     1      -4.850  -4.090  -0.020  0.00  0.00    -0.126 OA
ENDBRANCH  25  31
ENDBRANCH  20  27
ENDBRANCH  19  20
ENDBRANCH  18  19
ENDBRANCH   1  18
TORSDOF 8
