REMARK  Name = ZINC33052171
REMARK  4 active torsions:
REMARK  status: ('A' for Active; 'I' for Inactive)
REMARK    1  A    between atoms: C_1  and  C_2
REMARK    2  A    between atoms: N_5  and  C_7
REMARK    3  A    between atoms: C_18  and  C_32
REMARK    4  A    between atoms: N_24  and  C_25
REMARK                            x       y       z     vdW  Elec       q    Type
REMARK                         _______ _______ _______ _____ _____    ______ ____
ROOT
ATOM      1  C   UNL     1       3.120   6.212  -1.621  0.00  0.00    +0.068 C 
ATOM      2  C   UNL     1       2.691   5.194  -0.596  0.00  0.00    +0.067 A 
ATOM      3  C   UNL     1       1.482   4.506  -0.588  0.00  0.00    +0.035 A 
ATOM      4  C   UNL     1       1.472   3.704   0.517  0.00  0.00    +0.146 A 
ATOM      5  N   UNL     1       2.651   3.848   1.151  0.00  0.00    -0.215 N 
ATOM      6  N   UNL     1       3.395   4.807   0.442  0.00  0.00    -0.169 NA
ATOM      7  N   UNL     1       0.348   2.929   0.826  0.00  0.00    -0.303 N 
ATOM      8  C   UNL     1       0.249   1.639   1.221  0.00  0.00    +0.093 A 
ATOM      9  C   UNL     1      -1.065   1.330   1.303  0.00  0.00    +0.020 A 
ATOM     10  C   UNL     1      -1.797   2.487   0.956  0.00  0.00    +0.025 A 
ATOM     11  C   UNL     1      -0.910   3.462   0.700  0.00  0.00    +0.050 A 
ATOM     12  C   UNL     1      -1.164   4.902   0.363  0.00  0.00    +0.155 C 
ATOM     13  N   UNL     1      -0.840   5.195  -1.052  0.00  0.00    -0.268 N 
ATOM     14  C   UNL     1       0.371   4.534  -1.596  0.00  0.00    +0.151 C 
ATOM     15  C   UNL     1      -1.601   6.015  -1.803  0.00  0.00    +0.308 C 
ATOM     16  O   UNL     1      -2.587   6.539  -1.322  0.00  0.00    -0.252 OA
ATOM     17  N   UNL     1      -1.270   6.255  -3.087  0.00  0.00    -0.267 N 
ATOM     18  H   UNL     1      -0.437   5.707  -3.552  0.00  0.00    +0.156 HD
ENDROOT
BRANCH  17  19
ATOM     19  C   UNL     1      -1.987   7.200  -3.831  0.00  0.00    +0.070 A 
ATOM     20  C   UNL     1      -2.740   8.170  -3.182  0.00  0.00    +0.026 A 
ATOM     21  C   UNL     1      -3.442   9.105  -3.918  0.00  0.00    +0.002 A 
ATOM     22  C   UNL     1      -3.405   9.070  -5.300  0.00  0.00    +0.003 A 
ATOM     23  C   UNL     1      -2.661   8.103  -5.951  0.00  0.00    +0.040 A 
ATOM     24  C   UNL     1      -1.951   7.167  -5.221  0.00  0.00    +0.145 A 
ATOM     25  F   UNL     1      -1.225   6.222  -5.856  0.00  0.00    -0.204 F 
ENDBRANCH  17  19
BRANCH  12  26
ATOM     26  C   UNL     1      -0.313   5.772   1.252  0.00  0.00    -0.018 A 
ATOM     27  C   UNL     1       0.319   6.886   0.731  0.00  0.00    +0.006 A 
ATOM     28  C   UNL     1       1.099   7.684   1.545  0.00  0.00    +0.003 A 
ATOM     29  C   UNL     1       1.249   7.370   2.883  0.00  0.00    +0.038 A 
ATOM     30  C   UNL     1       0.617   6.256   3.407  0.00  0.00    +0.124 A 
ATOM     31  C   UNL     1      -0.170   5.460   2.591  0.00  0.00    +0.044 A 
ATOM     32  F   UNL     1       0.762   5.948   4.714  0.00  0.00    -0.205 F 
ENDBRANCH  12  26
BRANCH   5  33
ATOM     33  C   UNL     1       3.061   3.168   2.306  0.00  0.00    +0.068 A 
ATOM     34  C   UNL     1       2.137   2.853   3.293  0.00  0.00    +0.028 A 
ATOM     35  C   UNL     1       2.543   2.178   4.427  0.00  0.00    +0.002 A 
ATOM     36  C   UNL     1       3.871   1.825   4.585  0.00  0.00    +0.000 A 
ATOM     37  C   UNL     1       4.795   2.143   3.607  0.00  0.00    +0.002 A 
ATOM     38  C   UNL     1       4.394   2.813   2.468  0.00  0.00    +0.028 A 
ENDBRANCH   5  33
TORSDOF 3
