REMARK  Name = ZINC13062898
REMARK  13 active torsions:
REMARK  status: ('A' for Active; 'I' for Inactive)
REMARK    1  A    between atoms: C_1  and  C_2
REMARK    2  A    between atoms: C_2  and  C_3
REMARK    3  A    between atoms: C_3  and  C_4
REMARK    4  A    between atoms: C_4  and  N_5
REMARK    5  A    between atoms: N_5  and  C_6
REMARK    6  A    between atoms: C_7  and  N_19
REMARK    7  A    between atoms: N_8  and  C_15
REMARK    8  A    between atoms: C_15  and  C_16
REMARK    9  A    between atoms: C_16  and  C_17
REMARK   10  A    between atoms: C_16  and  C_18
REMARK   11  A    between atoms: C_20  and  C_22
REMARK   12  A    between atoms: C_22  and  N_73
REMARK   13  A    between atoms: C_26  and  C_28
REMARK                            x       y       z     vdW  Elec       q    Type
REMARK                         _______ _______ _______ _____ _____    ______ ____
ROOT
ATOM      1  N   UNL     1       4.213   2.840   4.355  0.00  0.00    -0.266 N 
ATOM      2  C   UNL     1       4.441   2.808   3.026  0.00  0.00    +0.203 C 
ATOM      3  O   UNL     1       5.318   2.099   2.578  0.00  0.00    -0.277 OA
ENDROOT
BRANCH   1   4
ATOM      4  C   UNL     1       4.927   1.978   5.214  0.00  0.00    +0.140 A 
ATOM      5  C   UNL     1       4.789   0.609   5.109  0.00  0.00    +0.127 A 
ATOM      6  N   UNL     1       5.504  -0.205   5.956  0.00  0.00    -0.280 N 
ATOM      7  C   UNL     1       6.318   0.327   6.886  0.00  0.00    +0.331 A 
ATOM      8  O   UNL     1       6.937  -0.410   7.630  0.00  0.00    -0.246 OA
ATOM      9  N   UNL     1       6.460   1.659   7.008  0.00  0.00    -0.273 N 
ATOM     10  H   UNL     1       7.071   2.029   7.707  0.00  0.00    +0.173 HD
ATOM     11  C   UNL     1       5.788   2.500   6.198  0.00  0.00    +0.277 A 
ATOM     12  O   UNL     1       5.924   3.706   6.316  0.00  0.00    -0.266 OA
BRANCH   5  13
ATOM     13  N   UNL     1       3.953   0.065   4.163  0.00  0.00    -0.343 N 
ATOM     14  H   UNL     1       3.372   0.641   3.642  0.00  0.00    +0.144 HD
ATOM     15  H   UNL     1       3.943  -0.894   4.018  0.00  0.00    +0.144 HD
ENDBRANCH   5  13
BRANCH   6  16
ATOM     16  C   UNL     1       5.373  -1.660   5.851  0.00  0.00    +0.131 C 
BRANCH  16  17
ATOM     17  C   UNL     1       4.233  -2.137   6.754  0.00  0.00    +0.003 C 
ATOM     18  C   UNL     1       2.907  -1.573   6.242  0.00  0.00    +0.009 C 
ATOM     19  C   UNL     1       4.177  -3.666   6.740  0.00  0.00    +0.009 C 
ENDBRANCH  16  17
ENDBRANCH   6  16
ENDBRANCH   1   4
BRANCH   1  20
ATOM     20  C   UNL     1       3.223   3.768   4.906  0.00  0.00    +0.114 C 
BRANCH  20  21
ATOM     21  C   UNL     1       1.871   3.062   5.027  0.00  0.00    +0.019 C 
BRANCH  21  23
ATOM     22  C   UNL     1      -0.514   3.325   5.723  0.00  0.00    +0.004 C 
ATOM     23  C   UNL     1       0.838   4.032   5.602  0.00  0.00    -0.002 C 
ENDBRANCH  21  23
ENDBRANCH  20  21
ENDBRANCH   1  20
BRANCH   2  24
ATOM     24  C   UNL     1       3.607   3.652   2.097  0.00  0.00    +0.020 C 
BRANCH  24  29
ATOM     25  C   UNL     1       5.341   4.129   0.452  0.00  0.00    -0.077 C 
ATOM     26  C   UNL     1       5.397   4.288  -1.082  0.00  0.00    -0.020 C 
ATOM     27  C   UNL     1       3.926   4.246  -1.544  0.00  0.00    -0.013 C 
ATOM     28  C   UNL     1       3.104   4.065  -0.249  0.00  0.00    -0.037 C 
ATOM     29  N   UNL     1       4.062   3.460   0.683  0.00  0.00    +0.390 N 
ATOM     30  H   UNL     1       4.152   2.456   0.492  0.00  0.00    -0.080 HD
BRANCH  28  31
ATOM     31  C   UNL     1       1.928   3.156  -0.496  0.00  0.00    -0.057 A 
ATOM     32  C   UNL     1       2.119   1.789  -0.581  0.00  0.00    +0.006 A 
ATOM     33  C   UNL     1       1.043   0.952  -0.808  0.00  0.00    +0.049 A 
ATOM     34  C   UNL     1      -0.231   1.482  -0.956  0.00  0.00    +0.162 A 
ATOM     35  C   UNL     1      -0.423   2.855  -0.862  0.00  0.00    +0.162 A 
ATOM     36  C   UNL     1       0.661   3.689  -0.636  0.00  0.00    +0.051 A 
ATOM     37  O   UNL     1      -1.666   3.394  -0.990  0.00  0.00    -0.485 OA
ATOM     38  C   UNL     1      -2.665   2.566  -1.602  0.00  0.00    +0.270 C 
ATOM     39  C   UNL     1      -2.588   1.175  -0.957  0.00  0.00    +0.270 C 
ATOM     40  O   UNL     1      -1.279   0.645  -1.190  0.00  0.00    -0.485 OA
ENDBRANCH  28  31
ENDBRANCH  24  29
ENDBRANCH   2  24
TORSDOF 10
