REMARK  Name = ZINC38223080
REMARK  10 active torsions:
REMARK  status: ('A' for Active; 'I' for Inactive)
REMARK    1  A    between atoms: C_1  and  C_2
REMARK    2  A    between atoms: C_5  and  N_9
REMARK    3  A    between atoms: C_6  and  C_8
REMARK    4  A    between atoms: C_10  and  C_12
REMARK    5  A    between atoms: C_13  and  C_33
REMARK    6  A    between atoms: C_20  and  C_22
REMARK    7  A    between atoms: C_24  and  O_31
REMARK    8  A    between atoms: C_25  and  O_29
REMARK    9  A    between atoms: O_29  and  C_30
REMARK   10  A    between atoms: O_31  and  C_32
REMARK                            x       y       z     vdW  Elec       q    Type
REMARK                         _______ _______ _______ _____ _____    ______ ____
ROOT
ATOM      1  C   UNL     1       0.943  -7.814  -2.589  0.00  0.00    +0.060 C 
ATOM      2  C   UNL     1       1.088  -8.411  -3.780  0.00  0.00    +0.018 C 
ATOM      3  N   UNL     1       1.470  -9.725  -3.901  0.00  0.00    -0.286 N 
ATOM      4  C   UNL     1       1.458 -10.501  -2.751  0.00  0.00    +0.240 A 
ATOM      5  N   UNL     1       1.557 -11.789  -2.589  0.00  0.00    -0.092 NA
ATOM      6  N   UNL     1       1.490 -12.089  -1.337  0.00  0.00    -0.021 NA
ATOM      7  N   UNL     1       1.348 -11.018  -0.624  0.00  0.00    -0.042 NA
ATOM      8  N   UNL     1       1.325  -9.948  -1.516  0.00  0.00    -0.201 N 
ATOM      9  C   UNL     1       1.201  -8.514  -1.280  0.00  0.00    +0.179 C 
ATOM     10  C   UNL     1       0.822  -7.614  -5.031  0.00  0.00    +0.061 C 
ATOM     11  H   UNL     1       1.738 -10.096  -4.756  0.00  0.00    +0.155 HD
ENDROOT
BRANCH   9  12
ATOM     12  C   UNL     1       2.475  -7.988  -0.672  0.00  0.00    -0.014 A 
ATOM     13  C   UNL     1       2.435  -7.301   0.528  0.00  0.00    +0.055 A 
ATOM     14  C   UNL     1       3.605  -6.817   1.089  0.00  0.00    +0.163 A 
ATOM     15  C   UNL     1       4.821  -7.024   0.444  0.00  0.00    +0.175 A 
ATOM     16  C   UNL     1       4.855  -7.713  -0.758  0.00  0.00    +0.063 A 
ATOM     17  C   UNL     1       3.683  -8.198  -1.311  0.00  0.00    +0.025 A 
ATOM     18 BR   UNL     1       6.504  -7.997  -1.639  0.00  0.00    -0.046 Br
BRANCH  15  19
ATOM     19  O   UNL     1       5.972  -6.550   0.990  0.00  0.00    -0.490 OA
ATOM     20  C   UNL     1       6.671  -7.418   1.884  0.00  0.00    +0.277 C 
ENDBRANCH  15  19
BRANCH  14  21
ATOM     21  O   UNL     1       3.567  -6.140   2.268  0.00  0.00    -0.491 OA
ATOM     22  C   UNL     1       2.298  -6.042   2.918  0.00  0.00    +0.277 C 
ENDBRANCH  14  21
ENDBRANCH   9  12
BRANCH   1  24
ATOM     23  N   UNL     1       1.413  -5.483  -2.858  0.00  0.00    -0.281 N 
ATOM     24  C   UNL     1       0.534  -6.460  -2.559  0.00  0.00    +0.248 C 
ATOM     25  O   UNL     1      -0.613  -6.177  -2.263  0.00  0.00    -0.270 OA
ATOM     26  H   UNL     1       2.297  -5.711  -3.188  0.00  0.00    +0.155 HD
BRANCH  23  31
ATOM     27  C   UNL     1      -0.053  -0.044  -2.192  0.00  0.00    +0.044 C 
ATOM     28  C   UNL     1       0.336  -1.490  -2.369  0.00  0.00    -0.050 A 
ATOM     29  C   UNL     1      -0.629  -2.432  -2.674  0.00  0.00    +0.005 A 
ATOM     30  C   UNL     1      -0.275  -3.757  -2.837  0.00  0.00    +0.024 A 
ATOM     31  C   UNL     1       1.052  -4.142  -2.694  0.00  0.00    +0.037 A 
ATOM     32  C   UNL     1       2.018  -3.194  -2.387  0.00  0.00    -0.029 A 
ATOM     33  C   UNL     1       1.659  -1.869  -2.231  0.00  0.00    +0.008 A 
ATOM     34  C   UNL     1       3.459  -3.608  -2.231  0.00  0.00    +0.045 C 
ENDBRANCH  23  31
ENDBRANCH   1  24
TORSDOF 5
