REMARK  Name = ZINC10051878
REMARK  12 active torsions:
REMARK  status: ('A' for Active; 'I' for Inactive)
REMARK    1  A    between atoms: C_1  and  C_2
REMARK    2  A    between atoms: C_5  and  S_8
REMARK    3  A    between atoms: S_8  and  N_11
REMARK    4  A    between atoms: N_11  and  C_12
REMARK    5  A    between atoms: N_11  and  C_13
REMARK    6  A    between atoms: C_16  and  C_19
REMARK    7  A    between atoms: N_21  and  C_22
REMARK    8  A    between atoms: C_22  and  C_23
REMARK    9  A    between atoms: C_23  and  C_25
REMARK   10  A    between atoms: C_23  and  N_58
REMARK   11  A    between atoms: C_30  and  N_58
REMARK   12  A    between atoms: C_31  and  N_58
REMARK                            x       y       z     vdW  Elec       q    Type
REMARK                         _______ _______ _______ _____ _____    ______ ____
ROOT
ATOM      1  C   UNL     1       1.879  12.644   2.660  0.00  0.00    +0.051 A 
ATOM      2  C   UNL     1       2.287  12.181   3.908  0.00  0.00    +0.025 A 
ATOM      3  C   UNL     1       2.076  10.867   4.258  0.00  0.00    +0.015 A 
ATOM      4  C   UNL     1       1.451   9.997   3.360  0.00  0.00    +0.037 A 
ATOM      5  C   UNL     1       1.048  10.464   2.105  0.00  0.00    +0.015 A 
ATOM      6  C   UNL     1       1.256  11.780   1.763  0.00  0.00    +0.025 A 
ENDROOT
BRANCH   4   7
ATOM      7  C   UNL     1       1.224   8.588   3.732  0.00  0.00    +0.244 C 
ATOM      8  O   UNL     1       1.580   8.182   4.822  0.00  0.00    -0.270 OA
ATOM      9  N   UNL     1       0.622   7.750   2.865  0.00  0.00    -0.313 N 
ATOM     10  H   UNL     1       0.338   8.074   1.996  0.00  0.00    +0.149 HD
BRANCH   9  11
ATOM     11  C   UNL     1       0.396   6.351   3.235  0.00  0.00    +0.094 C 
BRANCH  11  12
ATOM     12  C   UNL     1      -0.183   5.594   2.038  0.00  0.00    -0.014 C 
BRANCH  12  13
ATOM     13  C   UNL     1      -0.274   4.127   2.368  0.00  0.00    -0.022 A 
ATOM     14  C   UNL     1      -1.367   3.387   2.679  0.00  0.00    +0.009 A 
ATOM     15  C   UNL     1      -1.211   2.040   2.948  0.00  0.00    +0.008 A 
ATOM     16  C   UNL     1       0.031   1.499   2.893  0.00  0.00    +0.045 A 
ATOM     17  S   UNL     1       1.030   2.910   2.451  0.00  0.00    -0.103 S 
ENDBRANCH  12  13
BRANCH  12  20
ATOM     18  C   UNL     1       2.096   5.552   1.225  0.00  0.00    -0.096 C 
ATOM     19  C   UNL     1       0.277   4.912  -0.239  0.00  0.00    -0.096 C 
ATOM     20  N   UNL     1       0.686   5.808   0.863  0.00  0.00    +0.382 N 
ATOM     21  H   UNL     1       0.593   6.782   0.552  0.00  0.00    -0.082 HD
ENDBRANCH  12  20
ENDBRANCH  11  12
ENDBRANCH   9  11
ENDBRANCH   4   7
BRANCH   1  22
ATOM     22  N   UNL     1       2.093  13.972   2.308  0.00  0.00    -0.206 N 
ATOM     23  C   UNL     1       2.182  15.000   3.349  0.00  0.00    +0.157 C 
BRANCH  22  24
ATOM     24  S   UNL     1       2.249  14.392   0.714  0.00  0.00    +0.074 S 
ATOM     25  O   UNL     1       3.050  15.565   0.679  0.00  0.00    -0.150 OA
ATOM     26  O   UNL     1       2.602  13.207   0.015  0.00  0.00    -0.150 OA
BRANCH  24  31
ATOM     27  C   UNL     1      -3.227  15.988  -1.254  0.00  0.00    +0.044 C 
ATOM     28  C   UNL     1      -1.859  15.590  -0.763  0.00  0.00    -0.050 A 
ATOM     29  C   UNL     1      -1.071  16.507  -0.093  0.00  0.00    +0.005 A 
ATOM     30  C   UNL     1       0.184  16.141   0.358  0.00  0.00    +0.029 A 
ATOM     31  C   UNL     1       0.650  14.858   0.140  0.00  0.00    +0.109 A 
ATOM     32  C   UNL     1      -0.137  13.943  -0.534  0.00  0.00    +0.029 A 
ATOM     33  C   UNL     1      -1.393  14.307  -0.981  0.00  0.00    +0.005 A 
ENDBRANCH  24  31
ENDBRANCH  22  24
ENDBRANCH   1  22
TORSDOF 8
