REMARK  Name = ZINC63362194
REMARK  8 active torsions:
REMARK  status: ('A' for Active; 'I' for Inactive)
REMARK    1  A    between atoms: C_1  and  C_2
REMARK    2  A    between atoms: C_2  and  C_4
REMARK    3  A    between atoms: C_2  and  N_10
REMARK    4  A    between atoms: C_11  and  C_13
REMARK    5  A    between atoms: C_18  and  N_19
REMARK    6  A    between atoms: C_22  and  C_40
REMARK    7  A    between atoms: C_28  and  O_33
REMARK    8  A    between atoms: O_33  and  C_34
REMARK                            x       y       z     vdW  Elec       q    Type
REMARK                         _______ _______ _______ _____ _____    ______ ____
ROOT
ATOM      1  N   UNL     1      -3.477  -0.985   3.609  0.00  0.00    -0.192 N 
ATOM      2  C   UNL     1      -3.529   0.237   4.177  0.00  0.00    +0.253 C 
ATOM      3  O   UNL     1      -4.081   1.224   3.740  0.00  0.00    -0.272 OA
ATOM      4  C   UNL     1      -2.757   0.121   5.473  0.00  0.00    +0.137 C 
ATOM      5  C   UNL     1      -1.546   1.062   5.451  0.00  0.00    +0.139 C 
ATOM      6  C   UNL     1      -0.560   0.518   6.478  0.00  0.00    -0.034 C 
ATOM      7  C   UNL     1      -0.339   1.504   7.342  0.00  0.00    +0.003 A 
ATOM      8  C   UNL     1       0.553   1.604   8.507  0.00  0.00    +0.055 A 
ATOM      9  C   UNL     1       0.525   2.777   9.198  0.00  0.00    +0.121 A 
ATOM     10  C   UNL     1      -0.291   3.866   8.861  0.00  0.00    +0.047 A 
ATOM     11  C   UNL     1      -1.146   3.883   7.806  0.00  0.00    +0.029 A 
ATOM     12  C   UNL     1      -1.202   2.669   6.979  0.00  0.00    +0.043 A 
ATOM     13  N   UNL     1      -1.907   2.408   5.906  0.00  0.00    -0.375 N 
ATOM     14  C   UNL     1      -0.048  -0.901   6.463  0.00  0.00    +0.052 C 
ATOM     15  C   UNL     1      -1.279  -1.828   6.391  0.00  0.00    +0.115 C 
ATOM     16  N   UNL     1      -2.227  -1.260   5.429  0.00  0.00    -0.268 N 
ATOM     17  C   UNL     1      -2.758  -1.843   4.346  0.00  0.00    +0.317 C 
ATOM     18  O   UNL     1      -2.603  -3.014   4.063  0.00  0.00    -0.252 OA
ATOM     19  C   UNL     1      -3.650   0.355   6.694  0.00  0.00    +0.044 C 
ATOM     20  H   UNL     1      -2.556   2.993   5.485  0.00  0.00    +0.160 HD
ENDROOT
BRANCH   1  26
ATOM     21  C   UNL     1      -3.413  -1.166   1.191  0.00  0.00    +0.059 A 
ATOM     22  C   UNL     1      -4.045  -1.507  -0.007  0.00  0.00    +0.015 A 
ATOM     23  C   UNL     1      -5.338  -1.984   0.010  0.00  0.00    +0.001 A 
ATOM     24  C   UNL     1      -6.015  -2.127   1.210  0.00  0.00    +0.002 A 
ATOM     25  C   UNL     1      -5.403  -1.794   2.401  0.00  0.00    +0.025 A 
ATOM     26  C   UNL     1      -4.100  -1.317   2.404  0.00  0.00    +0.058 A 
BRANCH  21  28
ATOM     27  N   UNL     1      -1.372  -0.511   0.012  0.00  0.00    -0.305 N 
ATOM     28  C   UNL     1      -2.029  -0.655   1.181  0.00  0.00    +0.246 C 
ATOM     29  O   UNL     1      -1.480  -0.364   2.226  0.00  0.00    -0.270 OA
ATOM     30  H   UNL     1      -1.810  -0.743  -0.822  0.00  0.00    +0.150 HD
BRANCH  27  32
ATOM     31  C   UNL     1      -0.019   1.526   0.010  0.00  0.00    +0.033 C 
ATOM     32  C   UNL     1       0.002  -0.004   0.002  0.00  0.00    +0.100 C 
BRANCH  32  33
ATOM     33  C   UNL     1       0.707  -0.490  -1.238  0.00  0.00    -0.027 A 
ATOM     34  C   UNL     1       0.038  -0.522  -2.447  0.00  0.00    +0.005 A 
ATOM     35  C   UNL     1       0.685  -0.967  -3.584  0.00  0.00    +0.000 A 
ATOM     36  C   UNL     1       2.002  -1.381  -3.513  0.00  0.00    +0.000 A 
ATOM     37  C   UNL     1       2.672  -1.349  -2.304  0.00  0.00    +0.000 A 
ATOM     38  C   UNL     1       2.026  -0.899  -1.167  0.00  0.00    +0.005 A 
ENDBRANCH  32  33
ENDBRANCH  27  32
ENDBRANCH  21  28
ENDBRANCH   1  26
BRANCH   9  39
ATOM     39  O   UNL     1       1.339   2.899  10.280  0.00  0.00    -0.495 OA
ATOM     40  C   UNL     1       1.292   4.139  10.989  0.00  0.00    +0.277 C 
ENDBRANCH   9  39
TORSDOF 5
