REMARK  Name = ZINC34896885
REMARK  14 active torsions:
REMARK  status: ('A' for Active; 'I' for Inactive)
REMARK    1  A    between atoms: C_1  and  C_2
REMARK    2  A    between atoms: C_2  and  C_3
REMARK    3  A    between atoms: C_3  and  C_38
REMARK    4  A    between atoms: N_8  and  C_9
REMARK    5  A    between atoms: C_12  and  C_15
REMARK    6  A    between atoms: N_16  and  C_17
REMARK    7  A    between atoms: C_17  and  C_19
REMARK    8  A    between atoms: C_17  and  C_34
REMARK    9  A    between atoms: C_19  and  N_21
REMARK   10  A    between atoms: C_19  and  O_26
REMARK   11  A    between atoms: O_26  and  C_27
REMARK   12  A    between atoms: C_34  and  C_35
REMARK   13  A    between atoms: C_34  and  C_36
REMARK   14  A    between atoms: C_34  and  C_37
REMARK                            x       y       z     vdW  Elec       q    Type
REMARK                         _______ _______ _______ _____ _____    ______ ____
ROOT
ATOM      1  C   UNL     1       1.920  -0.127   0.442  0.00  0.00    +0.089 C 
ATOM      2  C   UNL     1       1.926  -1.641   0.506  0.00  0.00    +0.090 C 
ATOM      3  N   UNL     1       3.183  -1.997   0.581  0.00  0.00    -0.287 N 
ATOM      4  C   UNL     1       4.012  -0.950   0.577  0.00  0.00    +0.143 C 
ATOM      5  S   UNL     1       5.717  -1.081   0.665  0.00  0.00    -0.018 S 
ATOM      6  N   UNL     1       3.351   0.221   0.496  0.00  0.00    -0.270 N 
ATOM      7  N   UNL     1       0.845  -2.463   0.489  0.00  0.00    -0.325 N 
ATOM      8  C   UNL     1       1.175   0.464   1.641  0.00  0.00    +0.040 C 
ATOM      9  H   UNL     1      -0.048  -2.088   0.430  0.00  0.00    +0.147 HD
ATOM     10  H   UNL     1       3.480  -2.919   0.634  0.00  0.00    +0.155 HD
ENDROOT
BRANCH   6  11
ATOM     11  C   UNL     1       3.909   1.504   0.469  0.00  0.00    +0.036 A 
ATOM     12  C   UNL     1       3.705   2.374   1.532  0.00  0.00    +0.024 A 
ATOM     13  C   UNL     1       4.256   3.639   1.502  0.00  0.00    +0.005 A 
ATOM     14  C   UNL     1       5.011   4.041   0.414  0.00  0.00    -0.050 A 
ATOM     15  C   UNL     1       5.215   3.177  -0.646  0.00  0.00    +0.005 A 
ATOM     16  C   UNL     1       4.672   1.908  -0.619  0.00  0.00    +0.024 A 
ATOM     17  C   UNL     1       5.612   5.423   0.385  0.00  0.00    +0.044 C 
ENDBRANCH   6  11
BRANCH   1  19
ATOM     18  C   UNL     1       1.369   1.882  -0.937  0.00  0.00    +0.006 C 
ATOM     19  C   UNL     1       1.296   0.355  -0.869  0.00  0.00    +0.030 C 
ENDBRANCH   1  19
BRANCH   7  20
ATOM     20  C   UNL     1       1.027  -3.915   0.558  0.00  0.00    +0.140 C 
BRANCH  20  21
ATOM     21  C   UNL     1       1.284  -4.465  -0.846  0.00  0.00    -0.014 C 
ATOM     22  C   UNL     1       2.614  -3.921  -1.372  0.00  0.00    +0.012 C 
ATOM     23  C   UNL     1       1.342  -5.992  -0.793  0.00  0.00    +0.012 C 
ATOM     24  C   UNL     1       0.151  -4.029  -1.779  0.00  0.00    +0.012 C 
ENDBRANCH  20  21
BRANCH  20  25
ATOM     25  C   UNL     1      -0.234  -4.560   1.136  0.00  0.00    +0.315 C 
BRANCH  25  26
ATOM     26  N   UNL     1      -0.452  -4.071   2.500  0.00  0.00    -0.211 N 
ATOM     27  C   UNL     1      -1.566  -3.491   2.979  0.00  0.00    +0.223 A 
ATOM     28  N   UNL     1      -1.362  -3.200   4.238  0.00  0.00    -0.223 NA
ATOM     29  C   UNL     1      -0.135  -3.577   4.597  0.00  0.00    +0.245 A 
ATOM     30  N   UNL     1       0.459  -4.120   3.567  0.00  0.00    -0.155 NA
ENDBRANCH  25  26
BRANCH  25  31
ATOM     31  O   UNL     1      -1.359  -4.220   0.323  0.00  0.00    -0.465 OA
BRANCH  31  32
ATOM     32  C   UNL     1      -2.423  -5.065   0.356  0.00  0.00    +0.124 A 
ATOM     33  C   UNL     1      -2.436  -6.130   1.246  0.00  0.00    +0.047 A 
ATOM     34  C   UNL     1      -3.518  -6.987   1.279  0.00  0.00    +0.023 A 
ATOM     35  C   UNL     1      -4.589  -6.785   0.425  0.00  0.00    +0.041 A 
ATOM     36  C   UNL     1      -4.577  -5.724  -0.463  0.00  0.00    +0.023 A 
ATOM     37  C   UNL     1      -3.499  -4.861  -0.494  0.00  0.00    +0.047 A 
ATOM     38 CL   UNL     1      -5.948  -7.865   0.469  0.00  0.00    -0.084 Cl
ENDBRANCH  31  32
ENDBRANCH  25  31
ENDBRANCH  20  25
ENDBRANCH   7  20
TORSDOF 8
