REMARK  Name = ZINC49116388
REMARK  11 active torsions:
REMARK  status: ('A' for Active; 'I' for Inactive)
REMARK    1  A    between atoms: C_1  and  C_2
REMARK    2  A    between atoms: C_2  and  C_3
REMARK    3  A    between atoms: C_3  and  S_4
REMARK    4  A    between atoms: S_4  and  N_7
REMARK    5  A    between atoms: C_16  and  O_19
REMARK    6  A    between atoms: O_19  and  C_20
REMARK    7  A    between atoms: C_20  and  C_21
REMARK    8  A    between atoms: N_29  and  C_30
REMARK    9  A    between atoms: C_30  and  C_31
REMARK   10  A    between atoms: C_30  and  C_32
REMARK   11  A    between atoms: C_30  and  C_33
REMARK                            x       y       z     vdW  Elec       q    Type
REMARK                         _______ _______ _______ _____ _____    ______ ____
ROOT
ATOM      1  N   UNL     1       1.488  -2.661  -2.699  0.00  0.00    -0.178 NA
ATOM      2  C   UNL     1       0.752  -2.852  -3.956  0.00  0.00    +0.128 C 
ATOM      3  C   UNL     1       1.362  -1.938  -5.026  0.00  0.00    +0.123 C 
ATOM      4  N   UNL     1       2.820  -2.122  -5.024  0.00  0.00    -0.314 N 
ATOM      5  C   UNL     1       3.557  -1.930  -3.766  0.00  0.00    +0.123 C 
ATOM      6  C   UNL     1       2.947  -2.839  -2.698  0.00  0.00    +0.128 C 
ATOM      7  C   UNL     1       3.492  -2.471  -6.192  0.00  0.00    +0.099 A 
ATOM      8  C   UNL     1       2.767  -2.757  -7.344  0.00  0.00    +0.045 A 
ATOM      9  C   UNL     1       3.444  -3.103  -8.499  0.00  0.00    +0.050 A 
ATOM     10  C   UNL     1       4.836  -3.152  -8.462  0.00  0.00    +0.136 A 
ATOM     11  C   UNL     1       5.492  -2.856  -7.280  0.00  0.00    +0.130 A 
ATOM     12  N   UNL     1       4.815  -2.523  -6.196  0.00  0.00    -0.346 N 
ATOM     13  H   UNL     1       5.298  -2.316  -5.382  0.00  0.00    +0.167 HD
ENDROOT
BRANCH   1  14
ATOM     14  S   UNL     1       0.689  -2.245  -1.309  0.00  0.00    +0.032 S 
ATOM     15  O   UNL     1       1.514  -2.728  -0.258  0.00  0.00    -0.158 OA
ATOM     16  O   UNL     1      -0.629  -2.747  -1.485  0.00  0.00    -0.158 OA
BRANCH  14  17
ATOM     17  C   UNL     1       0.671  -0.431  -1.307  0.00  0.00    +0.185 C 
BRANCH  17  19
ATOM     18  C   UNL     1      -0.065   1.600  -0.052  0.00  0.00    +0.005 C 
ATOM     19  C   UNL     1      -0.050   0.070  -0.054  0.00  0.00    +0.021 C 
ENDBRANCH  17  19
ENDBRANCH  14  17
ENDBRANCH   1  14
BRANCH  10  20
ATOM     20  O   UNL     1       5.542  -3.489  -9.575  0.00  0.00    -0.490 OA
BRANCH  20  21
ATOM     21  C   UNL     1       6.965  -3.517  -9.456  0.00  0.00    +0.232 C 
BRANCH  21  22
ATOM     22  C   UNL     1       7.582  -3.913 -10.800  0.00  0.00    +0.030 C 
ATOM     23  C   UNL     1       7.282  -2.829 -11.837  0.00  0.00    +0.026 C 
ATOM     24  C   UNL     1       7.870  -3.245 -13.189  0.00  0.00    +0.109 C 
ATOM     25  N   UNL     1       9.300  -3.533 -13.014  0.00  0.00    -0.286 N 
ATOM     26  C   UNL     1       9.705  -4.494 -11.979  0.00  0.00    +0.109 C 
ATOM     27  C   UNL     1       9.096  -4.064 -10.641  0.00  0.00    +0.026 C 
ATOM     28  C   UNL     1      10.223  -2.928 -13.787  0.00  0.00    +0.303 C 
ATOM     29  O   UNL     1       9.885  -2.061 -14.571  0.00  0.00    -0.253 OA
ATOM     30  N   UNL     1      11.520  -3.282 -13.693  0.00  0.00    -0.294 N 
ATOM     31  H   UNL     1      11.779  -4.024 -13.124  0.00  0.00    +0.151 HD
BRANCH  30  32
ATOM     32  C   UNL     1      12.537  -2.548 -14.449  0.00  0.00    +0.028 C 
ATOM     33  C   UNL     1      12.524  -1.078 -14.027  0.00  0.00    +0.031 C 
ATOM     34  C   UNL     1      13.915  -3.148 -14.165  0.00  0.00    +0.031 C 
ATOM     35  C   UNL     1      12.234  -2.652 -15.945  0.00  0.00    +0.031 C 
ENDBRANCH  30  32
ENDBRANCH  21  22
ENDBRANCH  20  21
ENDBRANCH  10  20
TORSDOF 7
