REMARK  Name = ZINC25150331
REMARK  8 active torsions:
REMARK  status: ('A' for Active; 'I' for Inactive)
REMARK    1  A    between atoms: C_1  and  C_2
REMARK    2  A    between atoms: C_2  and  C_25
REMARK    3  A    between atoms: N_5  and  C_9
REMARK    4  A    between atoms: C_9  and  N_10
REMARK    5  A    between atoms: N_10  and  C_11
REMARK    6  A    between atoms: N_10  and  C_12
REMARK    7  A    between atoms: C_12  and  C_13
REMARK    8  A    between atoms: C_12  and  C_19
REMARK                            x       y       z     vdW  Elec       q    Type
REMARK                         _______ _______ _______ _____ _____    ______ ____
ROOT
ATOM      1  C   UNL     1       1.738  -1.204  -1.279  0.00  0.00    +0.047 C 
ATOM      2  C   UNL     1       1.419  -0.406  -0.014  0.00  0.00    +0.135 C 
ATOM      3  C   UNL     1       2.164   0.914  -0.014  0.00  0.00    +0.252 C 
ATOM      4  O   UNL     1       3.365   1.077  -0.025  0.00  0.00    -0.272 OA
ATOM      5  N   UNL     1       1.213   1.869   0.001  0.00  0.00    -0.210 N 
ATOM      6  C   UNL     1      -0.016   1.341   0.009  0.00  0.00    +0.311 C 
ATOM      7  O   UNL     1      -1.036   2.003   0.018  0.00  0.00    -0.252 OA
ATOM      8  N   UNL     1       0.002  -0.004   0.002  0.00  0.00    -0.281 N 
ATOM      9  H   UNL     1      -0.787  -0.770   0.005  0.00  0.00    +0.152 HD
ENDROOT
BRANCH   2  10
ATOM     10  C   UNL     1       1.757  -1.206   1.218  0.00  0.00    -0.015 A 
ATOM     11  C   UNL     1       3.042  -1.132   1.753  0.00  0.00    +0.007 A 
ATOM     12  C   UNL     1       3.380  -1.840   2.865  0.00  0.00    +0.009 A 
ATOM     13  C   UNL     1       2.421  -2.660   3.485  0.00  0.00    -0.018 A 
ATOM     14  C   UNL     1       2.733  -3.406   4.635  0.00  0.00    +0.008 A 
ATOM     15  C   UNL     1       1.779  -4.189   5.208  0.00  0.00    +0.001 A 
ATOM     16  C   UNL     1       0.494  -4.263   4.673  0.00  0.00    +0.001 A 
ATOM     17  C   UNL     1       0.156  -3.555   3.561  0.00  0.00    +0.008 A 
ATOM     18  C   UNL     1       1.115  -2.736   2.941  0.00  0.00    -0.018 A 
ATOM     19  C   UNL     1       0.802  -1.984   1.795  0.00  0.00    +0.014 A 
ENDBRANCH   2  10
BRANCH   5  20
ATOM     20  C   UNL     1       1.491   3.307   0.005  0.00  0.00    +0.205 C 
BRANCH  20  21
ATOM     21  N   UNL     1       1.598   3.781   1.391  0.00  0.00    -0.278 NA
ATOM     22  C   UNL     1       0.268   4.011   1.972  0.00  0.00    +0.107 C 
BRANCH  21  23
ATOM     23  C   UNL     1       2.423   4.994   1.471  0.00  0.00    +0.118 C 
BRANCH  23  24
ATOM     24  C   UNL     1       2.509   5.450   2.905  0.00  0.00    -0.026 A 
ATOM     25  C   UNL     1       2.642   4.520   3.919  0.00  0.00    +0.005 A 
ATOM     26  C   UNL     1       2.725   4.938   5.234  0.00  0.00    +0.000 A 
ATOM     27  C   UNL     1       2.666   6.286   5.535  0.00  0.00    +0.000 A 
ATOM     28  C   UNL     1       2.528   7.215   4.521  0.00  0.00    +0.000 A 
ATOM     29  C   UNL     1       2.449   6.797   3.206  0.00  0.00    +0.005 A 
ENDBRANCH  23  24
BRANCH  23  30
ATOM     30  C   UNL     1       3.807   4.694   0.955  0.00  0.00    -0.026 A 
ATOM     31  C   UNL     1       4.417   3.494   1.269  0.00  0.00    +0.005 A 
ATOM     32  C   UNL     1       5.685   3.217   0.793  0.00  0.00    +0.000 A 
ATOM     33  C   UNL     1       6.346   4.144   0.010  0.00  0.00    +0.000 A 
ATOM     34  C   UNL     1       5.739   5.347  -0.301  0.00  0.00    +0.000 A 
ATOM     35  C   UNL     1       4.469   5.622   0.172  0.00  0.00    +0.005 A 
ENDBRANCH  23  30
ENDBRANCH  21  23
ENDBRANCH  20  21
ENDBRANCH   5  20
TORSDOF 6
