REMARK  Name = ZINC03292328
REMARK  8 active torsions:
REMARK  status: ('A' for Active; 'I' for Inactive)
REMARK    1  A    between atoms: C_1  and  C_2
REMARK    2  A    between atoms: C_2  and  O_3
REMARK    3  A    between atoms: O_3  and  C_4
REMARK    4  A    between atoms: C_9  and  N_10
REMARK    5  A    between atoms: C_11  and  C_13
REMARK    6  A    between atoms: C_13  and  S_14
REMARK    7  A    between atoms: S_14  and  C_15
REMARK    8  A    between atoms: N_28  and  C_29
REMARK                            x       y       z     vdW  Elec       q    Type
REMARK                         _______ _______ _______ _____ _____    ______ ____
ROOT
ATOM      1  C   UNL     1       0.090   1.035   3.351  0.00  0.00    +0.198 A 
ATOM      2  N   UNL     1       1.174   0.297   3.360  0.00  0.00    -0.120 NA
ATOM      3  N   UNL     1       1.521   0.037   4.570  0.00  0.00    -0.109 NA
ATOM      4  C   UNL     1       0.681   0.593   5.410  0.00  0.00    +0.245 A 
ATOM      5  N   UNL     1      -0.256   1.252   4.657  0.00  0.00    -0.255 N 
ATOM      6  C   UNL     1      -1.298   1.944   5.261  0.00  0.00    +0.064 A 
ATOM      7  C   UNL     1      -2.253   2.609   4.507  0.00  0.00    +0.027 A 
ATOM      8  C   UNL     1      -3.273   3.293   5.136  0.00  0.00    +0.002 A 
ATOM      9  C   UNL     1      -3.354   3.322   6.520  0.00  0.00    +0.001 A 
ATOM     10  C   UNL     1      -2.414   2.667   7.287  0.00  0.00    +0.015 A 
ATOM     11  C   UNL     1      -1.379   1.972   6.663  0.00  0.00    +0.064 A 
ATOM     12  C   UNL     1      -0.354   1.260   7.447  0.00  0.00    +0.268 A 
ATOM     13  O   UNL     1      -0.393   1.263   8.663  0.00  0.00    -0.267 OA
ATOM     14  N   UNL     1       0.628   0.603   6.795  0.00  0.00    -0.245 N 
ENDROOT
BRANCH  14  15
ATOM     15  C   UNL     1       1.607  -0.078   7.528  0.00  0.00    +0.053 A 
ATOM     16  C   UNL     1       2.354   0.596   8.486  0.00  0.00    +0.026 A 
ATOM     17  C   UNL     1       3.315  -0.080   9.211  0.00  0.00    +0.002 A 
ATOM     18  C   UNL     1       3.543  -1.424   8.977  0.00  0.00    +0.000 A 
ATOM     19  C   UNL     1       2.805  -2.096   8.020  0.00  0.00    +0.002 A 
ATOM     20  C   UNL     1       1.838  -1.428   7.295  0.00  0.00    +0.026 A 
ENDBRANCH  14  15
BRANCH   1  21
ATOM     21  S   UNL     1      -0.756   1.639   1.928  0.00  0.00    -0.076 S 
BRANCH  21  22
ATOM     22  C   UNL     1       0.217   1.003   0.536  0.00  0.00    +0.173 C 
BRANCH  22  24
ATOM     23  N   UNL     1       0.150   1.097  -1.935  0.00  0.00    -0.282 N 
ATOM     24  C   UNL     1      -0.406   1.453  -0.760  0.00  0.00    +0.228 C 
ATOM     25  O   UNL     1      -1.408   2.136  -0.746  0.00  0.00    -0.275 OA
ATOM     26  H   UNL     1       0.996   0.621  -1.947  0.00  0.00    +0.155 HD
BRANCH  23  32
ATOM     27  C   UNL     1       0.245   1.529  -4.315  0.00  0.00    +0.142 A 
ATOM     28  C   UNL     1      -0.395   1.843  -5.503  0.00  0.00    +0.047 A 
ATOM     29  C   UNL     1      -1.763   2.040  -5.519  0.00  0.00    +0.004 A 
ATOM     30  C   UNL     1      -2.496   1.925  -4.352  0.00  0.00    +0.002 A 
ATOM     31  C   UNL     1      -1.866   1.608  -3.164  0.00  0.00    +0.027 A 
ATOM     32  C   UNL     1      -0.492   1.414  -3.139  0.00  0.00    +0.076 A 
BRANCH  27  33
ATOM     33  O   UNL     1       1.591   1.334  -4.297  0.00  0.00    -0.490 OA
BRANCH  33  35
ATOM     34  C   UNL     1       3.776   1.215  -5.324  0.00  0.00    +0.048 C 
ATOM     35  C   UNL     1       2.283   1.469  -5.541  0.00  0.00    +0.226 C 
ENDBRANCH  33  35
ENDBRANCH  27  33
ENDBRANCH  23  32
ENDBRANCH  22  24
ENDBRANCH  21  22
ENDBRANCH   1  21
TORSDOF 7
