REMARK  Name = ZINC01877199
REMARK  12 active torsions:
REMARK  status: ('A' for Active; 'I' for Inactive)
REMARK    1  A    between atoms: C_1  and  C_2
REMARK    2  A    between atoms: C_2  and  C_3
REMARK    3  A    between atoms: C_3  and  O_4
REMARK    4  A    between atoms: O_4  and  C_5
REMARK    5  A    between atoms: C_8  and  N_11
REMARK    6  A    between atoms: C_16  and  C_30
REMARK    7  A    between atoms: N_18  and  C_24
REMARK    8  A    between atoms: C_33  and  O_38
REMARK    9  A    between atoms: C_34  and  O_36
REMARK   10  A    between atoms: O_36  and  C_37
REMARK   11  A    between atoms: O_38  and  C_39
REMARK   12  A    between atoms: C_39  and  C_41
REMARK                            x       y       z     vdW  Elec       q    Type
REMARK                         _______ _______ _______ _____ _____    ______ ____
ROOT
ATOM      1  N   UNL     1       3.729  -4.474   5.536  0.00  0.00    -0.208 N 
ATOM      2  C   UNL     1       3.850  -5.793   5.730  0.00  0.00    +0.235 C 
ATOM      3  O   UNL     1       3.600  -6.648   4.907  0.00  0.00    -0.274 OA
ATOM      4  C   UNL     1       4.346  -6.050   7.133  0.00  0.00    +0.145 C 
ATOM      5  C   UNL     1       3.226  -6.725   7.957  0.00  0.00    +0.157 C 
ATOM      6  N   UNL     1       3.211  -5.925   9.206  0.00  0.00    -0.244 N 
ATOM      7  O   UNL     1       3.430  -4.581   8.773  0.00  0.00    -0.257 OA
ATOM      8  C   UNL     1       4.460  -4.626   7.742  0.00  0.00    +0.249 C 
ATOM      9  C   UNL     1       4.058  -3.725   6.595  0.00  0.00    +0.259 C 
ATOM     10  O   UNL     1       4.035  -2.514   6.630  0.00  0.00    -0.272 OA
ENDROOT
BRANCH   1  14
ATOM     11  C   UNL     1       2.446  -2.833   1.921  0.00  0.00    +0.121 A 
ATOM     12  C   UNL     1       3.665  -3.492   1.990  0.00  0.00    +0.047 A 
ATOM     13  C   UNL     1       4.090  -4.035   3.187  0.00  0.00    +0.027 A 
ATOM     14  C   UNL     1       3.298  -3.922   4.320  0.00  0.00    +0.044 A 
ATOM     15  C   UNL     1       2.078  -3.263   4.251  0.00  0.00    +0.027 A 
ATOM     16  C   UNL     1       1.656  -2.715   3.056  0.00  0.00    +0.047 A 
BRANCH  11  17
ATOM     17  O   UNL     1       2.029  -2.298   0.744  0.00  0.00    -0.492 OA
BRANCH  17  18
ATOM     18  C   UNL     1       2.892  -2.457  -0.384  0.00  0.00    +0.229 C 
BRANCH  18  20
ATOM     19  C   UNL     1       3.184  -1.964  -2.816  0.00  0.00    +0.007 C 
ATOM     20  C   UNL     1       2.259  -1.794  -1.609  0.00  0.00    +0.038 C 
ENDBRANCH  18  20
ENDBRANCH  17  18
ENDBRANCH  11  17
ENDBRANCH   1  14
BRANCH   6  21
ATOM     21  C   UNL     1       3.025  -6.382  10.512  0.00  0.00    +0.065 A 
ATOM     22  C   UNL     1       3.971  -6.102  11.490  0.00  0.00    +0.028 A 
ATOM     23  C   UNL     1       3.783  -6.556  12.781  0.00  0.00    +0.002 A 
ATOM     24  C   UNL     1       2.655  -7.288  13.101  0.00  0.00    +0.000 A 
ATOM     25  C   UNL     1       1.710  -7.568  12.130  0.00  0.00    +0.002 A 
ATOM     26  C   UNL     1       1.889  -7.113  10.838  0.00  0.00    +0.028 A 
ENDBRANCH   6  21
BRANCH   5  27
ATOM     27  C   UNL     1       3.568  -8.165   8.245  0.00  0.00    -0.018 A 
ATOM     28  C   UNL     1       4.560  -8.468   9.159  0.00  0.00    +0.009 A 
ATOM     29  C   UNL     1       4.878  -9.787   9.427  0.00  0.00    +0.050 A 
ATOM     30  C   UNL     1       4.201 -10.808   8.779  0.00  0.00    +0.173 A 
ATOM     31  C   UNL     1       3.203 -10.502   7.859  0.00  0.00    +0.163 A 
ATOM     32  C   UNL     1       2.886  -9.178   7.599  0.00  0.00    +0.055 A 
BRANCH  31  33
ATOM     33  O   UNL     1       2.536 -11.500   7.220  0.00  0.00    -0.491 OA
ATOM     34  C   UNL     1       1.524 -11.112   6.289  0.00  0.00    +0.277 C 
ENDBRANCH  31  33
BRANCH  30  35
ATOM     35  O   UNL     1       4.513 -12.105   9.040  0.00  0.00    -0.419 OA
BRANCH  35  36
ATOM     36  C   UNL     1       5.348 -12.738   8.194  0.00  0.00    +0.345 C 
ATOM     37  O   UNL     1       5.876 -12.124   7.289  0.00  0.00    -0.245 OA
BRANCH  36  38
ATOM     38  C   UNL     1       5.623 -14.179   8.367  0.00  0.00    +0.059 A 
ATOM     39  C   UNL     1       5.013 -14.890   9.404  0.00  0.00    +0.015 A 
ATOM     40  C   UNL     1       5.274 -16.235   9.559  0.00  0.00    +0.001 A 
ATOM     41  C   UNL     1       6.137 -16.881   8.692  0.00  0.00    +0.000 A 
ATOM     42  C   UNL     1       6.745 -16.183   7.663  0.00  0.00    +0.001 A 
ATOM     43  C   UNL     1       6.488 -14.838   7.492  0.00  0.00    +0.015 A 
ENDBRANCH  36  38
ENDBRANCH  35  36
ENDBRANCH  30  35
ENDBRANCH   5  27
TORSDOF 10
