REMARK  Name = ZINC36307716
REMARK  18 active torsions:
REMARK  status: ('A' for Active; 'I' for Inactive)
REMARK    1  A    between atoms: C_1  and  C_2
REMARK    2  A    between atoms: C_2  and  C_3
REMARK    3  A    between atoms: C_3  and  N_4
REMARK    4  A    between atoms: N_4  and  C_5
REMARK    5  A    between atoms: N_4  and  C_26
REMARK    6  A    between atoms: C_5  and  C_6
REMARK    7  A    between atoms: C_7  and  C_20
REMARK    8  A    between atoms: N_9  and  C_19
REMARK    9  A    between atoms: C_10  and  O_11
REMARK   10  A    between atoms: O_11  and  C_12
REMARK   11  A    between atoms: C_26  and  C_27
REMARK   12  A    between atoms: C_27  and  C_29
REMARK   13  A    between atoms: C_27  and  O_35
REMARK   14  A    between atoms: C_29  and  O_30
REMARK   15  A    between atoms: O_30  and  C_31
REMARK   16  A    between atoms: C_31  and  C_32
REMARK   17  A    between atoms: C_31  and  C_33
REMARK   18  A    between atoms: C_31  and  C_34
REMARK                            x       y       z     vdW  Elec       q    Type
REMARK                         _______ _______ _______ _____ _____    ______ ____
ROOT
ATOM      1  C   UNL     1       3.170  -1.971  -0.922  0.00  0.00    +0.025 A 
ATOM      2  C   UNL     1       3.746  -0.731  -1.256  0.00  0.00    +0.098 A 
ATOM      3  N   UNL     1       4.918  -0.650  -0.663  0.00  0.00    -0.168 NA
ATOM      4  N   UNL     1       5.125  -1.829   0.064  0.00  0.00    -0.235 N 
ATOM      5  C   UNL     1       4.036  -2.623  -0.105  0.00  0.00    +0.221 A 
ATOM      6  C   UNL     1       6.305  -2.147   0.871  0.00  0.00    +0.176 C 
ENDROOT
BRANCH   2   7
ATOM      7  C   UNL     1       3.137   0.305  -2.127  0.00  0.00    +0.002 A 
ATOM      8  C   UNL     1       3.198   1.649  -1.763  0.00  0.00    +0.010 A 
ATOM      9  C   UNL     1       2.630   2.608  -2.576  0.00  0.00    +0.001 A 
ATOM     10  C   UNL     1       2.002   2.239  -3.752  0.00  0.00    +0.000 A 
ATOM     11  C   UNL     1       1.938   0.906  -4.118  0.00  0.00    +0.001 A 
ATOM     12  C   UNL     1       2.508  -0.061  -3.315  0.00  0.00    +0.010 A 
ENDBRANCH   2   7
BRANCH   1  13
ATOM     13  C   UNL     1       1.829  -2.481  -1.383  0.00  0.00    -0.035 C 
BRANCH  13  14
ATOM     14  N   UNL     1       0.822  -2.215  -0.348  0.00  0.00    +0.384 N 
ATOM     15  H   UNL     1       1.105  -2.650   0.517  0.00  0.00    -0.081 HD
BRANCH  14  16
ATOM     16  C   UNL     1       0.696  -0.765  -0.149  0.00  0.00    -0.079 C 
BRANCH  16  18
ATOM     17  C   UNL     1      -0.271   1.011   1.319  0.00  0.00    +0.002 C 
ATOM     18  C   UNL     1      -0.243  -0.491   1.028  0.00  0.00    -0.022 C 
ENDBRANCH  16  18
ENDBRANCH  14  16
BRANCH  14  19
ATOM     19  C   UNL     1      -0.473  -2.765  -0.772  0.00  0.00    -0.044 C 
BRANCH  19  20
ATOM     20  C   UNL     1      -0.390  -4.292  -0.811  0.00  0.00    +0.124 C 
BRANCH  20  21
ATOM     21  O   UNL     1       0.478  -4.695  -1.873  0.00  0.00    -0.391 OA
ATOM     22  H   UNL     1       0.191  -4.402  -2.748  0.00  0.00    +0.210 HD
ENDBRANCH  20  21
BRANCH  20  23
ATOM     23  C   UNL     1      -1.786  -4.872  -1.046  0.00  0.00    +0.189 C 
BRANCH  23  24
ATOM     24  O   UNL     1      -1.728  -6.298  -0.967  0.00  0.00    -0.372 OA
BRANCH  24  25
ATOM     25  C   UNL     1      -2.987  -6.943  -1.172  0.00  0.00    +0.061 C 
ATOM     26  C   UNL     1      -3.520  -6.590  -2.562  0.00  0.00    +0.041 C 
ATOM     27  C   UNL     1      -2.807  -8.459  -1.065  0.00  0.00    +0.041 C 
ATOM     28  C   UNL     1      -3.981  -6.471  -0.109  0.00  0.00    +0.041 C 
ENDBRANCH  24  25
ENDBRANCH  23  24
ENDBRANCH  20  23
ENDBRANCH  19  20
ENDBRANCH  14  19
ENDBRANCH  13  14
ENDBRANCH   1  13
BRANCH   5  29
ATOM     29  O   UNL     1       3.849  -3.851   0.443  0.00  0.00    -0.438 OA
BRANCH  29  30
ATOM     30  C   UNL     1       4.351  -4.928  -0.217  0.00  0.00    +0.131 A 
ATOM     31  C   UNL     1       5.126  -4.746  -1.353  0.00  0.00    +0.049 A 
ATOM     32  C   UNL     1       5.636  -5.841  -2.023  0.00  0.00    +0.042 A 
ATOM     33  C   UNL     1       5.374  -7.120  -1.561  0.00  0.00    +0.124 A 
ATOM     34  C   UNL     1       4.601  -7.303  -0.427  0.00  0.00    +0.042 A 
ATOM     35  C   UNL     1       4.095  -6.210   0.248  0.00  0.00    +0.049 A 
ATOM     36  F   UNL     1       5.873  -8.190  -2.218  0.00  0.00    -0.205 F 
ENDBRANCH  29  30
ENDBRANCH   5  29
TORSDOF 13
