REMARK  Name = ZINC13593533
REMARK  12 active torsions:
REMARK  status: ('A' for Active; 'I' for Inactive)
REMARK    1  A    between atoms: C_1  and  C_2
REMARK    2  A    between atoms: C_2  and  C_32
REMARK    3  A    between atoms: C_7  and  N_12
REMARK    4  A    between atoms: C_8  and  C_9
REMARK    5  A    between atoms: C_13  and  C_15
REMARK    6  A    between atoms: N_17  and  C_18
REMARK    7  A    between atoms: C_18  and  C_19
REMARK    8  A    between atoms: C_19  and  C_20
REMARK    9  A    between atoms: C_23  and  O_28
REMARK   10  A    between atoms: C_24  and  O_26
REMARK   11  A    between atoms: O_26  and  C_27
REMARK   12  A    between atoms: O_28  and  C_29
REMARK                            x       y       z     vdW  Elec       q    Type
REMARK                         _______ _______ _______ _____ _____    ______ ____
ROOT
ATOM      1  N   UNL     1      -0.537   1.440  -4.849  0.00  0.00    -0.272 N 
ATOM      2  C   UNL     1      -0.990   1.753  -3.619  0.00  0.00    +0.304 C 
ATOM      3  O   UNL     1      -1.985   2.437  -3.494  0.00  0.00    -0.265 OA
ATOM      4  H   UNL     1       0.258   0.894  -4.948  0.00  0.00    +0.156 HD
ENDROOT
BRANCH   1  11
ATOM      5  C   UNL     1      -2.708   2.656 -11.985  0.00  0.00    +0.041 C 
ATOM      6  C   UNL     1      -2.917   2.537 -10.474  0.00  0.00    +0.068 C 
ATOM      7  C   UNL     1      -1.591   2.156  -9.807  0.00  0.00    +0.071 C 
ATOM      8  C   UNL     1      -1.769   2.282  -8.299  0.00  0.00    -0.018 A 
ATOM      9  C   UNL     1      -2.806   2.996  -7.801  0.00  0.00    +0.021 A 
ATOM     10  S   UNL     1      -2.634   2.880  -6.046  0.00  0.00    -0.075 S 
ATOM     11  C   UNL     1      -1.206   1.899  -5.970  0.00  0.00    +0.085 A 
ATOM     12  C   UNL     1      -0.894   1.689  -7.308  0.00  0.00    +0.069 A 
ATOM     13  C   UNL     1      -3.847   3.713  -8.602  0.00  0.00    +0.203 C 
ATOM     14  O   UNL     1      -3.385   3.787  -9.961  0.00  0.00    -0.368 OA
ATOM     15  C   UNL     1      -3.958   1.453 -10.190  0.00  0.00    +0.041 C 
BRANCH  12  16
ATOM     16  C   UNL     1       0.275   0.895  -7.702  0.00  0.00    +0.244 C 
ATOM     17  O   UNL     1       0.167  -0.305  -7.867  0.00  0.00    -0.270 OA
ATOM     18  N   UNL     1       1.468   1.496  -7.880  0.00  0.00    -0.325 N 
ATOM     19  H   UNL     1       1.554   2.453  -7.748  0.00  0.00    +0.145 HD
ATOM     20  H   UNL     1       2.241   0.971  -8.140  0.00  0.00    +0.145 HD
ENDBRANCH  12  16
ENDBRANCH   1  11
BRANCH   2  21
ATOM     21  C   UNL     1      -0.268   1.258  -2.409  0.00  0.00    +0.299 C 
ATOM     22  O   UNL     1       0.727   0.575  -2.534  0.00  0.00    -0.265 OA
ATOM     23  N   UNL     1      -0.721   1.571  -1.179  0.00  0.00    -0.307 N 
ATOM     24  H   UNL     1      -1.516   2.118  -1.079  0.00  0.00    +0.149 HD
BRANCH  23  25
ATOM     25  C   UNL     1      -0.013   1.086   0.008  0.00  0.00    +0.109 C 
BRANCH  25  26
ATOM     26  C   UNL     1      -0.729   1.579   1.267  0.00  0.00    +0.054 C 
BRANCH  26  27
ATOM     27  C   UNL     1       0.000   1.080   2.488  0.00  0.00    -0.042 A 
ATOM     28  C   UNL     1      -0.349  -0.134   3.051  0.00  0.00    +0.007 A 
ATOM     29  C   UNL     1       0.321  -0.598   4.168  0.00  0.00    +0.049 A 
ATOM     30  C   UNL     1       1.336   0.158   4.731  0.00  0.00    +0.161 A 
ATOM     31  C   UNL     1       1.683   1.381   4.168  0.00  0.00    +0.162 A 
ATOM     32  C   UNL     1       1.012   1.839   3.045  0.00  0.00    +0.053 A 
BRANCH  31  33
ATOM     33  O   UNL     1       2.679   2.127   4.717  0.00  0.00    -0.491 OA
ATOM     34  C   UNL     1       2.982   3.372   4.085  0.00  0.00    +0.277 C 
ENDBRANCH  31  33
BRANCH  30  35
ATOM     35  O   UNL     1       1.992  -0.296   5.833  0.00  0.00    -0.491 OA
ATOM     36  C   UNL     1       1.583  -1.561   6.357  0.00  0.00    +0.277 C 
ENDBRANCH  30  35
ENDBRANCH  26  27
ENDBRANCH  25  26
ENDBRANCH  23  25
ENDBRANCH   2  21
TORSDOF 8
