REMARK  Name = ZINC14881394
REMARK  6 active torsions:
REMARK  status: ('A' for Active; 'I' for Inactive)
REMARK    1  A    between atoms: C_3  and  C_9
REMARK    2  A    between atoms: C_9  and  N_65
REMARK    3  A    between atoms: C_12  and  C_15
REMARK    4  A    between atoms: C_15  and  C_27
REMARK    5  A    between atoms: N_18  and  C_22
REMARK    6  A    between atoms: C_27  and  C_28
REMARK                            x       y       z     vdW  Elec       q    Type
REMARK                         _______ _______ _______ _____ _____    ______ ____
ROOT
ATOM      1  C   UNL     1      -2.944   0.710   1.463  0.00  0.00    +0.119 C 
ATOM      2  C   UNL     1      -3.145   2.013   2.211  0.00  0.00    +0.247 C 
ATOM      3  O   UNL     1      -3.940   2.891   1.952  0.00  0.00    -0.273 OA
ATOM      4  N   UNL     1      -2.256   1.993   3.223  0.00  0.00    -0.221 N 
ATOM      5  C   UNL     1      -1.529   0.870   3.219  0.00  0.00    +0.310 C 
ATOM      6  O   UNL     1      -0.662   0.623   4.035  0.00  0.00    -0.252 OA
ATOM      7  N   UNL     1      -1.864   0.044   2.211  0.00  0.00    -0.284 N 
ATOM      8  H   UNL     1      -1.471  -0.821   2.015  0.00  0.00    +0.151 HD
ENDROOT
BRANCH   1  11
ATOM      9  C   UNL     1      -6.009  -1.076   2.959  0.00  0.00    -0.078 C 
ATOM     10  C   UNL     1      -4.701  -0.282   2.940  0.00  0.00    -0.013 C 
ATOM     11  C   UNL     1      -4.220  -0.135   1.494  0.00  0.00    +0.018 C 
ATOM     12  C   UNL     1      -5.310   0.554   0.668  0.00  0.00    -0.013 C 
ATOM     13  C   UNL     1      -6.601  -0.263   0.754  0.00  0.00    -0.078 C 
ATOM     14  N   UNL     1      -7.024  -0.347   2.168  0.00  0.00    +0.382 N 
ATOM     15  H   UNL     1      -7.120   0.603   2.544  0.00  0.00    -0.081 HD
BRANCH  14  16
ATOM     16  C   UNL     1      -8.328  -1.035   2.264  0.00  0.00    -0.040 C 
BRANCH  16  19
ATOM     17  C   UNL     1     -10.461  -0.619  -0.823  0.00  0.00    +0.003 A 
ATOM     18  C   UNL     1      -9.594  -1.158   0.109  0.00  0.00    +0.005 A 
ATOM     19  C   UNL     1      -9.273  -0.446   1.249  0.00  0.00    -0.026 A 
ATOM     20  C   UNL     1      -9.824   0.806   1.461  0.00  0.00    +0.160 A 
ATOM     21  C   UNL     1     -10.689   1.349   0.523  0.00  0.00    +0.159 A 
ATOM     22  C   UNL     1     -11.009   0.633  -0.617  0.00  0.00    +0.041 A 
ATOM     23  F   UNL     1     -11.223   2.574   0.725  0.00  0.00    -0.202 F 
ATOM     24  F   UNL     1      -9.515   1.501   2.578  0.00  0.00    -0.202 F 
ENDBRANCH  16  19
ENDBRANCH  14  16
ENDBRANCH   1  11
BRANCH   4  25
ATOM     25  C   UNL     1      -2.104   3.068   4.207  0.00  0.00    +0.086 C 
ATOM     26  C   UNL     1      -0.656   3.600   4.188  0.00  0.00    +0.023 C 
ATOM     27  C   UNL     1      -0.346   3.907   5.675  0.00  0.00    +0.002 C 
ATOM     28  C   UNL     1      -1.053   2.746   6.419  0.00  0.00    +0.002 C 
ATOM     29  C   UNL     1      -2.356   2.526   5.624  0.00  0.00    +0.023 C 
ENDBRANCH   4  25
BRANCH   1  30
ATOM     30  C   UNL     1      -2.513   0.978   0.020  0.00  0.00    +0.070 C 
BRANCH  30  31
ATOM     31  C   UNL     1      -1.219   1.750   0.017  0.00  0.00    -0.045 A 
ATOM     32  C   UNL     1      -0.013   1.076   0.008  0.00  0.00    +0.006 A 
ATOM     33  C   UNL     1       1.175   1.783   0.000  0.00  0.00    +0.038 A 
ATOM     34  C   UNL     1       1.156   3.167   0.008  0.00  0.00    +0.123 A 
ATOM     35  C   UNL     1      -0.053   3.842   0.022  0.00  0.00    +0.038 A 
ATOM     36  C   UNL     1      -1.240   3.133   0.030  0.00  0.00    +0.006 A 
ATOM     37  F   UNL     1       2.316   3.859  -0.000  0.00  0.00    -0.205 F 
ENDBRANCH  30  31
ENDBRANCH   1  30
TORSDOF 6
