REMARK  Name = ZINC39067872
REMARK  8 active torsions:
REMARK  status: ('A' for Active; 'I' for Inactive)
REMARK    1  A    between atoms: C_4  and  C_7
REMARK    2  A    between atoms: C_7  and  C_9
REMARK    3  A    between atoms: C_7  and  O_20
REMARK    4  A    between atoms: C_9  and  C_11
REMARK    5  A    between atoms: O_20  and  C_21
REMARK    6  A    between atoms: C_21  and  C_23
REMARK    7  A    between atoms: C_23  and  N_24
REMARK    8  A    between atoms: C_25  and  C_27
REMARK                            x       y       z     vdW  Elec       q    Type
REMARK                         _______ _______ _______ _____ _____    ______ ____
ROOT
ATOM      1  C   UNL     1       3.711  -0.707  -0.038  0.00  0.00    +0.277 C 
ENDROOT
BRANCH   1   5
ATOM      2  C   UNL     1      -0.017   1.378   0.010  0.00  0.00    +0.000 A 
ATOM      3  C   UNL     1       1.171   2.086   0.002  0.00  0.00    +0.000 A 
ATOM      4  C   UNL     1       2.377   1.411  -0.013  0.00  0.00    +0.008 A 
ATOM      5  C   UNL     1       2.396   0.029  -0.020  0.00  0.00    +0.000 A 
ATOM      6  C   UNL     1       1.208  -0.679  -0.012  0.00  0.00    +0.008 A 
ATOM      7  C   UNL     1       0.002  -0.004   0.002  0.00  0.00    +0.000 A 
ENDBRANCH   1   5
BRANCH   1   8
ATOM      8  C   UNL     1       4.074  -1.053  -1.459  0.00  0.00    +0.206 C 
ATOM      9  O   UNL     1       3.871  -2.173  -1.881  0.00  0.00    -0.288 OA
BRANCH   8  10
ATOM     10  C   UNL     1       4.650  -0.076  -2.298  0.00  0.00    +0.027 C 
ATOM     11  C   UNL     1       5.033  -0.228  -3.618  0.00  0.00    +0.006 A 
ATOM     12  C   UNL     1       4.987  -1.322  -4.514  0.00  0.00    +0.010 A 
ATOM     13  C   UNL     1       5.442  -1.186  -5.780  0.00  0.00    +0.001 A 
ATOM     14  C   UNL     1       5.973   0.020  -6.264  0.00  0.00    +0.002 A 
ATOM     15  C   UNL     1       6.062   1.124  -5.491  0.00  0.00    +0.026 A 
ATOM     16  C   UNL     1       5.588   1.062  -4.098  0.00  0.00    +0.043 A 
ATOM     17  N   UNL     1       5.555   1.954  -3.151  0.00  0.00    -0.380 N 
ATOM     18  C   UNL     1       4.972   1.359  -1.944  0.00  0.00    +0.152 C 
ATOM     19  H   UNL     1       5.864   2.870  -3.231  0.00  0.00    +0.160 HD
ENDBRANCH   8  10
ENDBRANCH   1   8
BRANCH   1  20
ATOM     20  O   UNL     1       3.596  -1.907   0.731  0.00  0.00    -0.447 OA
BRANCH  20  21
ATOM     21  C   UNL     1       3.892  -1.824   2.037  0.00  0.00    +0.325 C 
ATOM     22  O   UNL     1       4.238  -0.769   2.513  0.00  0.00    -0.249 OA
BRANCH  21  23
ATOM     23  C   UNL     1       3.794  -3.049   2.910  0.00  0.00    +0.225 C 
BRANCH  23  24
ATOM     24  N   UNL     1       4.166  -2.700   4.284  0.00  0.00    -0.301 N 
ATOM     25  C   UNL     1       4.152  -3.643   5.246  0.00  0.00    +0.245 C 
ATOM     26  O   UNL     1       3.830  -4.784   4.975  0.00  0.00    -0.270 OA
ATOM     27  H   UNL     1       4.423  -1.790   4.501  0.00  0.00    +0.150 HD
BRANCH  25  28
ATOM     28  C   UNL     1       4.526  -3.292   6.630  0.00  0.00    +0.040 A 
ATOM     29  C   UNL     1       4.891  -1.980   6.945  0.00  0.00    +0.017 A 
ATOM     30  C   UNL     1       5.239  -1.654   8.237  0.00  0.00    +0.050 A 
ATOM     31  C   UNL     1       5.231  -2.625   9.230  0.00  0.00    +0.166 A 
ATOM     32  C   UNL     1       4.868  -3.937   8.922  0.00  0.00    +0.167 A 
ATOM     33  C   UNL     1       4.512  -4.268   7.629  0.00  0.00    +0.062 A 
ATOM     34  O   UNL     1       4.940  -4.687  10.060  0.00  0.00    -0.453 OA
ATOM     35  C   UNL     1       5.741  -3.918  10.977  0.00  0.00    +0.466 C 
ATOM     36  O   UNL     1       5.527  -2.557  10.559  0.00  0.00    -0.453 OA
ENDBRANCH  25  28
ENDBRANCH  23  24
ENDBRANCH  21  23
ENDBRANCH  20  21
ENDBRANCH   1  20
TORSDOF 8
