REMARK  Name = ZINC39674397
REMARK  10 active torsions:
REMARK  status: ('A' for Active; 'I' for Inactive)
REMARK    1  A    between atoms: C_1  and  C_2
REMARK    2  A    between atoms: C_2  and  S_3
REMARK    3  A    between atoms: S_3  and  C_4
REMARK    4  A    between atoms: C_5  and  C_10
REMARK    5  A    between atoms: C_14  and  C_23
REMARK    6  A    between atoms: N_25  and  C_26
REMARK    7  A    between atoms: C_26  and  C_28
REMARK    8  A    between atoms: C_26  and  C_29
REMARK    9  A    between atoms: C_30  and  C_36
REMARK   10  A    between atoms: C_33  and  C_35
REMARK                            x       y       z     vdW  Elec       q    Type
REMARK                         _______ _______ _______ _____ _____    ______ ____
ROOT
ATOM      1  C   UNL     1       2.930  -1.760   4.008  0.00  0.00    +0.249 C 
ATOM      2  O   UNL     1       3.215  -0.637   4.380  0.00  0.00    -0.270 OA
ATOM      3  N   UNL     1       3.255  -2.824   4.768  0.00  0.00    -0.296 N 
ATOM      4  C   UNL     1       3.084  -4.259   4.442  0.00  0.00    +0.121 C 
ATOM      5  C   UNL     1       4.360  -4.939   4.989  0.00  0.00    +0.100 C 
ATOM      6  C   UNL     1       4.867  -3.993   6.090  0.00  0.00    -0.004 C 
ATOM      7  C   UNL     1       3.872  -2.823   6.117  0.00  0.00    +0.115 C 
ATOM      8  C   UNL     1       6.263  -3.482   5.747  0.00  0.00    -0.010 C 
ATOM      9  C   UNL     1       6.768  -2.589   6.883  0.00  0.00    -0.082 C 
ATOM     10  N   UNL     1       6.800  -3.357   8.134  0.00  0.00    +0.379 N 
ATOM     11  C   UNL     1       5.440  -3.765   8.506  0.00  0.00    -0.082 C 
ATOM     12  C   UNL     1       4.878  -4.708   7.438  0.00  0.00    -0.010 C 
ATOM     13  H   UNL     1       7.374  -4.177   8.009  0.00  0.00    -0.086 HD
ATOM     14  H   UNL     1       7.191  -2.785   8.868  0.00  0.00    -0.086 HD
ENDROOT
BRANCH   1  16
ATOM     15  C   UNL     1       2.502  -1.126   1.626  0.00  0.00    +0.109 A 
ATOM     16  C   UNL     1       2.228  -1.956   2.727  0.00  0.00    +0.069 A 
ATOM     17  C   UNL     1       1.276  -2.972   2.584  0.00  0.00    +0.017 A 
ATOM     18  C   UNL     1       0.645  -3.115   1.361  0.00  0.00    +0.020 A 
ATOM     19  C   UNL     1       0.969  -2.259   0.323  0.00  0.00    +0.112 A 
ATOM     20  N   UNL     1       1.865  -1.304   0.478  0.00  0.00    -0.248 NA
BRANCH  15  21
ATOM     21  S   UNL     1       3.695   0.163   1.775  0.00  0.00    -0.105 S 
BRANCH  21  23
ATOM     22  C   UNL     1       4.706   2.100   0.130  0.00  0.00    +0.015 C 
ATOM     23  C   UNL     1       3.699   0.948   0.140  0.00  0.00    +0.072 C 
ENDBRANCH  21  23
ENDBRANCH  15  21
ENDBRANCH   1  16
BRANCH   5  24
ATOM     24  C   UNL     1       5.390  -5.077   3.898  0.00  0.00    +0.219 C 
ATOM     25  O   UNL     1       5.449  -4.251   3.012  0.00  0.00    -0.275 OA
ATOM     26  N   UNL     1       6.245  -6.119   3.906  0.00  0.00    -0.309 N 
ATOM     27  H   UNL     1       6.197  -6.780   4.615  0.00  0.00    +0.149 HD
BRANCH  26  28
ATOM     28  C   UNL     1       7.246  -6.253   2.846  0.00  0.00    +0.100 C 
ATOM     29  C   UNL     1       6.623  -6.965   1.643  0.00  0.00    +0.033 C 
BRANCH  28  30
ATOM     30  C   UNL     1       8.413  -7.059   3.356  0.00  0.00    -0.001 C 
ATOM     31  C   UNL     1       9.704  -6.720   3.366  0.00  0.00    +0.063 C 
ATOM     32  N   UNL     1      10.455  -7.707   3.905  0.00  0.00    -0.159 NA
ATOM     33  N   UNL     1       9.815  -8.696   4.270  0.00  0.00    -0.180 NA
ATOM     34  C   UNL     1       8.393  -8.441   3.983  0.00  0.00    +0.154 C 
ATOM     35  C   UNL     1       7.850  -9.476   2.996  0.00  0.00    +0.039 C 
ATOM     36  C   UNL     1      10.251  -5.415   2.848  0.00  0.00    +0.067 C 
ENDBRANCH  28  30
ENDBRANCH  26  28
ENDBRANCH   5  24
TORSDOF 6
