REMARK  Name = ZINC20709634
REMARK  4 active torsions:
REMARK  status: ('A' for Active; 'I' for Inactive)
REMARK    1  A    between atoms: C_5  and  C_7
REMARK    2  A    between atoms: C_17  and  C_26
REMARK    3  A    between atoms: C_28  and  N_33
REMARK    4  A    between atoms: C_31  and  O_32
REMARK                            x       y       z     vdW  Elec       q    Type
REMARK                         _______ _______ _______ _____ _____    ______ ____
ROOT
ATOM      1  C   UNL     1      -4.013  -0.050   1.532  0.00  0.00    +0.001 A 
ATOM      2  C   UNL     1      -2.847   0.209   0.829  0.00  0.00    +0.006 A 
ATOM      3  C   UNL     1      -2.424   1.502   0.614  0.00  0.00    -0.019 A 
ATOM      4  C   UNL     1      -3.158   2.582   1.112  0.00  0.00    +0.044 A 
ATOM      5  C   UNL     1      -4.347   2.310   1.819  0.00  0.00    +0.058 A 
ATOM      6  C   UNL     1      -4.763   0.996   2.022  0.00  0.00    +0.015 A 
ATOM      7  N   UNL     1      -2.782   3.908   0.977  0.00  0.00    -0.336 N 
ATOM      8  C   UNL     1      -1.567   4.195   0.198  0.00  0.00    +0.108 C 
ATOM      9  C   UNL     1      -0.574   3.089   0.488  0.00  0.00    +0.029 C 
ATOM     10  C   UNL     1      -1.190   1.800  -0.146  0.00  0.00    +0.049 C 
ATOM     11  C   UNL     1      -0.035   0.870  -0.195  0.00  0.00    -0.023 C 
ATOM     12  C   UNL     1       1.079   1.585  -0.306  0.00  0.00    -0.030 C 
ATOM     13  C   UNL     1       0.743   3.079  -0.296  0.00  0.00    +0.033 C 
ATOM     14  H   UNL     1      -3.355   4.732   1.426  0.00  0.00    +0.147 HD
ENDROOT
BRANCH   5  15
ATOM     15  C   UNL     1      -5.157   3.424   2.346  0.00  0.00    +0.248 C 
ATOM     16  O   UNL     1      -5.517   4.318   1.605  0.00  0.00    -0.270 OA
ATOM     17  N   UNL     1      -5.496   3.452   3.650  0.00  0.00    -0.297 N 
ATOM     18  C   UNL     1      -6.391   4.490   4.112  0.00  0.00    +0.108 C 
ATOM     19  C   UNL     1      -5.580   5.732   4.537  0.00  0.00    +0.019 C 
ATOM     20  C   UNL     1      -4.854   5.463   5.788  0.00  0.00    +0.002 C 
ATOM     21  C   UNL     1      -3.816   4.349   5.685  0.00  0.00    +0.002 C 
ATOM     22  C   UNL     1      -4.490   3.017   5.900  0.00  0.00    +0.019 C 
ATOM     23  C   UNL     1      -4.935   2.425   4.550  0.00  0.00    +0.108 C 
ENDBRANCH   5  15
BRANCH   8  24
ATOM     24  C   UNL     1      -0.980   5.528   0.586  0.00  0.00    +0.017 A 
ATOM     25  C   UNL     1      -1.175   6.024   1.861  0.00  0.00    +0.041 A 
ATOM     26  C   UNL     1      -0.633   7.243   2.220  0.00  0.00    +0.127 A 
ATOM     27  C   UNL     1       0.097   7.975   1.301  0.00  0.00    +0.036 A 
ATOM     28  C   UNL     1       0.290   7.487   0.024  0.00  0.00    +0.048 A 
ATOM     29  C   UNL     1      -0.249   6.260  -0.337  0.00  0.00    +0.122 A 
BRANCH  26  30
ATOM     30  N   UNL     1      -0.837   7.769   3.588  0.00  0.00    +0.056 N 
ATOM     31  O   UNL     1      -0.363   8.846   3.904  0.00  0.00    -0.126 OA
ATOM     32  O   UNL     1      -1.480   7.125   4.398  0.00  0.00    -0.126 OA
ENDBRANCH  26  30
BRANCH  29  33
ATOM     33  O   UNL     1      -0.060   5.777  -1.593  0.00  0.00    -0.506 OA
ATOM     34  H   UNL     1       0.520   6.358  -2.325  0.00  0.00    +0.292 HD
ENDBRANCH  29  33
ENDBRANCH   8  24
TORSDOF 4
