REMARK  Name = ZINC19771433
REMARK  7 active torsions:
REMARK  status: ('A' for Active; 'I' for Inactive)
REMARK    1  A    between atoms: C_1  and  C_2
REMARK    2  A    between atoms: C_2  and  C_33
REMARK    3  A    between atoms: C_4  and  N_10
REMARK    4  A    between atoms: C_6  and  C_8
REMARK    5  A    between atoms: C_6  and  C_9
REMARK    6  A    between atoms: N_10  and  C_11
REMARK    7  A    between atoms: C_13  and  C_27
REMARK                            x       y       z     vdW  Elec       q    Type
REMARK                         _______ _______ _______ _____ _____    ______ ____
ROOT
ATOM      1  C   UNL     1      -4.614  -0.294   1.639  0.00  0.00    +0.083 C 
ATOM      2  C   UNL     1      -5.851  -0.905   1.566  0.00  0.00    +0.080 C 
ATOM      3  C   UNL     1      -7.009  -0.688   2.458  0.00  0.00    +0.103 C 
ATOM      4  N   UNL     1      -7.972  -1.465   2.034  0.00  0.00    -0.169 NA
ATOM      5  N   UNL     1      -7.550  -2.192   0.920  0.00  0.00    -0.131 N 
ATOM      6  C   UNL     1      -6.279  -1.871   0.613  0.00  0.00    +0.275 C 
ATOM      7  O   UNL     1      -5.619  -2.323  -0.307  0.00  0.00    -0.268 OA
ATOM      8  C   UNL     1      -8.328  -3.108   0.228  0.00  0.00    +0.189 A 
ATOM      9  N   UNL     1      -8.010  -3.835  -0.819  0.00  0.00    -0.223 NA
ATOM     10  C   UNL     1      -8.876  -4.694  -1.396  0.00  0.00    +0.080 A 
ATOM     11  C   UNL     1      -8.661  -5.528  -2.518  0.00  0.00    +0.029 A 
ATOM     12  C   UNL     1      -9.656  -6.348  -2.982  0.00  0.00    +0.002 A 
ATOM     13  C   UNL     1     -10.902  -6.392  -2.373  0.00  0.00    +0.001 A 
ATOM     14  C   UNL     1     -11.147  -5.591  -1.273  0.00  0.00    +0.017 A 
ATOM     15  C   UNL     1     -10.157  -4.765  -0.802  0.00  0.00    +0.041 A 
ATOM     16  S   UNL     1     -10.017  -3.606   0.537  0.00  0.00    -0.050 S 
ENDROOT
BRANCH   3  17
ATOM     17  C   UNL     1      -7.067   0.235   3.615  0.00  0.00    +0.003 A 
ATOM     18  C   UNL     1      -6.301   1.401   3.619  0.00  0.00    +0.010 A 
ATOM     19  C   UNL     1      -6.360   2.257   4.700  0.00  0.00    +0.001 A 
ATOM     20  C   UNL     1      -7.176   1.962   5.777  0.00  0.00    +0.000 A 
ATOM     21  C   UNL     1      -7.938   0.807   5.778  0.00  0.00    +0.001 A 
ATOM     22  C   UNL     1      -7.892  -0.054   4.701  0.00  0.00    +0.010 A 
ENDBRANCH   3  17
BRANCH   1  23
ATOM     23  N   UNL     1      -3.698  -0.507   0.671  0.00  0.00    -0.346 N 
ATOM     24  H   UNL     1      -3.908  -1.089  -0.076  0.00  0.00    +0.146 HD
BRANCH  23  28
ATOM     25  C   UNL     1      -0.557   2.414  -0.325  0.00  0.00    -0.010 C 
ATOM     26  C   UNL     1      -0.419   0.913  -0.604  0.00  0.00    -0.072 C 
ATOM     27  C   UNL     1      -1.801   0.270  -0.658  0.00  0.00    +0.009 C 
ATOM     28  C   UNL     1      -2.384   0.142   0.749  0.00  0.00    +0.067 C 
ATOM     29  C   UNL     1      -1.440  -0.729   1.578  0.00  0.00    +0.009 C 
ATOM     30  C   UNL     1      -0.055  -0.094   1.649  0.00  0.00    -0.072 C 
ATOM     31  N   UNL     1       0.474   0.279   0.349  0.00  0.00    +0.386 N 
ATOM     32  C   UNL     1       0.903  -1.141   2.263  0.00  0.00    -0.010 C 
ATOM     33  C   UNL     1      -0.082   1.104   2.603  0.00  0.00    -0.010 C 
ATOM     34  C   UNL     1       0.212   0.770  -2.009  0.00  0.00    -0.010 C 
ATOM     35  H   UNL     1       0.866  -0.560  -0.090  0.00  0.00    -0.084 HD
ATOM     36  H   UNL     1       1.279   0.896   0.494  0.00  0.00    -0.084 HD
ENDBRANCH  23  28
ENDBRANCH   1  23
TORSDOF 3
