REMARK  Name = ZINC38972186
REMARK  16 active torsions:
REMARK  status: ('A' for Active; 'I' for Inactive)
REMARK    1  A    between atoms: C_1  and  C_2
REMARK    2  A    between atoms: C_3  and  C_37
REMARK    3  A    between atoms: C_4  and  C_14
REMARK    4  A    between atoms: C_7  and  O_9
REMARK    5  A    between atoms: O_9  and  C_10
REMARK    6  A    between atoms: C_11  and  C_13
REMARK    7  A    between atoms: C_16  and  N_24
REMARK    8  A    between atoms: C_19  and  O_20
REMARK    9  A    between atoms: O_20  and  C_21
REMARK   10  A    between atoms: N_26  and  C_27
REMARK   11  A    between atoms: C_27  and  C_29
REMARK   12  A    between atoms: C_27  and  C_30
REMARK   13  A    between atoms: C_30  and  C_31
REMARK   14  A    between atoms: C_30  and  C_32
REMARK   15  A    between atoms: C_30  and  C_33
REMARK   16  A    between atoms: N_34  and  C_35
REMARK                            x       y       z     vdW  Elec       q    Type
REMARK                         _______ _______ _______ _____ _____    ______ ____
ROOT
ATOM      1  C   UNL     1      -2.017  -3.079   0.970  0.00  0.00    +0.009 A 
ATOM      2  C   UNL     1      -1.561  -2.824   2.248  0.00  0.00    +0.034 A 
ATOM      3  C   UNL     1      -2.402  -3.011   3.336  0.00  0.00    +0.042 A 
ATOM      4  C   UNL     1      -3.703  -3.455   3.138  0.00  0.00    +0.029 A 
ATOM      5  C   UNL     1      -4.158  -3.711   1.860  0.00  0.00    +0.048 A 
ATOM      6  C   UNL     1      -3.318  -3.518   0.772  0.00  0.00    +0.131 A 
ENDROOT
BRANCH   1  10
ATOM      7  C   UNL     1       1.119   0.280  -0.189  0.00  0.00    +0.066 C 
ATOM      8  C   UNL     1       0.662  -1.157  -0.170  0.00  0.00    +0.053 C 
ATOM      9  C   UNL     1      -0.673  -1.421  -0.232  0.00  0.00    +0.062 C 
ATOM     10  C   UNL     1      -1.104  -2.876  -0.211  0.00  0.00    +0.103 C 
ATOM     11  C   UNL     1       0.017  -3.897  -0.121  0.00  0.00    +0.070 C 
ATOM     12  C   UNL     1      -0.241  -5.238  -0.095  0.00  0.00    +0.338 C 
ATOM     13  O   UNL     1      -1.513  -5.679  -0.015  0.00  0.00    -0.245 OA
ATOM     14  C   UNL     1       1.324  -3.403  -0.067  0.00  0.00    +0.049 C 
ATOM     15  N   UNL     1       1.575  -2.116  -0.097  0.00  0.00    -0.256 NA
ATOM     16  C   UNL     1       2.473  -4.374   0.024  0.00  0.00    +0.066 C 
BRANCH  12  17
ATOM     17  O   UNL     1       0.776  -6.121  -0.149  0.00  0.00    -0.465 OA
ATOM     18  C   UNL     1       0.434  -7.508  -0.118  0.00  0.00    +0.280 C 
ENDBRANCH  12  17
BRANCH   9  19
ATOM     19  C   UNL     1      -1.635  -0.363  -0.315  0.00  0.00    +0.098 C 
ATOM     20  N   UNL     1      -2.399   0.475  -0.380  0.00  0.00    -0.191 NA
ENDBRANCH   9  19
ENDBRANCH   1  10
BRANCH   3  21
ATOM     21  N   UNL     1      -1.940  -2.752   4.633  0.00  0.00    -0.325 N 
ATOM     22  C   UNL     1      -2.540  -3.361   5.711  0.00  0.00    +0.211 C 
ATOM     23  N   UNL     1      -3.651  -4.022   5.551  0.00  0.00    -0.248 NA
ATOM     24  N   UNL     1      -1.965  -3.270   6.962  0.00  0.00    -0.263 N 
ATOM     25  H   UNL     1      -1.197  -2.144   4.770  0.00  0.00    +0.169 HD
ATOM     26  H   UNL     1      -2.325  -3.786   7.700  0.00  0.00    +0.181 HD
BRANCH  23  27
ATOM     27  C   UNL     1      -4.398  -4.491   6.720  0.00  0.00    +0.111 C 
ATOM     28  C   UNL     1      -4.340  -6.019   6.783  0.00  0.00    +0.033 C 
BRANCH  27  29
ATOM     29  C   UNL     1      -5.856  -4.041   6.607  0.00  0.00    -0.016 C 
ATOM     30  C   UNL     1      -6.475  -4.628   5.337  0.00  0.00    +0.013 C 
ATOM     31  C   UNL     1      -6.637  -4.531   7.828  0.00  0.00    +0.013 C 
ATOM     32  C   UNL     1      -5.914  -2.513   6.544  0.00  0.00    +0.013 C 
ENDBRANCH  27  29
ENDBRANCH  23  27
BRANCH  24  33
ATOM     33  C   UNL     1      -0.897  -2.460   7.160  0.00  0.00    +0.184 C 
ATOM     34  N   UNL     1      -0.001  -1.781   7.325  0.00  0.00    -0.171 NA
ENDBRANCH  24  33
ENDBRANCH   3  21
BRANCH   6  35
ATOM     35  O   UNL     1      -3.769  -3.764  -0.487  0.00  0.00    -0.434 OA
BRANCH  35  36
ATOM     36  C   UNL     1      -5.119  -4.214  -0.616  0.00  0.00    +0.541 C 
ATOM     37  F   UNL     1      -5.280  -5.415   0.082  0.00  0.00    -0.166 F 
ATOM     38  F   UNL     1      -5.984  -3.249  -0.089  0.00  0.00    -0.166 F 
ENDBRANCH  35  36
ENDBRANCH   6  35
TORSDOF 9
