REMARK  Name = ZINC12374925
REMARK  6 active torsions:
REMARK  status: ('A' for Active; 'I' for Inactive)
REMARK    1  A    between atoms: C_3  and  C_6
REMARK    2  A    between atoms: C_8  and  C_31
REMARK    3  A    between atoms: C_10  and  S_12
REMARK    4  A    between atoms: S_12  and  C_13
REMARK    5  A    between atoms: C_13  and  C_14
REMARK    6  A    between atoms: C_21  and  N_64
REMARK                            x       y       z     vdW  Elec       q    Type
REMARK                         _______ _______ _______ _____ _____    ______ ____
ROOT
ATOM      1  C   UNL     1      -0.742   1.585  -1.213  0.00  0.00    +0.226 C 
ATOM      2  O   UNL     1      -1.736   2.268  -1.088  0.00  0.00    -0.275 OA
ATOM      3  N   UNL     1      -0.288   1.272  -2.443  0.00  0.00    -0.304 N 
ATOM      4  C   UNL     1       0.919   0.450  -2.616  0.00  0.00    +0.089 C 
ATOM      5  C   UNL     1       0.584  -0.702  -3.577  0.00  0.00    -0.059 C 
ATOM      6  C   UNL     1      -1.242   0.551  -4.568  0.00  0.00    -0.059 C 
ATOM      7  C   UNL     1      -0.985   1.749  -3.648  0.00  0.00    +0.089 C 
ATOM      8  N   UNL     1       0.045  -0.130  -4.830  0.00  0.00    +0.385 N 
ATOM      9  H   UNL     1       0.715   0.555  -5.199  0.00  0.00    -0.081 HD
ENDROOT
BRANCH   8  10
ATOM     10  C   UNL     1      -0.147  -1.201  -5.831  0.00  0.00    -0.065 C 
ATOM     11  C   UNL     1      -1.181  -2.216  -5.342  0.00  0.00    -0.009 C 
ATOM     12  C   UNL     1      -1.360  -3.311  -6.396  0.00  0.00    -0.012 C 
ATOM     13  C   UNL     1      -0.022  -4.016  -6.630  0.00  0.00    +0.007 C 
ATOM     14  C   UNL     1       1.012  -3.001  -7.119  0.00  0.00    -0.012 C 
ATOM     15  C   UNL     1       1.190  -1.907  -6.065  0.00  0.00    -0.009 C 
ATOM     16  C   UNL     1       0.531  -2.373  -8.429  0.00  0.00    +0.007 C 
ATOM     17  C   UNL     1      -0.806  -1.667  -8.195  0.00  0.00    -0.012 C 
ATOM     18  C   UNL     1      -1.841  -2.683  -7.706  0.00  0.00    +0.007 C 
ATOM     19  C   UNL     1      -0.628  -0.573  -7.141  0.00  0.00    -0.009 C 
ENDBRANCH   8  10
BRANCH   1  20
ATOM     20  C   UNL     1      -0.013   1.086   0.008  0.00  0.00    +0.173 C 
BRANCH  20  21
ATOM     21  S   UNL     1      -0.860   1.669   1.497  0.00  0.00    -0.077 S 
BRANCH  21  26
ATOM     22  C   UNL     1       0.647   0.639   4.971  0.00  0.00    +0.111 A 
ATOM     23  C   UNL     1       1.762  -0.128   4.608  0.00  0.00    +0.064 A 
ATOM     24  C   UNL     1       2.026  -0.310   3.264  0.00  0.00    +0.149 A 
ATOM     25  N   UNL     1       1.223   0.239   2.365  0.00  0.00    -0.218 NA
ATOM     26  C   UNL     1       0.174   0.961   2.735  0.00  0.00    +0.190 A 
ATOM     27  N   UNL     1      -0.114   1.166   4.011  0.00  0.00    -0.219 NA
BRANCH  22  30
ATOM     28  C   UNL     1      -0.653   1.536   8.273  0.00  0.00    +0.042 A 
ATOM     29  C   UNL     1      -0.726   1.590   6.868  0.00  0.00    +0.051 A 
ATOM     30  C   UNL     1       0.322   0.863   6.393  0.00  0.00    +0.153 A 
ATOM     31  O   UNL     1       1.015   0.389   7.447  0.00  0.00    -0.461 OA
ATOM     32  C   UNL     1       0.429   0.794   8.584  0.00  0.00    +0.196 A 
ENDBRANCH  22  30
BRANCH  24  33
ATOM     33  C   UNL     1       3.213  -1.128   2.826  0.00  0.00    +0.434 C 
ATOM     34  F   UNL     1       3.330  -1.070   1.433  0.00  0.00    -0.164 F 
ATOM     35  F   UNL     1       4.375  -0.614   3.412  0.00  0.00    -0.164 F 
ATOM     36  F   UNL     1       3.038  -2.457   3.225  0.00  0.00    -0.164 F 
ENDBRANCH  24  33
ENDBRANCH  21  26
ENDBRANCH  20  21
ENDBRANCH   1  20
TORSDOF 6
