REMARK  Name = ZINC35674363
REMARK  15 active torsions:
REMARK  status: ('A' for Active; 'I' for Inactive)
REMARK    1  A    between atoms: C_1  and  C_2
REMARK    2  A    between atoms: C_2  and  C_3
REMARK    3  A    between atoms: C_3  and  C_5
REMARK    4  A    between atoms: C_3  and  N_28
REMARK    5  A    between atoms: C_9  and  O_26
REMARK    6  A    between atoms: C_10  and  O_24
REMARK    7  A    between atoms: N_15  and  C_16
REMARK    8  A    between atoms: C_16  and  C_17
REMARK    9  A    between atoms: C_21  and  C_23
REMARK   10  A    between atoms: O_24  and  C_25
REMARK   11  A    between atoms: O_26  and  C_27
REMARK   12  A    between atoms: C_29  and  C_31
REMARK   13  A    between atoms: C_31  and  C_32
REMARK   14  A    between atoms: C_32  and  C_33
REMARK   15  A    between atoms: C_32  and  C_34
REMARK                            x       y       z     vdW  Elec       q    Type
REMARK                         _______ _______ _______ _____ _____    ______ ____
ROOT
ATOM      1  C   UNL     1       0.958  -2.422   0.933  0.00  0.00    -0.016 C 
ATOM      2  C   UNL     1       1.646  -2.936   2.170  0.00  0.00    -0.052 A 
ATOM      3  C   UNL     1       2.798  -2.293   2.601  0.00  0.00    +0.051 A 
ATOM      4  C   UNL     1       3.463  -2.733   3.731  0.00  0.00    +0.162 A 
ATOM      5  C   UNL     1       2.973  -3.827   4.439  0.00  0.00    +0.162 A 
ATOM      6  C   UNL     1       1.823  -4.464   4.006  0.00  0.00    +0.053 A 
ATOM      7  C   UNL     1       1.160  -4.018   2.873  0.00  0.00    -0.044 A 
ATOM      8  C   UNL     1      -0.094  -4.736   2.443  0.00  0.00    +0.017 C 
ATOM      9  C   UNL     1      -0.433  -4.365   0.998  0.00  0.00    -0.073 C 
ATOM     10  N   UNL     1      -0.427  -2.900   0.877  0.00  0.00    +0.388 N 
ATOM     11  H   UNL     1      -0.954  -2.495   1.637  0.00  0.00    -0.080 HD
ENDROOT
BRANCH   5  12
ATOM     12  O   UNL     1       3.621  -4.267   5.551  0.00  0.00    -0.491 OA
ATOM     13  C   UNL     1       3.059  -5.395   6.225  0.00  0.00    +0.277 C 
ENDBRANCH   5  12
BRANCH   4  14
ATOM     14  O   UNL     1       4.592  -2.099   4.149  0.00  0.00    -0.491 OA
ATOM     15  C   UNL     1       5.101  -1.061   3.310  0.00  0.00    +0.277 C 
ENDBRANCH   4  14
BRANCH   1  16
ATOM     16  C   UNL     1       0.963  -0.892   0.951  0.00  0.00    +0.063 C 
BRANCH  16  17
ATOM     17  N   UNL     1       0.518  -0.387  -0.350  0.00  0.00    -0.314 N 
ATOM     18  C   UNL     1       1.326  -0.485  -1.424  0.00  0.00    +0.213 C 
ATOM     19  O   UNL     1       2.384  -1.072  -1.335  0.00  0.00    -0.276 OA
ATOM     20  H   UNL     1      -0.359   0.018  -0.439  0.00  0.00    +0.149 HD
BRANCH  18  21
ATOM     21  C   UNL     1       0.916   0.135  -2.735  0.00  0.00    +0.098 C 
BRANCH  21  22
ATOM     22  C   UNL     1       1.925  -0.251  -3.819  0.00  0.00    -0.008 C 
ATOM     23  C   UNL     1       1.849  -1.758  -4.073  0.00  0.00    +0.008 C 
ATOM     24  C   UNL     1       1.598   0.501  -5.111  0.00  0.00    +0.008 C 
ENDBRANCH  21  22
ENDBRANCH  18  21
ENDBRANCH  16  17
BRANCH  16  26
ATOM     25  C   UNL     1       0.122   1.131   2.151  0.00  0.00    +0.005 C 
ATOM     26  C   UNL     1       0.017  -0.391   2.043  0.00  0.00    +0.017 C 
ENDBRANCH  16  26
ENDBRANCH   1  16
BRANCH  10  27
ATOM     27  C   UNL     1      -1.030  -2.510  -0.404  0.00  0.00    -0.042 C 
BRANCH  27  28
ATOM     28  C   UNL     1      -2.460  -2.984  -0.451  0.00  0.00    -0.064 A 
ATOM     29  C   UNL     1      -2.757  -4.239  -0.950  0.00  0.00    +0.002 A 
ATOM     30  C   UNL     1      -4.068  -4.673  -0.992  0.00  0.00    +0.000 A 
ATOM     31  C   UNL     1      -5.083  -3.853  -0.535  0.00  0.00    +0.003 A 
ATOM     32  C   UNL     1      -4.787  -2.599  -0.035  0.00  0.00    -0.050 A 
ATOM     33  C   UNL     1      -3.474  -2.167   0.011  0.00  0.00    +0.005 A 
ATOM     34  C   UNL     1      -5.893  -1.706   0.462  0.00  0.00    +0.044 C 
ENDBRANCH  27  28
ENDBRANCH  10  27
TORSDOF 9
