REMARK  Name = ZINC13500336
REMARK  13 active torsions:
REMARK  status: ('A' for Active; 'I' for Inactive)
REMARK    1  A    between atoms: C_1  and  C_2
REMARK    2  A    between atoms: C_5  and  C_8
REMARK    3  A    between atoms: C_8  and  N_9
REMARK    4  A    between atoms: N_9  and  C_10
REMARK    5  A    between atoms: N_9  and  C_24
REMARK    6  A    between atoms: C_10  and  C_11
REMARK    7  A    between atoms: C_17  and  C_23
REMARK    8  A    between atoms: C_24  and  C_26
REMARK    9  A    between atoms: C_24  and  C_37
REMARK   10  A    between atoms: N_30  and  C_31
REMARK   11  A    between atoms: C_31  and  C_32
REMARK   12  A    between atoms: C_37  and  C_38
REMARK   13  A    between atoms: C_37  and  C_39
REMARK                            x       y       z     vdW  Elec       q    Type
REMARK                         _______ _______ _______ _____ _____    ______ ____
ROOT
ATOM      1  N   UNL     1       1.682  -4.760  -0.262  0.00  0.00    -0.284 NA
ENDROOT
BRANCH   1   2
ATOM      2  C   UNL     1       0.213  -4.799  -0.251  0.00  0.00    +0.120 C 
BRANCH   2   7
ATOM      3  C   UNL     1      -1.864   0.561  -0.838  0.00  0.00    +0.044 C 
ATOM      4  C   UNL     1      -1.322  -0.837  -0.685  0.00  0.00    -0.050 A 
ATOM      5  C   UNL     1      -0.967  -1.567  -1.804  0.00  0.00    +0.003 A 
ATOM      6  C   UNL     1      -0.470  -2.849  -1.663  0.00  0.00    +0.005 A 
ATOM      7  C   UNL     1      -0.327  -3.401  -0.404  0.00  0.00    -0.033 A 
ATOM      8  C   UNL     1      -0.682  -2.671   0.715  0.00  0.00    +0.005 A 
ATOM      9  C   UNL     1      -1.175  -1.387   0.575  0.00  0.00    +0.003 A 
ENDBRANCH   2   7
ENDBRANCH   1   2
BRANCH   1  10
ATOM     10  C   UNL     1       2.243  -6.109  -0.412  0.00  0.00    +0.126 C 
BRANCH  10  11
ATOM     11  C   UNL     1       2.133  -6.543  -1.851  0.00  0.00    +0.031 A 
ATOM     12  C   UNL     1       3.183  -6.369  -2.691  0.00  0.00    +0.020 A 
ATOM     13  C   UNL     1       3.043  -6.800  -4.083  0.00  0.00    -0.001 A 
ATOM     14  C   UNL     1       4.092  -6.647  -4.997  0.00  0.00    +0.010 A 
ATOM     15  C   UNL     1       3.930  -7.061  -6.288  0.00  0.00    +0.001 A 
ATOM     16  C   UNL     1       2.734  -7.632  -6.703  0.00  0.00    +0.005 A 
ATOM     17  C   UNL     1       1.688  -7.792  -5.821  0.00  0.00    -0.026 A 
ATOM     18  C   UNL     1       1.830  -7.379  -4.500  0.00  0.00    +0.052 A 
ATOM     19  N   UNL     1       0.800  -7.528  -3.595  0.00  0.00    -0.322 N 
ATOM     20  H   UNL     1      -0.036  -7.927  -3.884  0.00  0.00    +0.169 HD
ATOM     21  C   UNL     1       0.939  -7.133  -2.318  0.00  0.00    +0.254 A 
ATOM     22  O   UNL     1       0.009  -7.285  -1.544  0.00  0.00    -0.268 OA
ATOM     23  C   UNL     1       0.395  -8.412  -6.285  0.00  0.00    +0.046 C 
ENDBRANCH  10  11
ENDBRANCH   1  10
BRANCH   1  24
ATOM     24  C   UNL     1       2.200  -4.106   0.947  0.00  0.00    +0.130 C 
BRANCH  24  25
ATOM     25  C   UNL     1       3.566  -3.536   0.663  0.00  0.00    +0.169 A 
ATOM     26  N   UNL     1       4.622  -4.200   0.261  0.00  0.00    -0.112 NA
ATOM     27  N   UNL     1       5.593  -3.362   0.131  0.00  0.00    -0.023 NA
ATOM     28  N   UNL     1       5.183  -2.182   0.440  0.00  0.00    -0.043 NA
ATOM     29  N   UNL     1       3.937  -2.247   0.769  0.00  0.00    -0.220 N 
BRANCH  29  30
ATOM     30  C   UNL     1       3.087  -1.128   1.183  0.00  0.00    +0.221 C 
BRANCH  30  31
ATOM     31  C   UNL     1       3.288  -0.861   2.652  0.00  0.00    +0.126 A 
ATOM     32  C   UNL     1       4.142   0.035   3.179  0.00  0.00    +0.046 A 
ATOM     33  C   UNL     1       4.005  -0.046   4.584  0.00  0.00    +0.041 A 
ATOM     34  C   UNL     1       3.075  -0.986   4.831  0.00  0.00    +0.195 A 
ATOM     35  O   UNL     1       2.640  -1.472   3.657  0.00  0.00    -0.466 OA
ENDBRANCH  30  31
ENDBRANCH  29  30
ENDBRANCH  24  25
BRANCH  24  36
ATOM     36  C   UNL     1       2.299  -5.130   2.079  0.00  0.00    +0.008 C 
ATOM     37  C   UNL     1       2.972  -4.485   3.293  0.00  0.00    +0.009 C 
ATOM     38  C   UNL     1       0.896  -5.602   2.464  0.00  0.00    +0.009 C 
ENDBRANCH  24  36
ENDBRANCH   1  24
TORSDOF 9
