REMARK  Name = ZINC14094979
REMARK  9 active torsions:
REMARK  status: ('A' for Active; 'I' for Inactive)
REMARK    1  A    between atoms: C_1  and  C_2
REMARK    2  A    between atoms: C_2  and  C_28
REMARK    3  A    between atoms: N_5  and  C_9
REMARK    4  A    between atoms: C_9  and  C_10
REMARK    5  A    between atoms: N_12  and  C_13
REMARK    6  A    between atoms: C_17  and  S_19
REMARK    7  A    between atoms: S_19  and  N_22
REMARK    8  A    between atoms: C_28  and  C_29
REMARK    9  A    between atoms: C_29  and  C_30
REMARK                            x       y       z     vdW  Elec       q    Type
REMARK                         _______ _______ _______ _____ _____    ______ ____
ROOT
ATOM      1  C   UNL     1      -2.586  -3.390   1.258  0.00  0.00    +0.235 C 
ATOM      2  O   UNL     1      -1.713  -3.756   0.500  0.00  0.00    -0.274 OA
ATOM      3  N   UNL     1      -3.573  -4.239   1.608  0.00  0.00    -0.284 N 
ATOM      4  H   UNL     1      -4.233  -3.970   2.266  0.00  0.00    +0.155 HD
ENDROOT
BRANCH   3   5
ATOM      5  C   UNL     1      -3.646  -5.507   1.021  0.00  0.00    +0.035 A 
ATOM      6  C   UNL     1      -4.883  -6.079   0.753  0.00  0.00    +0.023 A 
ATOM      7  C   UNL     1      -4.952  -7.331   0.174  0.00  0.00    +0.004 A 
ATOM      8  C   UNL     1      -3.791  -8.015  -0.138  0.00  0.00    +0.029 A 
ATOM      9  C   UNL     1      -2.558  -7.448   0.128  0.00  0.00    +0.114 A 
ATOM     10  C   UNL     1      -2.483  -6.193   0.701  0.00  0.00    +0.052 A 
BRANCH   9  11
ATOM     11  S   UNL     1      -1.082  -8.324  -0.271  0.00  0.00    +0.100 S 
ATOM     12  O   UNL     1      -0.064  -7.810   0.576  0.00  0.00    -0.146 OA
ATOM     13  O   UNL     1      -1.424  -9.703  -0.303  0.00  0.00    -0.146 OA
BRANCH  11  14
ATOM     14  N   UNL     1      -0.667  -7.904  -1.818  0.00  0.00    -0.118 NA
ATOM     15  C   UNL     1       0.391  -8.410  -2.364  0.00  0.00    +0.117 C 
ATOM     16  N   UNL     1       1.238  -9.305  -1.766  0.00  0.00    -0.331 N 
ATOM     17  C   UNL     1       2.007 -10.011  -2.803  0.00  0.00    +0.103 C 
ATOM     18  C   UNL     1       2.134  -8.988  -3.953  0.00  0.00    +0.026 C 
ATOM     19  C   UNL     1       0.879  -8.111  -3.764  0.00  0.00    +0.074 C 
ATOM     20  H   UNL     1       1.317  -9.450  -0.810  0.00  0.00    +0.147 HD
ENDBRANCH  11  14
ENDBRANCH   9  11
ENDBRANCH   3   5
BRANCH   1  21
ATOM     21  C   UNL     1      -2.566  -1.989   1.811  0.00  0.00    +0.214 C 
BRANCH  21  26
ATOM     22  C   UNL     1      -0.021   1.530   0.019  0.00  0.00    +0.041 C 
ATOM     23  C   UNL     1      -0.002   0.000   0.003  0.00  0.00    +0.110 C 
ATOM     24  C   UNL     1      -1.407  -0.552   0.145  0.00  0.00    +0.247 C 
ATOM     25  O   UNL     1      -2.340  -0.382  -0.609  0.00  0.00    -0.273 OA
ATOM     26  N   UNL     1      -1.401  -1.272   1.284  0.00  0.00    -0.215 N 
ATOM     27  C   UNL     1      -0.201  -1.252   1.875  0.00  0.00    +0.310 C 
ATOM     28  O   UNL     1       0.050  -1.829   2.915  0.00  0.00    -0.252 OA
ATOM     29  N   UNL     1       0.697  -0.522   1.190  0.00  0.00    -0.285 N 
ATOM     30  H   UNL     1       1.624  -0.369   1.430  0.00  0.00    +0.151 HD
BRANCH  23  31
ATOM     31  C   UNL     1       0.655  -0.515  -1.279  0.00  0.00    +0.039 C 
BRANCH  31  32
ATOM     32  C   UNL     1       2.124  -0.090  -1.305  0.00  0.00    +0.037 C 
BRANCH  32  33
ATOM     33  C   UNL     1       2.772  -0.597  -2.568  0.00  0.00    -0.047 A 
ATOM     34  C   UNL     1       3.367  -1.845  -2.586  0.00  0.00    +0.003 A 
ATOM     35  C   UNL     1       3.961  -2.310  -3.745  0.00  0.00    +0.000 A 
ATOM     36  C   UNL     1       3.959  -1.528  -4.885  0.00  0.00    +0.000 A 
ATOM     37  C   UNL     1       3.363  -0.281  -4.866  0.00  0.00    +0.000 A 
ATOM     38  C   UNL     1       2.765   0.183  -3.709  0.00  0.00    +0.003 A 
ENDBRANCH  32  33
ENDBRANCH  31  32
ENDBRANCH  23  31
ENDBRANCH  21  26
ENDBRANCH   1  21
TORSDOF 8
