REMARK  Name = ZINC63623067
REMARK  12 active torsions:
REMARK  status: ('A' for Active; 'I' for Inactive)
REMARK    1  A    between atoms: C_1  and  C_2
REMARK    2  A    between atoms: C_5  and  C_21
REMARK    3  A    between atoms: C_6  and  C_20
REMARK    4  A    between atoms: N_8  and  C_9
REMARK    5  A    between atoms: C_11  and  N_17
REMARK    6  A    between atoms: C_14  and  O_15
REMARK    7  A    between atoms: O_15  and  C_16
REMARK    8  A    between atoms: C_22  and  C_23
REMARK    9  A    between atoms: C_22  and  C_25
REMARK   10  A    between atoms: N_27  and  C_28
REMARK   11  A    between atoms: C_28  and  C_29
REMARK   12  A    between atoms: C_29  and  C_30
REMARK                            x       y       z     vdW  Elec       q    Type
REMARK                         _______ _______ _______ _____ _____    ______ ____
ROOT
ATOM      1  C   UNL     1       2.819  -1.791  -1.768  0.00  0.00    +0.029 C 
ATOM      2  C   UNL     1       2.396  -2.627  -2.781  0.00  0.00    +0.114 C 
ENDROOT
BRANCH   1   6
ATOM      3  C   UNL     1       0.506   2.084  -0.579  0.00  0.00    +0.032 C 
ATOM      4  C   UNL     1       0.232   0.579  -0.602  0.00  0.00    +0.094 C 
ATOM      5  C   UNL     1       1.083  -0.081  -1.654  0.00  0.00    +0.000 C 
ATOM      6  C   UNL     1       1.884  -0.981  -1.083  0.00  0.00    -0.028 C 
ATOM      7  C   UNL     1       1.641  -1.005   0.403  0.00  0.00    +0.101 C 
ATOM      8  N   UNL     1       0.592  -0.014   0.693  0.00  0.00    -0.314 N 
ATOM      9  C   UNL     1       1.175  -2.397   0.832  0.00  0.00    +0.033 C 
BRANCH   8  10
ATOM     10  C   UNL     1       0.049   0.301   1.944  0.00  0.00    +0.075 A 
ATOM     11  C   UNL     1      -1.057  -0.391   2.416  0.00  0.00    +0.059 A 
ATOM     12  C   UNL     1      -1.591  -0.078   3.652  0.00  0.00    +0.128 A 
ATOM     13  C   UNL     1      -1.026   0.923   4.420  0.00  0.00    +0.036 A 
ATOM     14  C   UNL     1       0.076   1.617   3.955  0.00  0.00    +0.050 A 
ATOM     15  C   UNL     1       0.622   1.306   2.721  0.00  0.00    +0.141 A 
BRANCH  12  16
ATOM     16  N   UNL     1      -2.772  -0.816   4.154  0.00  0.00    +0.056 N 
ATOM     17  O   UNL     1      -3.267  -1.691   3.483  0.00  0.00    -0.126 OA
ATOM     18  O   UNL     1      -3.240  -0.544   5.234  0.00  0.00    -0.126 OA
ENDBRANCH  12  16
BRANCH  15  19
ATOM     19  O   UNL     1       1.710   1.983   2.266  0.00  0.00    -0.493 OA
ATOM     20  C   UNL     1       2.243   3.000   3.116  0.00  0.00    +0.277 C 
ENDBRANCH  15  19
ENDBRANCH   8  10
ENDBRANCH   1   6
BRANCH   2  21
ATOM     21  C   UNL     1       0.958  -2.820  -3.023  0.00  0.00    +0.254 C 
ATOM     22  O   UNL     1       0.142  -2.315  -2.275  0.00  0.00    -0.269 OA
ATOM     23  N   UNL     1       0.544  -3.556  -4.073  0.00  0.00    -0.310 N 
ATOM     24  H   UNL     1       1.194  -3.959  -4.670  0.00  0.00    +0.149 HD
BRANCH  23  25
ATOM     25  C   UNL     1      -0.888  -3.748  -4.314  0.00  0.00    +0.109 C 
BRANCH  25  26
ATOM     26  C   UNL     1      -1.084  -4.616  -5.559  0.00  0.00    +0.052 C 
BRANCH  26  27
ATOM     27  C   UNL     1      -2.557  -4.813  -5.807  0.00  0.00    -0.040 C 
ATOM     28  C   UNL     1      -3.347  -4.091  -6.635  0.00  0.00    -0.001 A 
ATOM     29  C   UNL     1      -3.080  -2.949  -7.517  0.00  0.00    +0.010 A 
ATOM     30  C   UNL     1      -4.098  -2.427  -8.239  0.00  0.00    +0.001 A 
ATOM     31  C   UNL     1      -5.397  -2.948  -8.167  0.00  0.00    +0.002 A 
ATOM     32  C   UNL     1      -5.719  -3.996  -7.379  0.00  0.00    +0.026 A 
ATOM     33  C   UNL     1      -4.727  -4.624  -6.576  0.00  0.00    +0.043 A 
ATOM     34  N   UNL     1      -4.788  -5.636  -5.745  0.00  0.00    -0.380 N 
ATOM     35  C   UNL     1      -3.451  -5.864  -5.186  0.00  0.00    +0.144 C 
ATOM     36  H   UNL     1      -5.584  -6.150  -5.537  0.00  0.00    +0.160 HD
ENDBRANCH  26  27
ENDBRANCH  25  26
ENDBRANCH  23  25
ENDBRANCH   2  21
BRANCH   2  37
ATOM     37  C   UNL     1       3.357  -3.307  -3.596  0.00  0.00    +0.104 C 
ATOM     38  N   UNL     1       4.119  -3.847  -4.243  0.00  0.00    -0.191 NA
ENDBRANCH   2  37
TORSDOF 9
