REMARK  Name = ZINC35742423
REMARK  11 active torsions:
REMARK  status: ('A' for Active; 'I' for Inactive)
REMARK    1  A    between atoms: C_1  and  C_2
REMARK    2  A    between atoms: C_2  and  C_3
REMARK    3  A    between atoms: C_3  and  N_4
REMARK    4  A    between atoms: N_7  and  C_8
REMARK    5  A    between atoms: N_7  and  C_15
REMARK    6  A    between atoms: C_8  and  C_9
REMARK    7  A    between atoms: C_9  and  N_10
REMARK    8  A    between atoms: C_15  and  C_16
REMARK    9  A    between atoms: C_26  and  C_28
REMARK   10  A    between atoms: C_28  and  O_29
REMARK   11  A    between atoms: O_29  and  C_30
REMARK                            x       y       z     vdW  Elec       q    Type
REMARK                         _______ _______ _______ _____ _____    ______ ____
ROOT
ATOM      1  C   UNL     1      -4.257  -5.035  -1.405  0.00  0.00    +0.234 C 
ATOM      2  O   UNL     1      -3.588  -4.627  -2.331  0.00  0.00    -0.274 OA
ATOM      3  N   UNL     1      -5.398  -5.712  -1.644  0.00  0.00    -0.289 N 
ATOM      4  C   UNL     1      -6.219  -6.206  -0.529  0.00  0.00    +0.114 C 
ATOM      5  C   UNL     1      -6.221  -7.742  -0.575  0.00  0.00    +0.061 C 
ATOM      6  C   UNL     1      -6.397  -8.178  -1.993  0.00  0.00    -0.004 A 
ATOM      7  C   UNL     1      -6.236  -7.437  -3.122  0.00  0.00    -0.014 A 
ATOM      8  C   UNL     1      -6.455  -8.088  -4.335  0.00  0.00    +0.013 A 
ATOM      9  C   UNL     1      -6.816  -9.392  -4.347  0.00  0.00    +0.046 A 
ATOM     10  S   UNL     1      -6.864  -9.777  -2.603  0.00  0.00    -0.101 S 
ATOM     11  C   UNL     1      -5.841  -5.961  -3.023  0.00  0.00    +0.144 C 
ENDROOT
BRANCH   1  12
ATOM     12  C   UNL     1      -3.812  -4.785   0.013  0.00  0.00    +0.205 C 
BRANCH  12  16
ATOM     13  N   UNL     1      -1.413  -1.998   0.005  0.00  0.00    -0.299 N 
ATOM     14  C   UNL     1      -2.571  -2.688   0.012  0.00  0.00    +0.303 C 
ATOM     15  O   UNL     1      -3.632  -2.095   0.025  0.00  0.00    -0.253 OA
ATOM     16  N   UNL     1      -2.553  -4.036   0.005  0.00  0.00    -0.279 N 
ATOM     17  H   UNL     1      -0.567  -2.472  -0.006  0.00  0.00    +0.150 HD
BRANCH  13  18
ATOM     18  C   UNL     1      -1.433  -0.534   0.013  0.00  0.00    +0.105 C 
BRANCH  18  20
ATOM     19  C   UNL     1      -0.019   1.526   0.010  0.00  0.00    +0.005 C 
ATOM     20  C   UNL     1       0.002  -0.004   0.002  0.00  0.00    +0.015 C 
ENDBRANCH  18  20
ENDBRANCH  13  18
BRANCH  16  21
ATOM     21  C   UNL     1      -1.275  -4.751  -0.011  0.00  0.00    +0.091 C 
BRANCH  21  22
ATOM     22  C   UNL     1      -0.816  -5.008   1.425  0.00  0.00    -0.060 C 
BRANCH  22  23
ATOM     23  N   UNL     1       0.466  -5.725   1.409  0.00  0.00    +0.381 N 
ATOM     24  C   UNL     1       1.542  -4.839   0.896  0.00  0.00    -0.079 C 
ATOM     25  C   UNL     1       2.833  -5.488   1.454  0.00  0.00    -0.020 C 
ATOM     26  C   UNL     1       2.399  -5.968   2.859  0.00  0.00    -0.020 C 
ATOM     27  C   UNL     1       0.865  -6.087   2.787  0.00  0.00    -0.079 C 
ATOM     28  H   UNL     1       0.395  -6.554   0.839  0.00  0.00    -0.082 HD
ENDBRANCH  22  23
ENDBRANCH  21  22
ENDBRANCH  16  21
ENDBRANCH  12  16
ENDBRANCH   1  12
BRANCH  11  29
ATOM     29  C   UNL     1      -7.046  -5.075  -3.347  0.00  0.00    +0.256 C 
BRANCH  29  30
ATOM     30  O   UNL     1      -8.151  -5.454  -2.524  0.00  0.00    -0.490 OA
BRANCH  30  31
ATOM     31  C   UNL     1      -9.309  -4.760  -2.688  0.00  0.00    +0.121 A 
ATOM     32  C   UNL     1      -9.380  -3.741  -3.625  0.00  0.00    +0.048 A 
ATOM     33  C   UNL     1     -10.557  -3.037  -3.791  0.00  0.00    +0.042 A 
ATOM     34  C   UNL     1     -11.665  -3.348  -3.021  0.00  0.00    +0.124 A 
ATOM     35  C   UNL     1     -11.595  -4.365  -2.084  0.00  0.00    +0.042 A 
ATOM     36  C   UNL     1     -10.421  -5.075  -1.921  0.00  0.00    +0.048 A 
ATOM     37  F   UNL     1     -12.816  -2.659  -3.183  0.00  0.00    -0.205 F 
ENDBRANCH  30  31
ENDBRANCH  29  30
ENDBRANCH  11  29
TORSDOF 10
