REMARK  Name = ZINC24487796
REMARK  8 active torsions:
REMARK  status: ('A' for Active; 'I' for Inactive)
REMARK    1  A    between atoms: C_1  and  C_2
REMARK    2  A    between atoms: C_2  and  C_4
REMARK    3  A    between atoms: C_2  and  O_16
REMARK    4  A    between atoms: N_6  and  C_7
REMARK    5  A    between atoms: O_16  and  C_17
REMARK    6  A    between atoms: C_17  and  C_19
REMARK    7  A    between atoms: C_21  and  S_26
REMARK    8  A    between atoms: S_26  and  N_29
REMARK                            x       y       z     vdW  Elec       q    Type
REMARK                         _______ _______ _______ _____ _____    ______ ____
ROOT
ATOM      1  O   UNL     1      -2.446  -0.103   0.041  0.00  0.00    -0.449 OA
ENDROOT
BRANCH   1   3
ATOM      2  C   UNL     1      -4.066  -1.198   1.492  0.00  0.00    +0.062 C 
ATOM      3  C   UNL     1      -3.650  -0.914   0.047  0.00  0.00    +0.259 C 
BRANCH   3   4
ATOM      4  C   UNL     1      -4.757  -0.175  -0.659  0.00  0.00    +0.258 C 
ATOM      5  O   UNL     1      -4.552   0.927  -1.122  0.00  0.00    -0.271 OA
ATOM      6  N   UNL     1      -5.976  -0.738  -0.776  0.00  0.00    -0.281 N 
ATOM      7  H   UNL     1      -6.138  -1.773  -0.439  0.00  0.00    +0.155 HD
BRANCH   6   8
ATOM      8  C   UNL     1      -7.035  -0.007  -1.328  0.00  0.00    +0.053 A 
ATOM      9  C   UNL     1      -7.021   1.380  -1.281  0.00  0.00    +0.046 A 
ATOM     10  C   UNL     1      -8.066   2.099  -1.831  0.00  0.00    +0.061 A 
ATOM     11  C   UNL     1      -9.131   1.436  -2.419  0.00  0.00    +0.061 A 
ATOM     12  C   UNL     1      -9.149   0.054  -2.462  0.00  0.00    +0.043 A 
ATOM     13  C   UNL     1      -8.105  -0.670  -1.918  0.00  0.00    +0.064 A 
ATOM     14 CL   UNL     1      -8.128  -2.405  -1.973  0.00  0.00    -0.082 Cl
ATOM     15 CL   UNL     1     -10.444   2.342  -3.103  0.00  0.00    -0.082 Cl
ATOM     16 CL   UNL     1      -8.047   3.834  -1.778  0.00  0.00    -0.082 Cl
ENDBRANCH   6   8
ENDBRANCH   3   4
ENDBRANCH   1   3
BRANCH   1  17
ATOM     17  C   UNL     1      -1.268  -0.756   0.036  0.00  0.00    +0.343 C 
ATOM     18  O   UNL     1      -1.247  -1.971   0.037  0.00  0.00    -0.245 OA
BRANCH  17  19
ATOM     19  C   UNL     1      -0.003   0.003   0.030  0.00  0.00    +0.096 A 
ATOM     20  C   UNL     1      -0.022   1.400   0.029  0.00  0.00    +0.046 A 
ATOM     21  C   UNL     1       1.163   2.103   0.024  0.00  0.00    +0.106 A 
ATOM     22  C   UNL     1       2.373   1.430   0.019  0.00  0.00    +0.031 A 
ATOM     23  C   UNL     1       2.404   0.048   0.020  0.00  0.00    +0.041 A 
ATOM     24  C   UNL     1       1.223  -0.672   0.025  0.00  0.00    +0.137 A 
ATOM     25  F   UNL     1       1.252  -2.023   0.027  0.00  0.00    -0.205 F 
BRANCH  21  26
ATOM     26  S   UNL     1       1.139   3.865   0.022  0.00  0.00    +0.056 S 
ATOM     27  O   UNL     1       2.377   4.288  -0.534  0.00  0.00    -0.153 OA
ATOM     28  O   UNL     1      -0.114   4.254  -0.523  0.00  0.00    -0.153 OA
BRANCH  26  29
ATOM     29  N   UNL     1       1.139   4.356   1.604  0.00  0.00    -0.204 NA
ATOM     30  H   UNL     1       1.124   5.455   1.647  0.00  0.00    +0.144 HD
ATOM     31  H   UNL     1       2.045   3.982   2.104  0.00  0.00    +0.144 HD
ENDBRANCH  26  29
ENDBRANCH  21  26
ENDBRANCH  17  19
ENDBRANCH   1  17
TORSDOF 7
