REMARK  Name = ZINC09442523
REMARK  10 active torsions:
REMARK  status: ('A' for Active; 'I' for Inactive)
REMARK    1  A    between atoms: C_1  and  N_51
REMARK    2  A    between atoms: C_2  and  N_51
REMARK    3  A    between atoms: C_3  and  C_5
REMARK    4  A    between atoms: C_3  and  C_27
REMARK    5  A    between atoms: C_3  and  N_51
REMARK    6  A    between atoms: C_5  and  N_6
REMARK    7  A    between atoms: C_7  and  C_9
REMARK    8  A    between atoms: C_14  and  C_15
REMARK    9  A    between atoms: C_15  and  C_17
REMARK   10  A    between atoms: C_21  and  N_23
REMARK                            x       y       z     vdW  Elec       q    Type
REMARK                         _______ _______ _______ _____ _____    ______ ____
ROOT
ATOM      1  C   UNL     1      -1.350   0.216   0.108  0.00  0.00    +0.047 A 
ATOM      2  C   UNL     1      -2.539   0.917   0.293  0.00  0.00    +0.014 A 
ATOM      3  C   UNL     1      -3.751   0.264   0.175  0.00  0.00    +0.001 A 
ATOM      4  C   UNL     1      -3.794  -1.086  -0.126  0.00  0.00    +0.001 A 
ATOM      5  C   UNL     1      -2.624  -1.798  -0.313  0.00  0.00    +0.012 A 
ATOM      6  C   UNL     1      -1.393  -1.156  -0.204  0.00  0.00    +0.034 A 
ENDROOT
BRANCH   1   8
ATOM      7  N   UNL     1      -0.014   2.246   0.411  0.00  0.00    -0.312 N 
ATOM      8  C   UNL     1      -0.050   0.911   0.232  0.00  0.00    +0.245 C 
ATOM      9  O   UNL     1       0.986   0.278   0.172  0.00  0.00    -0.270 OA
ATOM     10  H   UNL     1      -0.840   2.752   0.454  0.00  0.00    +0.149 HD
BRANCH   7  11
ATOM     11  C   UNL     1       1.274   2.934   0.533  0.00  0.00    +0.097 C 
BRANCH  11  12
ATOM     12  C   UNL     1       1.035   4.433   0.728  0.00  0.00    +0.016 C 
BRANCH  12  13
ATOM     13  C   UNL     1       2.357   5.156   0.731  0.00  0.00    +0.093 A 
ATOM     14  C   UNL     1       2.964   5.680   1.811  0.00  0.00    +0.043 A 
ATOM     15  C   UNL     1       4.172   6.260   1.360  0.00  0.00    +0.041 A 
ATOM     16  C   UNL     1       4.231   6.056   0.032  0.00  0.00    +0.195 A 
ATOM     17  O   UNL     1       3.131   5.382  -0.343  0.00  0.00    -0.469 OA
ENDBRANCH  12  13
BRANCH  12  20
ATOM     18  C   UNL     1      -0.021   6.388  -0.235  0.00  0.00    -0.096 C 
ATOM     19  C   UNL     1       0.793   4.619  -1.675  0.00  0.00    -0.096 C 
ATOM     20  N   UNL     1       0.175   4.929  -0.368  0.00  0.00    +0.384 N 
ATOM     21  H   UNL     1      -0.738   4.463  -0.312  0.00  0.00    -0.082 HD
ENDBRANCH  12  20
ENDBRANCH  11  12
ENDBRANCH   7  11
ENDBRANCH   1   8
BRANCH   6  22
ATOM     22  C   UNL     1      -0.139  -1.911  -0.410  0.00  0.00    +0.194 C 
ATOM     23  O   UNL     1       0.278  -2.647   0.463  0.00  0.00    -0.287 OA
BRANCH  22  24
ATOM     24  C   UNL     1       0.607  -1.772  -1.676  0.00  0.00    +0.025 A 
ATOM     25  C   UNL     1       0.173  -0.870  -2.651  0.00  0.00    +0.013 A 
ATOM     26  C   UNL     1       0.878  -0.740  -3.829  0.00  0.00    +0.023 A 
ATOM     27  C   UNL     1       2.008  -1.511  -4.052  0.00  0.00    +0.071 A 
ATOM     28  C   UNL     1       2.440  -2.412  -3.092  0.00  0.00    +0.145 A 
ATOM     29  C   UNL     1       1.747  -2.546  -1.908  0.00  0.00    +0.046 A 
ATOM     30 CL   UNL     1       2.886  -1.346  -5.540  0.00  0.00    -0.081 Cl
BRANCH  28  31
ATOM     31  N   UNL     1       3.648  -3.231  -3.339  0.00  0.00    +0.058 N 
ATOM     32  O   UNL     1       4.029  -4.023  -2.496  0.00  0.00    -0.126 OA
ATOM     33  O   UNL     1       4.260  -3.113  -4.385  0.00  0.00    -0.126 OA
ENDBRANCH  28  31
ENDBRANCH  22  24
ENDBRANCH   6  22
TORSDOF 8
