REMARK  Name = ZINC02135475
REMARK  4 active torsions:
REMARK  status: ('A' for Active; 'I' for Inactive)
REMARK    1  A    between atoms: C_1  and  C_2
REMARK    2  A    between atoms: C_5  and  C_8
REMARK    3  A    between atoms: N_26  and  C_29
REMARK    4  A    between atoms: C_34  and  C_35
REMARK                            x       y       z     vdW  Elec       q    Type
REMARK                         _______ _______ _______ _____ _____    ______ ____
ROOT
ATOM      1  C   UNL     1       2.533   5.988  -1.692  0.00  0.00    +0.155 C 
ATOM      2  C   UNL     1       2.898   7.296  -1.018  0.00  0.00    +0.046 A 
ATOM      3  C   UNL     1       2.537   7.613   0.244  0.00  0.00    -0.015 A 
ATOM      4  C   UNL     1       3.083   8.930   0.515  0.00  0.00    +0.003 A 
ATOM      5  C   UNL     1       3.036   9.758   1.641  0.00  0.00    +0.010 A 
ATOM      6  C   UNL     1       3.676  10.969   1.547  0.00  0.00    +0.001 A 
ATOM      7  C   UNL     1       4.339  11.364   0.396  0.00  0.00    +0.002 A 
ATOM      8  C   UNL     1       4.400  10.564  -0.732  0.00  0.00    +0.026 A 
ATOM      9  C   UNL     1       3.760   9.328  -0.665  0.00  0.00    +0.047 A 
ATOM     10  N   UNL     1       3.627   8.315  -1.570  0.00  0.00    -0.356 N 
ATOM     11  H   UNL     1       3.993   8.317  -2.468  0.00  0.00    +0.166 HD
ATOM     12  C   UNL     1       1.721   6.750   1.173  0.00  0.00    +0.069 C 
ATOM     13  C   UNL     1       1.761   5.297   0.685  0.00  0.00    +0.170 C 
ATOM     14  N   UNL     1       1.614   5.282  -0.787  0.00  0.00    -0.260 N 
ATOM     15  C   UNL     1       0.513   4.582  -1.069  0.00  0.00    +0.317 C 
ATOM     16  O   UNL     1       0.138   4.334  -2.198  0.00  0.00    -0.252 OA
ATOM     17  N   UNL     1      -0.132   4.187   0.038  0.00  0.00    -0.192 N 
ATOM     18  C   UNL     1       0.519   4.568   1.156  0.00  0.00    +0.248 C 
ATOM     19  O   UNL     1       0.179   4.368   2.303  0.00  0.00    -0.273 OA
ENDROOT
BRANCH   1  24
ATOM     20  C   UNL     1      -0.023   7.020  -6.771  0.00  0.00    +0.044 C 
ATOM     21  C   UNL     1       0.644   6.751  -5.447  0.00  0.00    -0.050 A 
ATOM     22  C   UNL     1       1.981   6.405  -5.404  0.00  0.00    +0.004 A 
ATOM     23  C   UNL     1       2.592   6.157  -4.189  0.00  0.00    +0.006 A 
ATOM     24  C   UNL     1       1.866   6.258  -3.017  0.00  0.00    -0.021 A 
ATOM     25  C   UNL     1       0.528   6.600  -3.060  0.00  0.00    +0.006 A 
ATOM     26  C   UNL     1      -0.083   6.851  -4.275  0.00  0.00    +0.004 A 
ENDBRANCH   1  24
BRANCH  17  27
ATOM     27  C   UNL     1      -1.327   3.465   0.033  0.00  0.00    +0.060 A 
ATOM     28  C   UNL     1      -2.544   4.132   0.036  0.00  0.00    +0.025 A 
ATOM     29  C   UNL     1      -3.725   3.416   0.038  0.00  0.00    +0.002 A 
ATOM     30  C   UNL     1      -3.705   2.031   0.031  0.00  0.00    +0.001 A 
ATOM     31  C   UNL     1      -2.506   1.352   0.021  0.00  0.00    +0.017 A 
ATOM     32  C   UNL     1      -1.303   2.063   0.019  0.00  0.00    +0.085 A 
BRANCH  32  33
ATOM     33  C   UNL     1      -0.016   1.343   0.009  0.00  0.00    +0.388 C 
ATOM     34  O   UNL     1       1.028   1.965   0.003  0.00  0.00    -0.241 OA
ATOM     35  O   UNL     1       0.002  -0.004   0.002  0.00  0.00    -0.241 OA
ENDBRANCH  32  33
ENDBRANCH  17  27
TORSDOF 3
