REMARK  Name = ZINC09320672
REMARK  8 active torsions:
REMARK  status: ('A' for Active; 'I' for Inactive)
REMARK    1  A    between atoms: C_1  and  O_2
REMARK    2  A    between atoms: O_2  and  C_3
REMARK    3  A    between atoms: C_6  and  C_9
REMARK    4  A    between atoms: C_11  and  C_15
REMARK    5  A    between atoms: C_18  and  S_21
REMARK    6  A    between atoms: N_19  and  N_20
REMARK    7  A    between atoms: S_21  and  C_22
REMARK    8  A    between atoms: C_22  and  C_23
REMARK                            x       y       z     vdW  Elec       q    Type
REMARK                         _______ _______ _______ _____ _____    ______ ____
ROOT
ATOM      1  C   UNL     1       3.642  -5.337  -6.380  0.00  0.00    +0.202 A 
ATOM      2  N   UNL     1       3.358  -6.520  -5.891  0.00  0.00    -0.125 NA
ATOM      3  N   UNL     1       3.805  -7.438  -6.672  0.00  0.00    -0.120 NA
ATOM      4  C   UNL     1       4.402  -6.895  -7.709  0.00  0.00    +0.209 A 
ATOM      5  N   UNL     1       4.315  -5.540  -7.563  0.00  0.00    -0.222 N 
ENDROOT
BRANCH   1   8
ATOM      6  C   UNL     1       2.493  -2.493  -4.364  0.00  0.00    +0.066 A 
ATOM      7  C   UNL     1       2.609  -3.837  -4.567  0.00  0.00    +0.061 A 
ATOM      8  C   UNL     1       3.298  -4.030  -5.778  0.00  0.00    +0.132 A 
ATOM      9  N   UNL     1       3.585  -2.847  -6.284  0.00  0.00    -0.170 NA
ATOM     10  N   UNL     1       3.086  -1.864  -5.419  0.00  0.00    -0.276 N 
ATOM     11  H   UNL     1       3.153  -0.905  -5.547  0.00  0.00    +0.189 HD
BRANCH   6  15
ATOM     12  C   UNL     1       0.606  -0.607  -1.056  0.00  0.00    +0.120 A 
ATOM     13  C   UNL     1       1.172   0.164  -2.062  0.00  0.00    +0.046 A 
ATOM     14  C   UNL     1       1.785  -0.444  -3.136  0.00  0.00    +0.013 A 
ATOM     15  C   UNL     1       1.836  -1.836  -3.212  0.00  0.00    +0.000 A 
ATOM     16  C   UNL     1       1.266  -2.608  -2.199  0.00  0.00    +0.013 A 
ATOM     17  C   UNL     1       0.659  -1.993  -1.125  0.00  0.00    +0.046 A 
BRANCH  12  19
ATOM     18  C   UNL     1      -0.017   1.425   0.010  0.00  0.00    +0.277 C 
ATOM     19  O   UNL     1       0.002  -0.004   0.002  0.00  0.00    -0.495 OA
ENDBRANCH  12  19
ENDBRANCH   6  15
ENDBRANCH   1   8
BRANCH   5  20
ATOM     20  N   UNL     1       4.798  -4.585  -8.412  0.00  0.00    -0.295 N 
ATOM     21  H   UNL     1       5.744  -4.332  -8.171  0.00  0.00    +0.163 HD
ATOM     22  H   UNL     1       4.739  -4.892  -9.372  0.00  0.00    +0.163 HD
ENDBRANCH   5  20
BRANCH   4  23
ATOM     23  S   UNL     1       5.167  -7.756  -9.043  0.00  0.00    -0.075 S 
BRANCH  23  24
ATOM     24  C   UNL     1       4.926  -9.506  -8.631  0.00  0.00    +0.173 C 
BRANCH  24  25
ATOM     25  C   UNL     1       5.542 -10.364  -9.706  0.00  0.00    +0.229 C 
ATOM     26  O   UNL     1       6.090  -9.846 -10.656  0.00  0.00    -0.275 OA
ATOM     27  N   UNL     1       5.484 -11.707  -9.612  0.00  0.00    -0.264 N 
ATOM     28  C   UNL     1       6.052 -12.499 -10.603  0.00  0.00    +0.164 A 
ATOM     29  N   UNL     1       6.686 -12.117 -11.691  0.00  0.00    -0.233 NA
ATOM     30  C   UNL     1       7.172 -13.001 -12.543  0.00  0.00    +0.120 A 
ATOM     31  C   UNL     1       6.989 -14.310 -12.244  0.00  0.00    +0.068 A 
ATOM     32  S   UNL     1       6.103 -14.178 -10.700  0.00  0.00    -0.061 S 
ATOM     33  H   UNL     1       5.046 -12.122  -8.852  0.00  0.00    +0.157 HD
ENDBRANCH  24  25
ENDBRANCH  23  24
ENDBRANCH   4  23
TORSDOF 7
