REMARK  Name = ZINC21254215
REMARK  10 active torsions:
REMARK  status: ('A' for Active; 'I' for Inactive)
REMARK    1  A    between atoms: C_1  and  C_2
REMARK    2  A    between atoms: C_2  and  C_3
REMARK    3  A    between atoms: C_2  and  O_4
REMARK    4  A    between atoms: O_4  and  C_5
REMARK    5  A    between atoms: C_8  and  C_11
REMARK    6  A    between atoms: C_16  and  C_26
REMARK    7  A    between atoms: C_31  and  O_32
REMARK    8  A    between atoms: O_32  and  C_33
REMARK    9  A    between atoms: C_33  and  C_34
REMARK   10  A    between atoms: C_33  and  C_35
REMARK                            x       y       z     vdW  Elec       q    Type
REMARK                         _______ _______ _______ _____ _____    ______ ____
ROOT
ATOM      1  C   UNL     1      -2.749   1.799  -0.258  0.00  0.00    +0.032 C 
ATOM      2  C   UNL     1      -1.458   2.402  -0.809  0.00  0.00    +0.059 C 
ATOM      3  C   UNL     1      -0.276   1.524  -0.436  0.00  0.00    +0.017 C 
ATOM      4  C   UNL     1      -0.422   0.191  -0.333  0.00  0.00    +0.037 C 
ATOM      5  C   UNL     1       0.665  -0.795   0.019  0.00  0.00    +0.139 C 
ATOM      6  N   UNL     1       2.004  -0.246  -0.001  0.00  0.00    -0.331 N 
ATOM      7  C   UNL     1       2.386   0.748   0.899  0.00  0.00    +0.049 A 
ATOM      8  C   UNL     1       3.360   0.522   1.859  0.00  0.00    +0.025 A 
ATOM      9  C   UNL     1       3.671   1.524   2.760  0.00  0.00    +0.002 A 
ATOM     10  C   UNL     1       3.015   2.741   2.709  0.00  0.00    +0.002 A 
ATOM     11  C   UNL     1       2.055   2.976   1.739  0.00  0.00    +0.025 A 
ATOM     12  C   UNL     1       1.759   1.982   0.823  0.00  0.00    +0.052 A 
ATOM     13  N   UNL     1       0.891   2.189  -0.243  0.00  0.00    -0.316 N 
ATOM     14  C   UNL     1      -1.688  -0.404  -0.550  0.00  0.00    +0.163 C 
ATOM     15  O   UNL     1      -1.787  -1.613  -0.474  0.00  0.00    -0.292 OA
ATOM     16  C   UNL     1      -2.910   0.403  -0.871  0.00  0.00    +0.088 C 
ATOM     17  H   UNL     1       2.738  -0.614  -0.733  0.00  0.00    +0.147 HD
ATOM     18  H   UNL     1       1.211   2.959  -0.961  0.00  0.00    +0.152 HD
ENDROOT
BRANCH   1  22
ATOM     19  C   UNL     1      -6.077   4.250  -1.345  0.00  0.00    +0.121 A 
ATOM     20  C   UNL     1      -5.810   3.994  -0.008  0.00  0.00    +0.046 A 
ATOM     21  C   UNL     1      -4.733   3.202   0.341  0.00  0.00    +0.007 A 
ATOM     22  C   UNL     1      -3.922   2.663  -0.642  0.00  0.00    -0.043 A 
ATOM     23  C   UNL     1      -4.183   2.921  -1.975  0.00  0.00    +0.007 A 
ATOM     24  C   UNL     1      -5.261   3.709  -2.329  0.00  0.00    +0.046 A 
BRANCH  19  25
ATOM     25  O   UNL     1      -7.135   5.029  -1.691  0.00  0.00    -0.489 OA
BRANCH  25  27
ATOM     26  C   UNL     1      -8.700   6.767  -1.083  0.00  0.00    +0.051 C 
ATOM     27  C   UNL     1      -7.965   5.504  -0.630  0.00  0.00    +0.167 C 
ATOM     28  C   UNL     1      -8.986   4.426  -0.259  0.00  0.00    +0.051 C 
ENDBRANCH  25  27
ENDBRANCH  19  25
ENDBRANCH   1  22
BRANCH   5  29
ATOM     29  C   UNL     1       0.391  -1.335   1.399  0.00  0.00    +0.019 A 
ATOM     30  C   UNL     1      -0.487  -0.675   2.238  0.00  0.00    +0.009 A 
ATOM     31  C   UNL     1      -0.743  -1.173   3.502  0.00  0.00    +0.001 A 
ATOM     32  C   UNL     1      -0.113  -2.325   3.934  0.00  0.00    +0.004 A 
ATOM     33  C   UNL     1       0.769  -2.986   3.102  0.00  0.00    +0.046 A 
ATOM     34  C   UNL     1       1.024  -2.491   1.830  0.00  0.00    +0.126 A 
BRANCH  34  35
ATOM     35  O   UNL     1       1.891  -3.139   1.009  0.00  0.00    -0.489 OA
BRANCH  35  36
ATOM     36  C   UNL     1       2.430  -4.376   1.480  0.00  0.00    +0.167 C 
ATOM     37  C   UNL     1       2.842  -5.240   0.287  0.00  0.00    +0.051 C 
ATOM     38  C   UNL     1       3.653  -4.099   2.356  0.00  0.00    +0.051 C 
ENDBRANCH  35  36
ENDBRANCH  34  35
ENDBRANCH   5  29
TORSDOF 6
