REMARK  Name = ZINC00638020
REMARK  4 active torsions:
REMARK  status: ('A' for Active; 'I' for Inactive)
REMARK    1  A    between atoms: C_1  and  O_2
REMARK    2  A    between atoms: O_2  and  C_3
REMARK    3  A    between atoms: C_8  and  C_9
REMARK    4  A    between atoms: C_26  and  C_28
REMARK                            x       y       z     vdW  Elec       q    Type
REMARK                         _______ _______ _______ _____ _____    ______ ____
ROOT
ATOM      1  C   UNL     1       0.052  -2.828   0.005  0.00  0.00    +0.238 C 
ATOM      2  C   UNL     1      -1.378  -3.113   0.360  0.00  0.00    +0.027 C 
ATOM      3  C   UNL     1      -1.705  -4.212   1.069  0.00  0.00    +0.083 C 
ATOM      4  C   UNL     1      -0.602  -5.123   1.467  0.00  0.00    +0.042 A 
ATOM      5  C   UNL     1      -0.774  -6.085   2.453  0.00  0.00    +0.013 A 
ATOM      6  C   UNL     1       0.280  -6.910   2.793  0.00  0.00    +0.001 A 
ATOM      7  C   UNL     1       1.502  -6.779   2.156  0.00  0.00    +0.004 A 
ATOM      8  C   UNL     1       1.682  -5.823   1.173  0.00  0.00    +0.046 A 
ATOM      9  C   UNL     1       0.634  -4.991   0.821  0.00  0.00    +0.131 A 
ATOM     10  O   UNL     1       0.778  -4.051  -0.142  0.00  0.00    -0.479 OA
ATOM     11  N   UNL     1      -2.990  -4.483   1.406  0.00  0.00    -0.213 NA
ATOM     12  C   UNL     1      -4.015  -3.730   1.080  0.00  0.00    +0.237 C 
ATOM     13  N   UNL     1      -5.338  -3.851   1.327  0.00  0.00    -0.205 NA
ATOM     14  C   UNL     1      -5.991  -2.852   0.799  0.00  0.00    +0.203 C 
ATOM     15  N   UNL     1      -5.117  -2.017   0.173  0.00  0.00    -0.251 N 
ATOM     16  N   UNL     1      -3.847  -2.571   0.349  0.00  0.00    -0.208 N 
ATOM     17  C   UNL     1      -2.493  -2.181  -0.063  0.00  0.00    +0.159 C 
ATOM     18  H   UNL     1      -5.333  -1.200  -0.302  0.00  0.00    +0.171 HD
ENDROOT
BRANCH  17  19
ATOM     19  C   UNL     1      -2.471  -2.074  -1.566  0.00  0.00    -0.021 A 
ATOM     20  C   UNL     1      -3.041  -3.069  -2.338  0.00  0.00    +0.007 A 
ATOM     21  C   UNL     1      -3.021  -2.970  -3.716  0.00  0.00    +0.015 A 
ATOM     22  C   UNL     1      -2.431  -1.877  -4.324  0.00  0.00    +0.018 A 
ATOM     23  C   UNL     1      -1.861  -0.881  -3.550  0.00  0.00    +0.015 A 
ATOM     24  C   UNL     1      -1.885  -0.978  -2.172  0.00  0.00    +0.007 A 
ATOM     25 BR   UNL     1      -2.404  -1.742  -6.210  0.00  0.00    -0.050 Br
ENDBRANCH  17  19
BRANCH   1  31
ATOM     26  C   UNL     1       0.549  -0.623   1.089  0.00  0.00    +0.127 A 
ATOM     27  C   UNL     1       1.126   0.134   2.099  0.00  0.00    +0.046 A 
ATOM     28  C   UNL     1       1.835  -0.488   3.107  0.00  0.00    +0.004 A 
ATOM     29  C   UNL     1       1.971  -1.865   3.111  0.00  0.00    +0.001 A 
ATOM     30  C   UNL     1       1.397  -2.621   2.106  0.00  0.00    +0.011 A 
ATOM     31  C   UNL     1       0.682  -2.003   1.097  0.00  0.00    +0.039 A 
BRANCH  26  33
ATOM     32  C   UNL     1      -0.244   1.413   0.150  0.00  0.00    +0.277 C 
ATOM     33  O   UNL     1      -0.149  -0.012   0.095  0.00  0.00    -0.495 OA
ENDBRANCH  26  33
ENDBRANCH   1  31
TORSDOF 3
