REMARK  Name = ZINC06831628
REMARK  5 active torsions:
REMARK  status: ('A' for Active; 'I' for Inactive)
REMARK    1  A    between atoms: C_1  and  C_2
REMARK    2  A    between atoms: C_3  and  C_15
REMARK    3  A    between atoms: C_4  and  C_14
REMARK    4  A    between atoms: C_7  and  C_8
REMARK    5  A    between atoms: C_15  and  C_17
REMARK                            x       y       z     vdW  Elec       q    Type
REMARK                         _______ _______ _______ _____ _____    ______ ____
ROOT
ATOM      1  C   UNL     1      -1.417  -0.539   0.308  0.00  0.00    +0.047 C 
ATOM      2  C   UNL     1      -0.097   0.170   0.146  0.00  0.00    -0.013 A 
ATOM      3  C   UNL     1       1.204  -0.448  -0.133  0.00  0.00    +0.041 A 
ATOM      4  C   UNL     1       2.116   0.590  -0.196  0.00  0.00    +0.024 A 
ATOM      5  N   UNL     1       1.461   1.746   0.020  0.00  0.00    -0.356 N 
ATOM      6  H   UNL     1       1.874   2.624   0.028  0.00  0.00    +0.166 HD
ATOM      7  C   UNL     1       0.126   1.506   0.228  0.00  0.00    +0.069 A 
ATOM      8  C   UNL     1       3.592   0.451  -0.463  0.00  0.00    +0.064 C 
ENDROOT
BRANCH   7   9
ATOM      9  C   UNL     1      -0.903   2.536   0.491  0.00  0.00    +0.097 A 
ATOM     10  C   UNL     1      -0.555   3.733   1.052  0.00  0.00    +0.078 A 
ATOM     11  S   UNL     1      -2.148   4.542   1.127  0.00  0.00    -0.060 S 
ATOM     12  C   UNL     1      -3.110   3.213   0.419  0.00  0.00    +0.156 A 
ATOM     13  N   UNL     1      -2.180   2.304   0.190  0.00  0.00    -0.224 NA
ATOM     14  N   UNL     1      -4.473   3.151   0.175  0.00  0.00    -0.338 N 
ATOM     15  H   UNL     1      -4.859   2.354  -0.219  0.00  0.00    +0.144 HD
ATOM     16  H   UNL     1      -5.040   3.906   0.399  0.00  0.00    +0.144 HD
ENDBRANCH   7   9
BRANCH   3  17
ATOM     17  C   UNL     1       1.482  -1.875  -0.309  0.00  0.00    +0.162 C 
ATOM     18  O   UNL     1       1.712  -2.572   0.657  0.00  0.00    -0.292 OA
ATOM     19  C   UNL     1       1.482  -2.478  -1.690  0.00  0.00    +0.091 C 
ENDBRANCH   3  17
TORSDOF 2
