REMARK  Name = ZINC39524153
REMARK  4 active torsions:
REMARK  status: ('A' for Active; 'I' for Inactive)
REMARK    1  A    between atoms: C_4  and  C_7
REMARK    2  A    between atoms: C_7  and  C_8
REMARK    3  A    between atoms: C_18  and  C_22
REMARK    4  A    between atoms: C_27  and  O_28
REMARK                            x       y       z     vdW  Elec       q    Type
REMARK                         _______ _______ _______ _____ _____    ______ ____
ROOT
ATOM      1  C   UNL     1       4.171  -0.963   1.399  0.00  0.00    -0.005 C 
ATOM      2  C   UNL     1       3.187  -1.910   2.089  0.00  0.00    +0.004 C 
ATOM      3  C   UNL     1       3.647  -2.167   3.525  0.00  0.00    +0.002 C 
ATOM      4  C   UNL     1       5.040  -2.801   3.509  0.00  0.00    +0.023 C 
ATOM      5  C   UNL     1       6.023  -1.853   2.820  0.00  0.00    +0.038 C 
ATOM      6  C   UNL     1       5.563  -1.598   1.383  0.00  0.00    +0.027 C 
ATOM      7  C   UNL     1       6.071  -0.527   3.582  0.00  0.00    +0.024 C 
ATOM      8  C   UNL     1       6.552  -0.782   5.013  0.00  0.00    +0.004 C 
ATOM      9  C   UNL     1       7.926  -1.457   4.968  0.00  0.00    +0.025 C 
ATOM     10  C   UNL     1       7.824  -2.757   4.167  0.00  0.00    +0.107 C 
ATOM     11  N   UNL     1       7.361  -2.460   2.806  0.00  0.00    -0.206 NA
ATOM     12 CL   UNL     1       7.387  -3.863   1.829  0.00  0.00    -0.020 Cl
ENDROOT
BRANCH  10  13
ATOM     13  C   UNL     1       9.178  -3.416   4.104  0.00  0.00    +0.012 A 
ATOM     14  C   UNL     1      10.005  -3.193   3.020  0.00  0.00    +0.009 A 
ATOM     15  C   UNL     1      11.247  -3.797   2.961  0.00  0.00    +0.001 A 
ATOM     16  C   UNL     1      11.665  -4.625   3.987  0.00  0.00    +0.004 A 
ATOM     17  C   UNL     1      10.842  -4.850   5.073  0.00  0.00    +0.046 A 
ATOM     18  C   UNL     1       9.597  -4.241   5.137  0.00  0.00    +0.122 A 
BRANCH  18  19
ATOM     19  O   UNL     1       8.788  -4.457   6.207  0.00  0.00    -0.506 OA
ATOM     20  H   UNL     1       8.196  -5.215   6.106  0.00  0.00    +0.292 HD
ENDBRANCH  18  19
ENDBRANCH  10  13
BRANCH   1  21
ATOM     21  C   UNL     1       3.711  -0.707  -0.038  0.00  0.00    +0.038 C 
BRANCH  21  25
ATOM     22  C   UNL     1      -0.017   1.378   0.010  0.00  0.00    +0.000 A 
ATOM     23  C   UNL     1       1.171   2.086   0.002  0.00  0.00    +0.000 A 
ATOM     24  C   UNL     1       2.377   1.411  -0.013  0.00  0.00    +0.003 A 
ATOM     25  C   UNL     1       2.396   0.029  -0.020  0.00  0.00    -0.047 A 
ATOM     26  C   UNL     1       1.208  -0.679  -0.012  0.00  0.00    +0.003 A 
ATOM     27  C   UNL     1       0.002  -0.004   0.002  0.00  0.00    +0.000 A 
ENDBRANCH  21  25
ENDBRANCH   1  21
TORSDOF 4
