REMARK  Name = ZINC63607890
REMARK  8 active torsions:
REMARK  status: ('A' for Active; 'I' for Inactive)
REMARK    1  A    between atoms: N_9  and  C_12
REMARK    2  A    between atoms: C_12  and  N_13
REMARK    3  A    between atoms: C_16  and  C_19
REMARK    4  A    between atoms: C_19  and  C_20
REMARK    5  A    between atoms: C_20  and  C_21
REMARK    6  A    between atoms: C_21  and  C_22
REMARK    7  A    between atoms: N_25  and  C_28
REMARK    8  A    between atoms: C_28  and  N_29
REMARK                            x       y       z     vdW  Elec       q    Type
REMARK                         _______ _______ _______ _____ _____    ______ ____
ROOT
ATOM      1  C   UNL     1       4.130  -6.025  -5.113  0.00  0.00    +0.003 C 
ENDROOT
BRANCH   1   5
ATOM      2  N   UNL     1       3.949  -3.839  -1.443  0.00  0.00    +0.390 N 
ATOM      3  C   UNL     1       2.667  -4.146  -2.089  0.00  0.00    -0.076 C 
ATOM      4  C   UNL     1       2.904  -4.496  -3.560  0.00  0.00    -0.015 C 
ATOM      5  C   UNL     1       3.825  -5.717  -3.646  0.00  0.00    -0.014 C 
ATOM      6  C   UNL     1       5.130  -5.412  -2.904  0.00  0.00    -0.015 C 
ATOM      7  C   UNL     1       4.811  -5.027  -1.458  0.00  0.00    -0.076 C 
ATOM      8  H   UNL     1       4.404  -3.089  -1.941  0.00  0.00    -0.080 HD
BRANCH   2   9
ATOM      9  C   UNL     1       3.709  -3.428  -0.053  0.00  0.00    +0.042 C 
BRANCH   9  18
ATOM     10  C   UNL     1      -0.017   1.382   0.010  0.00  0.00    +0.001 A 
ATOM     11  C   UNL     1       1.165   2.099   0.002  0.00  0.00    +0.001 A 
ATOM     12  C   UNL     1       2.385   1.442  -0.013  0.00  0.00    +0.014 A 
ATOM     13  C   UNL     1       2.420   0.056  -0.021  0.00  0.00    +0.049 A 
ATOM     14  C   UNL     1       1.215  -0.675  -0.013  0.00  0.00    +0.049 A 
ATOM     15  C   UNL     1       0.002  -0.004   0.002  0.00  0.00    +0.014 A 
ATOM     16  C   UNL     1       1.606  -2.100  -0.025  0.00  0.00    +0.252 C 
ATOM     17  O   UNL     1       0.843  -3.045  -0.023  0.00  0.00    -0.270 OA
ATOM     18  N   UNL     1       2.949  -2.175  -0.039  0.00  0.00    -0.251 N 
ATOM     19  C   UNL     1       3.503  -0.949  -0.038  0.00  0.00    +0.252 C 
ATOM     20  O   UNL     1       4.693  -0.709  -0.049  0.00  0.00    -0.270 OA
ENDBRANCH   9  18
ENDBRANCH   2   9
ENDBRANCH   1   5
BRANCH   1  21
ATOM     21  C   UNL     1       4.947  -7.316  -5.204  0.00  0.00    +0.001 C 
BRANCH  21  22
ATOM     22  C   UNL     1       5.252  -7.624  -6.671  0.00  0.00    +0.003 C 
BRANCH  22  23
ATOM     23  C   UNL     1       6.069  -8.914  -6.762  0.00  0.00    -0.009 C 
ATOM     24  C   UNL     1       7.437  -8.701  -6.107  0.00  0.00    +0.019 C 
ATOM     25  C   UNL     1       8.271  -9.976  -6.255  0.00  0.00    +0.086 C 
ATOM     26  N   UNL     1       8.434 -10.293  -7.679  0.00  0.00    -0.286 NA
ATOM     27  C   UNL     1       7.137 -10.548  -8.318  0.00  0.00    +0.086 C 
ATOM     28  C   UNL     1       6.269  -9.291  -8.232  0.00  0.00    +0.019 C 
BRANCH  26  29
ATOM     29  C   UNL     1       9.345 -11.431  -7.864  0.00  0.00    +0.204 C 
BRANCH  29  30
ATOM     30  N   UNL     1       9.952 -11.360  -9.196  0.00  0.00    -0.220 N 
ATOM     31  C   UNL     1       9.428 -11.919 -10.301  0.00  0.00    +0.255 C 
ATOM     32  O   UNL     1       8.394 -12.555 -10.353  0.00  0.00    -0.269 OA
ATOM     33  C   UNL     1      10.322 -11.632 -11.443  0.00  0.00    +0.049 A 
ATOM     34  C   UNL     1      10.299 -11.944 -12.793  0.00  0.00    +0.014 A 
ATOM     35  C   UNL     1      11.324 -11.507 -13.617  0.00  0.00    +0.001 A 
ATOM     36  C   UNL     1      12.368 -10.763 -13.102  0.00  0.00    +0.001 A 
ATOM     37  C   UNL     1      12.405 -10.443 -11.754  0.00  0.00    +0.014 A 
ATOM     38  C   UNL     1      11.387 -10.873 -10.918  0.00  0.00    +0.049 A 
ATOM     39  C   UNL     1      11.102 -10.721  -9.475  0.00  0.00    +0.255 C 
ATOM     40  O   UNL     1      11.792 -10.121  -8.676  0.00  0.00    -0.269 OA
ENDBRANCH  29  30
ENDBRANCH  26  29
ENDBRANCH  22  23
ENDBRANCH  21  22
ENDBRANCH   1  21
TORSDOF 8
