REMARK  Name = ZINC40091697
REMARK  16 active torsions:
REMARK  status: ('A' for Active; 'I' for Inactive)
REMARK    1  A    between atoms: C_1  and  C_2
REMARK    2  A    between atoms: C_2  and  C_3
REMARK    3  A    between atoms: C_3  and  O_4
REMARK    4  A    between atoms: O_4  and  C_5
REMARK    5  A    between atoms: C_8  and  C_12
REMARK    6  A    between atoms: C_10  and  C_11
REMARK    7  A    between atoms: C_12  and  C_14
REMARK    8  A    between atoms: N_18  and  C_33
REMARK    9  A    between atoms: C_19  and  C_21
REMARK   10  A    between atoms: C_24  and  O_29
REMARK   11  A    between atoms: C_25  and  O_27
REMARK   12  A    between atoms: O_27  and  C_28
REMARK   13  A    between atoms: O_29  and  C_30
REMARK   14  A    between atoms: C_30  and  C_31
REMARK   15  A    between atoms: C_33  and  C_34
REMARK   16  A    between atoms: C_34  and  O_35
REMARK                            x       y       z     vdW  Elec       q    Type
REMARK                         _______ _______ _______ _____ _____    ______ ____
ROOT
ATOM      1  C   UNL     1       3.704  -3.363   6.447  0.00  0.00    +0.076 C 
ATOM      2  C   UNL     1       4.619  -3.958   7.247  0.00  0.00    +0.249 C 
ATOM      3  C   UNL     1       5.317  -2.924   8.040  0.00  0.00    +0.288 C 
ATOM      4  O   UNL     1       6.195  -3.142   8.851  0.00  0.00    -0.266 OA
ATOM      5  N   UNL     1       4.836  -1.706   7.731  0.00  0.00    -0.281 N 
ATOM      6  C   UNL     1       3.797  -1.878   6.709  0.00  0.00    +0.145 C 
ATOM      7  O   UNL     1       4.857  -5.289   7.311  0.00  0.00    -0.282 OA
ENDROOT
BRANCH   6   8
ATOM      8  C   UNL     1       4.183  -1.152   5.445  0.00  0.00    -0.019 A 
ATOM      9  C   UNL     1       5.394  -1.425   4.836  0.00  0.00    +0.009 A 
ATOM     10  C   UNL     1       5.753  -0.763   3.677  0.00  0.00    +0.050 A 
ATOM     11  C   UNL     1       4.898   0.177   3.123  0.00  0.00    +0.162 A 
ATOM     12  C   UNL     1       3.680   0.451   3.736  0.00  0.00    +0.162 A 
ATOM     13  C   UNL     1       3.324  -0.220   4.895  0.00  0.00    +0.055 A 
BRANCH  12  14
ATOM     14  O   UNL     1       2.837   1.373   3.196  0.00  0.00    -0.491 OA
ATOM     15  C   UNL     1       1.651   1.677   3.932  0.00  0.00    +0.277 C 
ENDBRANCH  12  14
BRANCH  11  16
ATOM     16  O   UNL     1       5.250   0.830   1.983  0.00  0.00    -0.484 OA
BRANCH  16  17
ATOM     17  C   UNL     1       6.516   0.498   1.410  0.00  0.00    +0.256 C 
BRANCH  17  18
ATOM     18  C   UNL     1       6.732   1.315   0.162  0.00  0.00    +0.006 C 
ATOM     19  C   UNL     1       7.888   1.893  -0.050  0.00  0.00    +0.007 C 
ENDBRANCH  17  18
ENDBRANCH  16  17
ENDBRANCH  11  16
ENDBRANCH   6   8
BRANCH   1  20
ATOM     20  C   UNL     1       2.801  -4.030   5.504  0.00  0.00    +0.195 C 
ATOM     21  O   UNL     1       3.251  -4.574   4.512  0.00  0.00    -0.287 OA
BRANCH  20  25
ATOM     22  C   UNL     1      -1.383  -4.064   6.232  0.00  0.00    +0.123 A 
ATOM     23  C   UNL     1      -0.535  -3.375   7.092  0.00  0.00    +0.046 A 
ATOM     24  C   UNL     1       0.822  -3.361   6.860  0.00  0.00    +0.015 A 
ATOM     25  C   UNL     1       1.347  -4.042   5.757  0.00  0.00    +0.023 A 
ATOM     26  C   UNL     1       0.491  -4.734   4.895  0.00  0.00    +0.018 A 
ATOM     27  C   UNL     1      -0.864  -4.747   5.138  0.00  0.00    -0.008 A 
ATOM     28  C   UNL     1      -1.787  -5.497   4.212  0.00  0.00    +0.047 C 
BRANCH  22  29
ATOM     29  O   UNL     1      -2.720  -4.075   6.465  0.00  0.00    -0.492 OA
BRANCH  29  30
ATOM     30  C   UNL     1      -3.198  -3.264   7.540  0.00  0.00    +0.229 C 
BRANCH  30  32
ATOM     31  C   UNL     1      -5.239  -2.442   8.724  0.00  0.00    +0.007 C 
ATOM     32  C   UNL     1      -4.727  -3.310   7.573  0.00  0.00    +0.038 C 
ENDBRANCH  30  32
ENDBRANCH  29  30
ENDBRANCH  22  29
ENDBRANCH  20  25
ENDBRANCH   1  20
BRANCH   5  33
ATOM     33  C   UNL     1       5.277  -0.434   8.307  0.00  0.00    +0.137 C 
BRANCH  33  34
ATOM     34  C   UNL     1       6.529   0.052   7.573  0.00  0.00    +0.175 C 
BRANCH  34  35
ATOM     35  O   UNL     1       6.188   0.400   6.229  0.00  0.00    -0.393 OA
ATOM     36  H   UNL     1       6.935   0.718   5.704  0.00  0.00    +0.209 HD
ENDBRANCH  34  35
ENDBRANCH  33  34
ENDBRANCH   5  33
TORSDOF 13
