REMARK  Name = ZINC20918184
REMARK  7 active torsions:
REMARK  status: ('A' for Active; 'I' for Inactive)
REMARK    1  A    between atoms: C_1  and  C_2
REMARK    2  A    between atoms: C_4  and  C_30
REMARK    3  A    between atoms: C_8  and  C_13
REMARK    4  A    between atoms: C_9  and  C_12
REMARK    5  A    between atoms: C_13  and  C_14
REMARK    6  A    between atoms: C_16  and  C_19
REMARK    7  A    between atoms: C_20  and  C_29
REMARK                            x       y       z     vdW  Elec       q    Type
REMARK                         _______ _______ _______ _____ _____    ______ ____
ROOT
ATOM      1  C   UNL     1       1.395   2.024  -0.000  0.00  0.00    +0.232 A 
ATOM      2  N   UNL     1       2.115   2.299  -1.060  0.00  0.00    -0.191 NA
ATOM      3  C   UNL     1       3.305   2.735  -0.587  0.00  0.00    +0.204 A 
ATOM      4  N   UNL     1       3.238   2.699   0.718  0.00  0.00    -0.056 NA
ATOM      5  O   UNL     1       2.148   2.299   1.069  0.00  0.00    -0.337 OA
ENDROOT
BRANCH   3   6
ATOM      6  C   UNL     1       4.469   3.172  -1.398  0.00  0.00    +0.047 A 
ATOM      7  C   UNL     1       4.408   3.155  -2.790  0.00  0.00    +0.049 A 
ATOM      8  N   UNL     1       5.439   3.549  -3.508  0.00  0.00    -0.259 NA
ATOM      9  C   UNL     1       6.561   3.959  -2.950  0.00  0.00    +0.113 A 
ATOM     10  C   UNL     1       6.702   3.998  -1.571  0.00  0.00    -0.043 A 
ATOM     11  C   UNL     1       5.646   3.602  -0.778  0.00  0.00    -0.034 A 
ATOM     12  C   UNL     1       5.726   3.623   0.724  0.00  0.00    +0.017 C 
ATOM     13  C   UNL     1       7.188   3.722   1.165  0.00  0.00    -0.077 C 
ATOM     14  N   UNL     1       7.825   4.827   0.431  0.00  0.00    +0.382 N 
ATOM     15  C   UNL     1       8.004   4.468  -0.980  0.00  0.00    -0.045 C 
ATOM     16  C   UNL     1       3.151   2.688  -3.478  0.00  0.00    +0.066 C 
ATOM     17  H   UNL     1       7.190   5.723   0.494  0.00  0.00    -0.085 HD
ATOM     18  H   UNL     1       8.808   5.042   0.874  0.00  0.00    -0.085 HD
ENDBRANCH   3   6
BRANCH   1  19
ATOM     19  C   UNL     1      -0.018   1.503   0.010  0.00  0.00    +0.136 C 
BRANCH  19  27
ATOM     20  C   UNL     1       0.070  -1.481   4.899  0.00  0.00    +0.044 C 
ATOM     21  C   UNL     1       0.058  -1.722   3.411  0.00  0.00    -0.050 A 
ATOM     22  C   UNL     1       0.071  -3.022   2.924  0.00  0.00    +0.008 A 
ATOM     23  C   UNL     1       0.061  -3.264   1.568  0.00  0.00    -0.026 A 
ATOM     24  C   UNL     1       0.038  -2.197   0.676  0.00  0.00    +0.050 A 
ATOM     25  C   UNL     1       0.025  -0.882   1.175  0.00  0.00    +0.004 A 
ATOM     26  C   UNL     1       0.036  -0.659   2.553  0.00  0.00    +0.013 A 
ATOM     27  C   UNL     1       0.002  -0.004   0.002  0.00  0.00    -0.010 A 
ATOM     28  C   UNL     1      -0.003  -0.797  -1.081  0.00  0.00    +0.018 A 
ATOM     29  N   UNL     1       0.023  -2.110  -0.698  0.00  0.00    -0.358 N 
ATOM     30  H   UNL     1       0.034  -3.026  -1.307  0.00  0.00    +0.166 HD
ATOM     31  C   UNL     1      -0.032  -0.312  -2.508  0.00  0.00    +0.063 C 
ATOM     32  C   UNL     1       0.075  -4.680   1.053  0.00  0.00    +0.046 C 
ENDBRANCH  19  27
ENDBRANCH   1  19
TORSDOF 3
