REMARK  Name = ZINC13238929
REMARK  14 active torsions:
REMARK  status: ('A' for Active; 'I' for Inactive)
REMARK    1  A    between atoms: C_1  and  C_2
REMARK    2  A    between atoms: C_2  and  N_3
REMARK    3  A    between atoms: N_3  and  C_4
REMARK    4  A    between atoms: N_3  and  S_6
REMARK    5  A    between atoms: C_4  and  C_5
REMARK    6  A    between atoms: S_6  and  C_9
REMARK    7  A    between atoms: C_13  and  N_15
REMARK    8  A    between atoms: C_16  and  C_18
REMARK    9  A    between atoms: C_18  and  N_19
REMARK   10  A    between atoms: N_22  and  CA_23
REMARK   11  A    between atoms: CA_23  and  C_25
REMARK   12  A    between atoms: CA_23  and  C_33
REMARK   13  A    between atoms: C_25  and  C_26
REMARK   14  A    between atoms: C_26  and  C_27
REMARK                            x       y       z     vdW  Elec       q    Type
REMARK                         _______ _______ _______ _____ _____    ______ ____
ROOT
ATOM      1  C   UNL     1      -5.527   0.427  -2.448  0.00  0.00    +0.202 C 
ENDROOT
BRANCH   1   2
ATOM      2  N   UNL     1      -4.067   0.312  -2.409  0.00  0.00    -0.291 N 
ATOM      3  C   UNL     1      -3.449  -0.049  -1.267  0.00  0.00    +0.301 C 
ATOM      4  O   UNL     1      -4.104  -0.279  -0.268  0.00  0.00    -0.253 OA
ATOM      5  N   UNL     1      -2.106  -0.154  -1.232  0.00  0.00    -0.286 N 
ATOM      6  H   UNL     1      -3.545   0.496  -3.206  0.00  0.00    +0.151 HD
ATOM      7  H   UNL     1      -1.584   0.030  -2.028  0.00  0.00    +0.151 HD
BRANCH   5   8
ATOM      8  CA  UNL     1      -1.435  -0.546   0.010  0.00  0.00    +0.188 C 
BRANCH   8   9
ATOM      9  C   UNL     1      -1.411  -2.049   0.116  0.00  0.00    +0.376 C 
ATOM     10  O   UNL     1      -1.905  -2.724  -0.757  0.00  0.00    -0.244 OA
ATOM     11  OXT UNL     1      -0.842  -2.639   1.179  0.00  0.00    -0.244 OA
ENDBRANCH   8   9
BRANCH   8  12
ATOM     12  C   UNL     1      -0.001  -0.013   0.005  0.00  0.00    +0.038 C 
BRANCH  12  13
ATOM     13  C   UNL     1      -0.025   1.517   0.024  0.00  0.00    +0.037 C 
BRANCH  13  14
ATOM     14  C   UNL     1       1.387   2.042   0.018  0.00  0.00    -0.047 A 
ATOM     15  C   UNL     1       2.042   2.274   1.213  0.00  0.00    +0.003 A 
ATOM     16  C   UNL     1       3.340   2.751   1.208  0.00  0.00    +0.000 A 
ATOM     17  C   UNL     1       3.978   3.007   0.009  0.00  0.00    +0.000 A 
ATOM     18  C   UNL     1       3.320   2.780  -1.186  0.00  0.00    +0.000 A 
ATOM     19  C   UNL     1       2.025   2.298  -1.181  0.00  0.00    +0.003 A 
ENDBRANCH  13  14
ENDBRANCH  12  13
ENDBRANCH   8  12
ENDBRANCH   5   8
ENDBRANCH   1   2
BRANCH   1  21
ATOM     20  N   UNL     1      -7.271   1.009  -4.102  0.00  0.00    -0.284 N 
ATOM     21  C   UNL     1      -5.962   0.841  -3.830  0.00  0.00    +0.234 C 
ATOM     22  O   UNL     1      -5.134   1.022  -4.697  0.00  0.00    -0.274 OA
ATOM     23  H   UNL     1      -7.938   0.800  -3.429  0.00  0.00    +0.155 HD
BRANCH  20  28
ATOM     24  C   UNL     1      -7.356   1.600  -7.730  0.00  0.00    +0.107 A 
ATOM     25  C   UNL     1      -8.457   2.431  -7.834  0.00  0.00    +0.028 A 
ATOM     26  C   UNL     1      -9.165   2.790  -6.703  0.00  0.00    +0.004 A 
ATOM     27  C   UNL     1      -8.778   2.316  -5.464  0.00  0.00    +0.023 A 
ATOM     28  C   UNL     1      -7.670   1.487  -5.356  0.00  0.00    +0.035 A 
ATOM     29  C   UNL     1      -6.960   1.127  -6.495  0.00  0.00    +0.051 A 
BRANCH  24  30
ATOM     30  S   UNL     1      -6.457   1.145  -9.176  0.00  0.00    +0.061 S 
ATOM     31  O   UNL     1      -6.702   2.157 -10.142  0.00  0.00    -0.153 OA
ATOM     32  O   UNL     1      -5.147   0.801  -8.748  0.00  0.00    -0.153 OA
BRANCH  30  33
ATOM     33  N   UNL     1      -7.143  -0.244  -9.761  0.00  0.00    -0.177 NA
BRANCH  33  35
ATOM     34  C   UNL     1      -7.675  -0.283 -12.148  0.00  0.00    +0.022 C 
ATOM     35  C   UNL     1      -8.239  -0.168 -10.730  0.00  0.00    +0.106 C 
ENDBRANCH  33  35
BRANCH  33  36
ATOM     36  C   UNL     1      -6.654  -1.549  -9.309  0.00  0.00    +0.106 C 
ATOM     37  C   UNL     1      -7.520  -2.045  -8.149  0.00  0.00    +0.022 C 
ENDBRANCH  33  36
ENDBRANCH  30  33
ENDBRANCH  24  30
ENDBRANCH  20  28
ENDBRANCH   1  21
TORSDOF 12
