REMARK  Name = ZINC10013230
REMARK  4 active torsions:
REMARK  status: ('A' for Active; 'I' for Inactive)
REMARK    1  A    between atoms: C_1  and  C_2
REMARK    2  A    between atoms: C_10  and  C_11
REMARK    3  A    between atoms: N_16  and  C_19
REMARK    4  A    between atoms: N_29  and  C_32
REMARK                            x       y       z     vdW  Elec       q    Type
REMARK                         _______ _______ _______ _____ _____    ______ ____
ROOT
ATOM      1  C   UNL     1       0.438   8.296  -4.180  0.00  0.00    +0.046 C 
ATOM      2  C   UNL     1      -0.031   9.573  -3.532  0.00  0.00    -0.019 A 
ATOM      3  C   UNL     1       0.672  10.108  -2.445  0.00  0.00    +0.051 A 
ATOM      4  C   UNL     1       1.836   9.609  -1.788  0.00  0.00    +0.133 A 
ATOM      5  N   UNL     1       2.336  10.279  -0.763  0.00  0.00    -0.220 NA
ATOM      6  C   UNL     1       1.792  11.398  -0.319  0.00  0.00    +0.224 A 
ATOM      7  N   UNL     1       0.713  11.908  -0.879  0.00  0.00    -0.228 NA
ATOM      8  C   UNL     1       0.146  11.308  -1.906  0.00  0.00    +0.114 A 
ATOM      9  S   UNL     1      -1.266  11.631  -2.930  0.00  0.00    -0.064 S 
ATOM     10  C   UNL     1      -1.135  10.213  -4.006  0.00  0.00    +0.080 A 
ATOM     11  N   UNL     1       2.437   8.444  -2.220  0.00  0.00    -0.312 N 
ATOM     12  C   UNL     1       3.787   8.707  -2.736  0.00  0.00    +0.125 C 
ATOM     13  C   UNL     1       4.386   7.406  -3.277  0.00  0.00    +0.125 C 
ATOM     14  N   UNL     1       4.422   6.403  -2.204  0.00  0.00    -0.314 N 
ATOM     15  C   UNL     1       3.071   6.140  -1.688  0.00  0.00    +0.125 C 
ATOM     16  C   UNL     1       2.472   7.440  -1.147  0.00  0.00    +0.125 C 
ENDROOT
BRANCH  10  17
ATOM     17  C   UNL     1      -2.003   9.831  -5.127  0.00  0.00    +0.254 C 
ATOM     18  O   UNL     1      -2.252   8.658  -5.331  0.00  0.00    -0.269 OA
ATOM     19  N   UNL     1      -2.526  10.780  -5.928  0.00  0.00    -0.294 N 
ATOM     20  C   UNL     1      -2.147  12.193  -5.772  0.00  0.00    +0.127 C 
ATOM     21  C   UNL     1      -1.719  12.732  -7.146  0.00  0.00    +0.124 C 
ATOM     22  N   UNL     1      -2.790  12.480  -8.120  0.00  0.00    -0.325 N 
ATOM     23  C   UNL     1      -3.018  11.041  -8.302  0.00  0.00    +0.124 C 
ATOM     24  C   UNL     1      -3.494  10.431  -6.979  0.00  0.00    +0.127 C 
BRANCH  22  25
ATOM     25  C   UNL     1      -2.513  13.102  -9.342  0.00  0.00    +0.065 A 
ATOM     26  C   UNL     1      -3.442  13.057 -10.372  0.00  0.00    +0.026 A 
ATOM     27  C   UNL     1      -3.166  13.675 -11.577  0.00  0.00    +0.002 A 
ATOM     28  C   UNL     1      -1.963  14.331 -11.761  0.00  0.00    +0.003 A 
ATOM     29  C   UNL     1      -1.032  14.375 -10.739  0.00  0.00    +0.040 A 
ATOM     30  C   UNL     1      -1.303  13.762  -9.529  0.00  0.00    +0.144 A 
ATOM     31  F   UNL     1      -0.393  13.804  -8.531  0.00  0.00    -0.204 F 
ENDBRANCH  22  25
ENDBRANCH  10  17
BRANCH  14  32
ATOM     32  C   UNL     1       5.026   5.229  -2.639  0.00  0.00    +0.099 A 
ATOM     33  C   UNL     1       5.156   4.155  -1.765  0.00  0.00    +0.042 A 
ATOM     34  C   UNL     1       5.755   2.992  -2.212  0.00  0.00    +0.005 A 
ATOM     35  C   UNL     1       6.215   2.945  -3.522  0.00  0.00    +0.018 A 
ATOM     36  C   UNL     1       6.053   4.048  -4.335  0.00  0.00    +0.084 A 
ATOM     37  N   UNL     1       5.465   5.206  -3.931  0.00  0.00    -0.350 N 
ATOM     38  H   UNL     1       5.358   6.011  -4.558  0.00  0.00    +0.166 HD
ENDBRANCH  14  32
TORSDOF 3
