REMARK  Name = ZINC17819694
REMARK  4 active torsions:
REMARK  status: ('A' for Active; 'I' for Inactive)
REMARK    1  A    between atoms: C_4  and  C_7
REMARK    2  A    between atoms: C_11  and  C_12
REMARK    3  A    between atoms: N_13  and  C_14
REMARK    4  A    between atoms: C_19  and  O_20
REMARK                            x       y       z     vdW  Elec       q    Type
REMARK                         _______ _______ _______ _____ _____    ______ ____
ROOT
ATOM      1  C   UNL     1       4.134  -0.298  -0.183  0.00  0.00    +0.034 C 
ATOM      2  C   UNL     1       3.978  -1.321  -1.312  0.00  0.00    +0.088 C 
ATOM      3  C   UNL     1       5.140  -2.279  -1.281  0.00  0.00    +0.169 C 
ATOM      4  O   UNL     1       5.525  -2.797  -2.318  0.00  0.00    -0.292 OA
ATOM      5  C   UNL     1       5.781  -2.580  -0.078  0.00  0.00    +0.078 C 
ATOM      6  C   UNL     1       5.367  -2.004   1.124  0.00  0.00    +0.169 C 
ATOM      7  O   UNL     1       5.948  -2.286   2.161  0.00  0.00    -0.292 OA
ATOM      8  C   UNL     1       4.212  -1.039   1.155  0.00  0.00    +0.088 C 
ENDROOT
BRANCH   1  12
ATOM      9  C   UNL     1       0.770   2.335  -0.168  0.00  0.00    +0.000 A 
ATOM     10  C   UNL     1       2.044   2.842  -0.341  0.00  0.00    +0.000 A 
ATOM     11  C   UNL     1       3.133   1.990  -0.345  0.00  0.00    +0.004 A 
ATOM     12  C   UNL     1       2.947   0.631  -0.177  0.00  0.00    -0.043 A 
ATOM     13  C   UNL     1       1.673   0.123  -0.004  0.00  0.00    +0.004 A 
ATOM     14  C   UNL     1       0.585   0.975  -0.001  0.00  0.00    +0.000 A 
ENDBRANCH   1  12
BRANCH   5  15
ATOM     15  C   UNL     1       6.910  -3.519  -0.078  0.00  0.00    +0.126 C 
ATOM     16  N   UNL     1       7.517  -3.809   1.040  0.00  0.00    -0.251 NA
BRANCH  16  17
ATOM     17  C   UNL     1       8.635  -4.599   1.027  0.00  0.00    +0.106 A 
ATOM     18  C   UNL     1       9.669  -4.337   0.127  0.00  0.00    +0.046 A 
ATOM     19  C   UNL     1      10.794  -5.138   0.119  0.00  0.00    +0.020 A 
ATOM     20  C   UNL     1      10.900  -6.200   1.001  0.00  0.00    +0.019 A 
ATOM     21  C   UNL     1       9.882  -6.468   1.897  0.00  0.00    +0.048 A 
ATOM     22  C   UNL     1       8.750  -5.671   1.922  0.00  0.00    +0.142 A 
ATOM     23 BR   UNL     1      12.194  -4.784  -1.102  0.00  0.00    -0.050 Br
BRANCH  22  24
ATOM     24  O   UNL     1       7.752  -5.930   2.807  0.00  0.00    -0.505 OA
ATOM     25  H   UNL     1       7.079  -6.539   2.473  0.00  0.00    +0.292 HD
ENDBRANCH  22  24
ENDBRANCH  16  17
ENDBRANCH   5  15
TORSDOF 4
