REMARK  Name = ZINC64061398
REMARK  10 active torsions:
REMARK  status: ('A' for Active; 'I' for Inactive)
REMARK    1  A    between atoms: C_1  and  C_2
REMARK    2  A    between atoms: C_6  and  C_21
REMARK    3  A    between atoms: C_8  and  C_18
REMARK    4  A    between atoms: N_10  and  C_11
REMARK    5  A    between atoms: C_11  and  C_12
REMARK    6  A    between atoms: C_18  and  O_19
REMARK    7  A    between atoms: O_19  and  C_20
REMARK    8  A    between atoms: N_23  and  C_24
REMARK    9  A    between atoms: C_24  and  C_25
REMARK   10  A    between atoms: C_25  and  C_26
REMARK                            x       y       z     vdW  Elec       q    Type
REMARK                         _______ _______ _______ _____ _____    ______ ____
ROOT
ATOM      1  C   UNL     1       0.471   1.480  -0.398  0.00  0.00    +0.060 C 
ATOM      2  C   UNL     1       0.257  -0.010  -0.327  0.00  0.00    +0.007 C 
ATOM      3  C   UNL     1       0.283  -0.755  -1.458  0.00  0.00    +0.065 C 
ATOM      4  C   UNL     1       0.104  -2.143  -1.410  0.00  0.00    +0.171 C 
ATOM      5  O   UNL     1       0.112  -2.788  -2.440  0.00  0.00    -0.292 OA
ATOM      6  C   UNL     1      -0.098  -2.844  -0.090  0.00  0.00    +0.168 C 
ATOM      7  C   UNL     1      -0.739  -1.865   0.901  0.00  0.00    +0.118 C 
ATOM      8  N   UNL     1       0.042  -0.616   0.878  0.00  0.00    -0.327 N 
ENDROOT
BRANCH   6   9
ATOM      9  C   UNL     1      -1.001  -4.034  -0.283  0.00  0.00    +0.226 C 
ATOM     10  O   UNL     1      -1.835  -4.026  -1.164  0.00  0.00    -0.275 OA
ATOM     11  N   UNL     1      -0.883  -5.108   0.522  0.00  0.00    -0.315 N 
ATOM     12  H   UNL     1      -0.217  -5.114   1.227  0.00  0.00    +0.149 HD
BRANCH  11  13
ATOM     13  C   UNL     1      -1.762  -6.265   0.335  0.00  0.00    +0.108 C 
BRANCH  13  14
ATOM     14  C   UNL     1      -1.422  -7.337   1.372  0.00  0.00    +0.065 C 
BRANCH  14  15
ATOM     15  C   UNL     1      -2.340  -8.545   1.176  0.00  0.00    +0.175 C 
ATOM     16  N   UNL     1      -3.737  -8.160   1.410  0.00  0.00    -0.363 N 
ATOM     17  C   UNL     1      -4.179  -8.877   2.402  0.00  0.00    +0.060 A 
ATOM     18  C   UNL     1      -5.478  -8.944   3.086  0.00  0.00    +0.027 A 
ATOM     19  C   UNL     1      -5.648  -9.805   4.109  0.00  0.00    +0.002 A 
ATOM     20  C   UNL     1      -4.623 -10.656   4.561  0.00  0.00    +0.002 A 
ATOM     21  C   UNL     1      -3.395 -10.674   4.006  0.00  0.00    +0.027 A 
ATOM     22  C   UNL     1      -3.095  -9.778   2.881  0.00  0.00    +0.060 A 
ATOM     23  N   UNL     1      -2.025  -9.583   2.165  0.00  0.00    -0.363 N 
ATOM     24  H   UNL     1      -4.239  -7.494   0.915  0.00  0.00    +0.162 HD
ATOM     25  H   UNL     1      -1.176 -10.040   2.267  0.00  0.00    +0.162 HD
ENDBRANCH  14  15
ENDBRANCH  13  14
ENDBRANCH  11  13
ENDBRANCH   6   9
BRANCH   8  26
ATOM     26  C   UNL     1       0.571  -0.036   2.115  0.00  0.00    +0.108 C 
BRANCH  26  27
ATOM     27  C   UNL     1       2.023  -0.479   2.306  0.00  0.00    +0.006 C 
ATOM     28  C   UNL     1       2.067  -1.989   2.550  0.00  0.00    +0.005 C 
ATOM     29  C   UNL     1       3.519  -2.432   2.741  0.00  0.00    +0.000 C 
ATOM     30  C   UNL     1       4.121  -1.703   3.943  0.00  0.00    +0.000 C 
ATOM     31  C   UNL     1       4.077  -0.194   3.699  0.00  0.00    +0.000 C 
ATOM     32  C   UNL     1       2.625   0.250   3.509  0.00  0.00    +0.005 C 
ENDBRANCH  26  27
ENDBRANCH   8  26
BRANCH   7  33
ATOM     33  C   UNL     1      -2.185  -1.583   0.486  0.00  0.00    +0.183 C 
BRANCH  33  34
ATOM     34  O   UNL     1      -2.209  -1.093  -0.856  0.00  0.00    -0.381 OA
ATOM     35  C   UNL     1      -3.519  -0.797  -1.343  0.00  0.00    +0.194 C 
ENDBRANCH  33  34
ENDBRANCH   7  33
TORSDOF 8
