REMARK  Name = ZINC38650553
REMARK  14 active torsions:
REMARK  status: ('A' for Active; 'I' for Inactive)
REMARK    1  A    between atoms: C_1  and  C_2
REMARK    2  A    between atoms: C_2  and  O_3
REMARK    3  A    between atoms: O_3  and  C_4
REMARK    4  A    between atoms: C_9  and  C_10
REMARK    5  A    between atoms: C_15  and  O_24
REMARK    6  A    between atoms: C_19  and  N_23
REMARK    7  A    between atoms: C_20  and  C_21
REMARK    8  A    between atoms: O_24  and  C_25
REMARK    9  A    between atoms: C_25  and  C_27
REMARK   10  A    between atoms: C_27  and  O_28
REMARK   11  A    between atoms: O_28  and  C_29
REMARK   12  A    between atoms: C_32  and  C_35
REMARK   13  A    between atoms: C_35  and  C_36
REMARK   14  A    between atoms: C_35  and  C_37
REMARK                            x       y       z     vdW  Elec       q    Type
REMARK                         _______ _______ _______ _____ _____    ______ ____
ROOT
ATOM      1  C   UNL     1       2.048  -1.404  -3.520  0.00  0.00    +0.101 C 
ATOM      2  C   UNL     1       1.367  -1.658  -4.838  0.00  0.00    +0.008 A 
ATOM      3  C   UNL     1       0.053  -1.260  -5.014  0.00  0.00    +0.012 A 
ATOM      4  C   UNL     1      -0.587  -1.484  -6.216  0.00  0.00    +0.047 A 
ATOM      5  C   UNL     1       0.087  -2.112  -7.255  0.00  0.00    +0.135 A 
ATOM      6  C   UNL     1       1.402  -2.512  -7.082  0.00  0.00    +0.093 A 
ATOM      7  C   UNL     1       2.044  -2.286  -5.872  0.00  0.00    +0.138 A 
ATOM      8  O   UNL     1       3.332  -2.683  -5.719  0.00  0.00    -0.441 OA
ATOM      9  C   UNL     1       4.086  -2.151  -4.743  0.00  0.00    +0.199 C 
ATOM     10  C   UNL     1       3.537  -1.533  -3.674  0.00  0.00    +0.098 C 
ENDROOT
BRANCH   1  16
ATOM     11  C   UNL     1       0.921  -1.976  -1.354  0.00  0.00    +0.125 A 
ATOM     12  C   UNL     1       0.470  -2.903  -0.425  0.00  0.00    +0.046 A 
ATOM     13  C   UNL     1       0.666  -4.252  -0.646  0.00  0.00    +0.004 A 
ATOM     14  C   UNL     1       1.311  -4.679  -1.792  0.00  0.00    +0.001 A 
ATOM     15  C   UNL     1       1.761  -3.758  -2.720  0.00  0.00    +0.008 A 
ATOM     16  C   UNL     1       1.562  -2.408  -2.506  0.00  0.00    +0.007 A 
BRANCH  11  17
ATOM     17  O   UNL     1       0.729  -0.648  -1.139  0.00  0.00    -0.492 OA
BRANCH  17  19
ATOM     18  C   UNL     1      -0.062   1.247   0.135  0.00  0.00    +0.048 C 
ATOM     19  C   UNL     1       0.061  -0.276   0.069  0.00  0.00    +0.225 C 
ENDBRANCH  17  19
ENDBRANCH  11  17
ENDBRANCH   1  16
BRANCH   9  20
ATOM     20  N   UNL     1       5.453  -2.240  -4.833  0.00  0.00    -0.328 N 
ATOM     21  H   UNL     1       5.860  -2.682  -5.595  0.00  0.00    +0.145 HD
ATOM     22  H   UNL     1       6.011  -1.861  -4.136  0.00  0.00    +0.145 HD
ENDBRANCH   9  20
BRANCH  10  23
ATOM     23  C   UNL     1       4.397  -0.988  -2.667  0.00  0.00    +0.101 C 
ATOM     24  N   UNL     1       5.079  -0.555  -1.869  0.00  0.00    -0.191 NA
ENDBRANCH  10  23
BRANCH   5  25
ATOM     25  O   UNL     1      -0.543  -2.334  -8.439  0.00  0.00    -0.423 OA
BRANCH  25  26
ATOM     26  C   UNL     1      -0.834  -3.603  -8.769  0.00  0.00    +0.350 C 
ATOM     27  O   UNL     1      -0.632  -4.494  -7.980  0.00  0.00    -0.247 OA
BRANCH  26  28
ATOM     28  C   UNL     1      -1.413  -3.913 -10.126  0.00  0.00    +0.349 C 
BRANCH  28  29
ATOM     29  O   UNL     1      -1.634  -5.321 -10.238  0.00  0.00    -0.481 OA
BRANCH  29  30
ATOM     30  C   UNL     1      -2.157  -5.772 -11.408  0.00  0.00    +0.121 A 
ATOM     31  C   UNL     1      -2.445  -4.879 -12.430  0.00  0.00    +0.046 A 
ATOM     32  C   UNL     1      -2.975  -5.340 -13.620  0.00  0.00    +0.007 A 
ATOM     33  C   UNL     1      -3.220  -6.690 -13.791  0.00  0.00    -0.045 A 
ATOM     34  C   UNL     1      -2.934  -7.582 -12.774  0.00  0.00    +0.007 A 
ATOM     35  C   UNL     1      -2.398  -7.127 -11.585  0.00  0.00    +0.046 A 
BRANCH  33  36
ATOM     36  C   UNL     1      -3.800  -7.190 -15.089  0.00  0.00    +0.013 C 
ATOM     37  C   UNL     1      -2.830  -8.185 -15.731  0.00  0.00    +0.012 C 
ATOM     38  C   UNL     1      -5.136  -7.884 -14.818  0.00  0.00    +0.012 C 
ENDBRANCH  33  36
ENDBRANCH  29  30
ENDBRANCH  28  29
ENDBRANCH  26  28
ENDBRANCH  25  26
ENDBRANCH   5  25
TORSDOF 11
