REMARK  Name = ZINC39617540
REMARK  14 active torsions:
REMARK  status: ('A' for Active; 'I' for Inactive)
REMARK    1  A    between atoms: C_1  and  C_2
REMARK    2  A    between atoms: C_2  and  C_3
REMARK    3  A    between atoms: C_3  and  C_5
REMARK    4  A    between atoms: C_3  and  N_35
REMARK    5  A    between atoms: C_9  and  S_18
REMARK    6  A    between atoms: N_10  and  C_11
REMARK    7  A    between atoms: C_11  and  C_12
REMARK    8  A    between atoms: S_18  and  C_19
REMARK    9  A    between atoms: C_19  and  C_20
REMARK   10  A    between atoms: C_25  and  C_34
REMARK   11  A    between atoms: C_26  and  C_31
REMARK   12  A    between atoms: C_31  and  C_33
REMARK   13  A    between atoms: N_35  and  C_36
REMARK   14  A    between atoms: N_35  and  C_37
REMARK                            x       y       z     vdW  Elec       q    Type
REMARK                         _______ _______ _______ _____ _____    ______ ____
ROOT
ATOM      1  C   UNL     1      -1.474  -1.928  -0.380  0.00  0.00    +0.164 C 
ATOM      2  N   UNL     1      -0.685  -2.567   0.687  0.00  0.00    -0.248 N 
ATOM      3  N   UNL     1       0.339  -3.273   0.045  0.00  0.00    -0.163 NA
ATOM      4  C   UNL     1       0.270  -3.145  -1.237  0.00  0.00    +0.176 C 
ATOM      5  N   UNL     1      -0.800  -2.345  -1.621  0.00  0.00    -0.286 N 
ATOM      6  H   UNL     1      -0.843  -2.510   1.643  0.00  0.00    +0.170 HD
ENDROOT
BRANCH   1   7
ATOM      7  C   UNL     1      -1.439  -0.405  -0.235  0.00  0.00    -0.029 C 
BRANCH   7   8
ATOM      8  N   UNL     1      -2.041  -0.021   1.048  0.00  0.00    +0.380 N 
ATOM      9  C   UNL     1      -1.899   1.429   1.242  0.00  0.00    -0.096 C 
ATOM     10  C   UNL     1      -3.466  -0.378   1.047  0.00  0.00    -0.096 C 
ATOM     11  H   UNL     1      -1.573  -0.507   1.798  0.00  0.00    -0.082 HD
ENDBRANCH   7   8
BRANCH   7  13
ATOM     12  C   UNL     1       0.767  -0.453   0.938  0.00  0.00    +0.002 C 
ATOM     13  C   UNL     1       0.012   0.078  -0.283  0.00  0.00    -0.015 C 
ENDBRANCH   7  13
ENDBRANCH   1   7
BRANCH   5  14
ATOM     14  C   UNL     1      -1.183  -1.986  -2.989  0.00  0.00    +0.144 C 
BRANCH  14  15
ATOM     15  C   UNL     1      -2.164  -3.000  -3.519  0.00  0.00    -0.030 A 
ATOM     16  C   UNL     1      -1.705  -4.155  -4.124  0.00  0.00    +0.005 A 
ATOM     17  C   UNL     1      -2.604  -5.085  -4.610  0.00  0.00    +0.000 A 
ATOM     18  C   UNL     1      -3.963  -4.861  -4.491  0.00  0.00    +0.000 A 
ATOM     19  C   UNL     1      -4.422  -3.706  -3.885  0.00  0.00    +0.000 A 
ATOM     20  C   UNL     1      -3.523  -2.778  -3.395  0.00  0.00    +0.005 A 
ENDBRANCH  14  15
ENDBRANCH   5  14
BRANCH   4  21
ATOM     21  S   UNL     1       1.395  -3.895  -2.367  0.00  0.00    -0.081 S 
BRANCH  21  22
ATOM     22  C   UNL     1       2.549  -4.801  -1.300  0.00  0.00    +0.150 C 
BRANCH  22  23
ATOM     23  C   UNL     1       3.578  -5.498  -2.151  0.00  0.00    +0.134 C 
ATOM     24  N   UNL     1       3.505  -5.359  -3.453  0.00  0.00    -0.160 NA
ATOM     25  C   UNL     1       4.370  -5.937  -4.293  0.00  0.00    +0.271 C 
ATOM     26  O   UNL     1       4.273  -5.786  -5.499  0.00  0.00    -0.268 OA
ATOM     27  C   UNL     1       5.462  -6.776  -3.704  0.00  0.00    +0.071 C 
ATOM     28  C   UNL     1       6.434  -7.444  -4.343  0.00  0.00    -0.038 C 
ATOM     29  C   UNL     1       7.422  -8.222  -3.505  0.00  0.00    +0.145 C 
ATOM     30  S   UNL     1       6.811  -7.888  -1.803  0.00  0.00    -0.090 S 
ATOM     31  C   UNL     1       5.433  -6.852  -2.228  0.00  0.00    +0.112 C 
ATOM     32  N   UNL     1       4.511  -6.215  -1.546  0.00  0.00    -0.227 NA
ATOM     33  C   UNL     1       6.537  -7.421  -5.847  0.00  0.00    +0.041 C 
BRANCH  29  34
ATOM     34  C   UNL     1       7.358  -9.694  -3.822  0.00  0.00    +0.148 C 
ATOM     35  O   UNL     1       8.124 -10.172  -4.624  0.00  0.00    -0.296 OA
ATOM     36  C   UNL     1       6.339 -10.569  -3.139  0.00  0.00    +0.087 C 
ENDBRANCH  29  34
ENDBRANCH  22  23
ENDBRANCH  21  22
ENDBRANCH   4  21
TORSDOF 9
