REMARK  Name = ZINC63808049
REMARK  5 active torsions:
REMARK  status: ('A' for Active; 'I' for Inactive)
REMARK    1  A    between atoms: C_1  and  C_2
REMARK    2  A    between atoms: C_2  and  C_3
REMARK    3  A    between atoms: C_3  and  C_4
REMARK    4  A    between atoms: C_6  and  C_11
REMARK    5  A    between atoms: C_11  and  N_13
REMARK                            x       y       z     vdW  Elec       q    Type
REMARK                         _______ _______ _______ _____ _____    ______ ____
ROOT
ATOM      1  C   UNL     1       1.642  -1.360  -3.518  0.00  0.00    +0.254 C 
ATOM      2  O   UNL     1       0.827  -0.651  -4.074  0.00  0.00    -0.272 OA
ENDROOT
BRANCH   1   3
ATOM      3  N   UNL     1       2.941  -1.119  -3.661  0.00  0.00    -0.156 NA
ATOM      4  C   UNL     1       3.349  -0.100  -4.415  0.00  0.00    +0.164 A 
ATOM      5  N   UNL     1       4.625   0.286  -4.673  0.00  0.00    -0.335 N 
ATOM      6  H   UNL     1       5.368  -0.205  -4.290  0.00  0.00    +0.168 HD
ATOM      7  C   UNL     1       4.861   1.378  -5.486  0.00  0.00    +0.055 A 
ATOM      8  C   UNL     1       6.083   1.941  -5.880  0.00  0.00    +0.027 A 
ATOM      9  C   UNL     1       6.114   3.042  -6.703  0.00  0.00    +0.002 A 
ATOM     10  C   UNL     1       4.946   3.625  -7.166  0.00  0.00    +0.001 A 
ATOM     11  C   UNL     1       3.726   3.088  -6.792  0.00  0.00    +0.017 A 
ATOM     12  C   UNL     1       3.694   1.987  -5.969  0.00  0.00    +0.039 A 
ATOM     13  S   UNL     1       2.402   0.997  -5.266  0.00  0.00    -0.052 S 
ENDBRANCH   1   3
BRANCH   1  15
ATOM     14  C   UNL     1       1.012  -2.081  -1.190  0.00  0.00    +0.093 C 
ATOM     15  C   UNL     1       1.181  -2.514  -2.665  0.00  0.00    +0.169 C 
ATOM     16  S   UNL     1       2.494  -3.799  -2.521  0.00  0.00    -0.051 S 
ATOM     17  N   UNL     1       2.365  -4.071  -0.748  0.00  0.00    -0.199 NA
ATOM     18  N   UNL     1       1.993  -2.715  -0.304  0.00  0.00    -0.242 NA
ATOM     19  H   UNL     1       1.636  -4.735  -0.536  0.00  0.00    +0.154 HD
ATOM     20  H   UNL     1       1.664  -2.727   0.649  0.00  0.00    +0.142 HD
BRANCH  14  21
ATOM     21  C   UNL     1       1.171  -0.562  -1.099  0.00  0.00    +0.021 C 
BRANCH  21  23
ATOM     22  C   UNL     1       0.984   1.422   0.408  0.00  0.00    +0.004 C 
ATOM     23  C   UNL     1       0.824  -0.097   0.317  0.00  0.00    -0.002 C 
ENDBRANCH  21  23
ENDBRANCH  14  21
ENDBRANCH   1  15
TORSDOF 4
