REMARK  Name = ZINC01779917
REMARK  4 active torsions:
REMARK  status: ('A' for Active; 'I' for Inactive)
REMARK    1  A    between atoms: C_4  and  C_7
REMARK    2  A    between atoms: C_17  and  C_19
REMARK    3  A    between atoms: C_22  and  O_25
REMARK    4  A    between atoms: O_25  and  C_26
REMARK                            x       y       z     vdW  Elec       q    Type
REMARK                         _______ _______ _______ _____ _____    ______ ____
ROOT
ATOM      1  C   UNL     1       3.711  -0.707  -0.038  0.00  0.00    +0.019 C 
ATOM      2  C   UNL     1       3.817  -1.591   1.206  0.00  0.00    +0.013 C 
ATOM      3  C   UNL     1       5.150  -2.342   1.187  0.00  0.00    +0.067 C 
ATOM      4  C   UNL     1       5.218  -3.223  -0.065  0.00  0.00    +0.180 C 
ATOM      5  C   UNL     1       5.123  -2.331  -1.308  0.00  0.00    +0.067 C 
ATOM      6  C   UNL     1       3.791  -1.579  -1.292  0.00  0.00    +0.013 C 
ATOM      7  N   UNL     1       6.443  -3.983  -0.083  0.00  0.00    -0.177 NA
ATOM      8  C   UNL     1       6.441  -4.997   1.016  0.00  0.00    +0.138 C 
ATOM      9  C   UNL     1       7.874  -5.453   0.985  0.00  0.00    +0.023 C 
ATOM     10  C   UNL     1       8.548  -4.469   0.358  0.00  0.00    +0.047 C 
ATOM     11  N   UNL     1       7.664  -3.428   0.007  0.00  0.00    -0.273 N 
ATOM     12  C   UNL     1       5.422  -5.998   0.559  0.00  0.00    +0.018 A 
ATOM     13  C   UNL     1       5.586  -7.354   0.659  0.00  0.00    +0.024 A 
ATOM     14  C   UNL     1       4.590  -8.201   0.195  0.00  0.00    +0.018 A 
ATOM     15  C   UNL     1       3.443  -7.670  -0.366  0.00  0.00    +0.019 A 
ATOM     16  C   UNL     1       3.275  -6.303  -0.463  0.00  0.00    +0.047 A 
ATOM     17  C   UNL     1       4.261  -5.447   0.006  0.00  0.00    +0.128 A 
ATOM     18  O   UNL     1       4.096  -4.118  -0.057  0.00  0.00    -0.469 OA
ATOM     19 BR   UNL     1       4.802 -10.075   0.328  0.00  0.00    -0.050 Br
ATOM     20  H   UNL     1       7.891  -2.497  -0.140  0.00  0.00    +0.167 HD
ENDROOT
BRANCH   1  24
ATOM     21  C   UNL     1      -0.017   1.378   0.010  0.00  0.00    +0.000 A 
ATOM     22  C   UNL     1       1.171   2.086   0.002  0.00  0.00    +0.000 A 
ATOM     23  C   UNL     1       2.377   1.411  -0.013  0.00  0.00    +0.004 A 
ATOM     24  C   UNL     1       2.396   0.029  -0.020  0.00  0.00    -0.044 A 
ATOM     25  C   UNL     1       1.208  -0.679  -0.012  0.00  0.00    +0.004 A 
ATOM     26  C   UNL     1       0.002  -0.004   0.002  0.00  0.00    +0.000 A 
ENDBRANCH   1  24
BRANCH  10  27
ATOM     27  C   UNL     1      10.002  -4.478   0.079  0.00  0.00    -0.003 A 
ATOM     28  C   UNL     1      10.781  -5.568   0.469  0.00  0.00    +0.013 A 
ATOM     29  C   UNL     1      12.135  -5.573   0.208  0.00  0.00    +0.046 A 
ATOM     30  C   UNL     1      12.723  -4.496  -0.442  0.00  0.00    +0.127 A 
ATOM     31  C   UNL     1      11.950  -3.410  -0.831  0.00  0.00    +0.046 A 
ATOM     32  C   UNL     1      10.595  -3.401  -0.579  0.00  0.00    +0.013 A 
BRANCH  30  33
ATOM     33  O   UNL     1      14.057  -4.505  -0.697  0.00  0.00    -0.434 OA
BRANCH  33  34
ATOM     34  C   UNL     1      14.597  -3.365  -1.369  0.00  0.00    +0.541 C 
ATOM     35  F   UNL     1      13.977  -3.221  -2.615  0.00  0.00    -0.166 F 
ATOM     36  F   UNL     1      14.369  -2.219  -0.600  0.00  0.00    -0.166 F 
ENDBRANCH  33  34
ENDBRANCH  30  33
ENDBRANCH  10  27
TORSDOF 4
