REMARK  Name = ZINC20437868
REMARK  9 active torsions:
REMARK  status: ('A' for Active; 'I' for Inactive)
REMARK    1  A    between atoms: C_1  and  C_2
REMARK    2  A    between atoms: C_4  and  C_8
REMARK    3  A    between atoms: C_5  and  C_7
REMARK    4  A    between atoms: C_8  and  C_10
REMARK    5  A    between atoms: C_8  and  N_11
REMARK    6  A    between atoms: N_11  and  C_12
REMARK    7  A    between atoms: C_12  and  C_13
REMARK    8  A    between atoms: C_16  and  S_19
REMARK    9  A    between atoms: S_19  and  N_22
REMARK                            x       y       z     vdW  Elec       q    Type
REMARK                         _______ _______ _______ _____ _____    ______ ____
ROOT
ATOM      1  C   UNL     1      -3.993  -0.229  -1.029  0.00  0.00    -0.046 C 
ENDROOT
BRANCH   1   2
ATOM      2  C   UNL     1      -4.032  -1.657  -1.510  0.00  0.00    -0.064 A 
ATOM      3  C   UNL     1      -3.669  -1.958  -2.809  0.00  0.00    +0.003 A 
ATOM      4  C   UNL     1      -3.700  -3.268  -3.249  0.00  0.00    +0.029 A 
ATOM      5  C   UNL     1      -4.103  -4.276  -2.393  0.00  0.00    +0.105 A 
ATOM      6  C   UNL     1      -4.471  -3.973  -1.095  0.00  0.00    +0.029 A 
ATOM      7  C   UNL     1      -4.436  -2.664  -0.654  0.00  0.00    +0.003 A 
BRANCH   5   8
ATOM      8  S   UNL     1      -4.147  -5.945  -2.955  0.00  0.00    +0.056 S 
ATOM      9  O   UNL     1      -3.235  -6.032  -4.041  0.00  0.00    -0.153 OA
ATOM     10  O   UNL     1      -4.036  -6.766  -1.800  0.00  0.00    -0.153 OA
BRANCH   8  11
ATOM     11  N   UNL     1      -5.656  -6.211  -3.582  0.00  0.00    -0.204 NA
ATOM     12  H   UNL     1      -5.725  -7.247  -3.945  0.00  0.00    +0.144 HD
ATOM     13  H   UNL     1      -5.834  -5.517  -4.416  0.00  0.00    +0.144 HD
ENDBRANCH   8  11
ENDBRANCH   5   8
ENDBRANCH   1   2
BRANCH   1  14
ATOM     14  N   UNL     1      -2.670   0.060  -0.460  0.00  0.00    +0.386 N 
ATOM     15  H   UNL     1      -1.909  -0.100  -1.238  0.00  0.00    -0.085 HD
ATOM     16  H   UNL     1      -2.488  -0.628   0.378  0.00  0.00    -0.085 HD
BRANCH  14  17
ATOM     17  C   UNL     1      -2.595   1.447   0.021  0.00  0.00    -0.040 C 
ATOM     18  C   UNL     1      -3.152   1.524   1.444  0.00  0.00    -0.009 C 
BRANCH  17  22
ATOM     19  C   UNL     1       2.499   1.455  -0.015  0.00  0.00    +0.086 C 
ATOM     20  C   UNL     1       1.057   1.892   0.002  0.00  0.00    +0.102 A 
ATOM     21  C   UNL     1      -0.013   1.076   0.008  0.00  0.00    +0.046 A 
ATOM     22  C   UNL     1      -1.159   1.903   0.017  0.00  0.00    -0.021 A 
ATOM     23  C   UNL     1      -0.722   3.175   0.026  0.00  0.00    +0.104 A 
ATOM     24  O   UNL     1       0.621   3.162   0.013  0.00  0.00    -0.465 OA
ATOM     25  C   UNL     1      -1.592   4.406   0.040  0.00  0.00    +0.086 C 
ENDBRANCH  17  22
ENDBRANCH  14  17
ENDBRANCH   1  14
TORSDOF 6
