REMARK  Name = ZINC59006104
REMARK  9 active torsions:
REMARK  status: ('A' for Active; 'I' for Inactive)
REMARK    1  A    between atoms: C_5  and  C_7
REMARK    2  A    between atoms: C_7  and  S_8
REMARK    3  A    between atoms: S_8  and  C_9
REMARK    4  A    between atoms: C_14  and  N_15
REMARK    5  A    between atoms: C_16  and  C_18
REMARK    6  A    between atoms: C_18  and  S_19
REMARK    7  A    between atoms: S_19  and  C_20
REMARK    8  A    between atoms: N_25  and  N_26
REMARK    9  A    between atoms: C_27  and  C_28
REMARK                            x       y       z     vdW  Elec       q    Type
REMARK                         _______ _______ _______ _____ _____    ______ ____
ROOT
ATOM      1  N   UNL     1       1.303  -4.801   3.917  0.00  0.00    -0.284 N 
ATOM      2  C   UNL     1       1.223  -5.591   5.006  0.00  0.00    +0.228 C 
ATOM      3  O   UNL     1       1.238  -6.797   4.883  0.00  0.00    -0.275 OA
ATOM      4  H   UNL     1       1.371  -3.839   4.019  0.00  0.00    +0.155 HD
ENDROOT
BRANCH   1  10
ATOM      5  C   UNL     1       1.862  -4.691   1.562  0.00  0.00    +0.029 A 
ATOM      6  C   UNL     1       1.847  -5.263   0.297  0.00  0.00    +0.016 A 
ATOM      7  C   UNL     1       1.260  -6.499   0.105  0.00  0.00    +0.001 A 
ATOM      8  C   UNL     1       0.685  -7.170   1.170  0.00  0.00    +0.002 A 
ATOM      9  C   UNL     1       0.695  -6.608   2.433  0.00  0.00    +0.024 A 
ATOM     10  C   UNL     1       1.287  -5.370   2.636  0.00  0.00    +0.047 A 
BRANCH   5  11
ATOM     11  S   UNL     1       2.610  -3.115   1.810  0.00  0.00    -0.119 S 
BRANCH  11  12
ATOM     12  C   UNL     1       3.201  -2.645   0.161  0.00  0.00    +0.111 C 
BRANCH  12  17
ATOM     13  C   UNL     1       3.745   1.091   0.107  0.00  0.00    +0.000 A 
ATOM     14  C   UNL     1       5.100   1.177   0.364  0.00  0.00    +0.001 A 
ATOM     15  C   UNL     1       5.842   0.026   0.555  0.00  0.00    +0.020 A 
ATOM     16  C   UNL     1       5.227  -1.212   0.490  0.00  0.00    +0.045 A 
ATOM     17  C   UNL     1       3.871  -1.297   0.233  0.00  0.00    -0.019 A 
ATOM     18  C   UNL     1       3.130  -0.146   0.041  0.00  0.00    +0.006 A 
ATOM     19 CL   UNL     1       6.159  -2.657   0.729  0.00  0.00    -0.083 Cl
ENDBRANCH  12  17
ENDBRANCH  11  12
ENDBRANCH   5  11
ENDBRANCH   1  10
BRANCH   2  20
ATOM     20  C   UNL     1       1.114  -4.974   6.377  0.00  0.00    +0.173 C 
BRANCH  20  21
ATOM     21  S   UNL     1       1.024  -6.287   7.625  0.00  0.00    -0.075 S 
BRANCH  21  22
ATOM     22  C   UNL     1       0.902  -5.417   9.152  0.00  0.00    +0.211 A 
ATOM     23  N   UNL     1       0.817  -5.979  10.363  0.00  0.00    -0.186 NA
ATOM     24  C   UNL     1       0.741  -5.040  11.283  0.00  0.00    +0.232 A 
ATOM     25  N   UNL     1       0.777  -3.843  10.660  0.00  0.00    -0.245 N 
ATOM     26  N   UNL     1       0.886  -4.112   9.286  0.00  0.00    -0.144 NA
ATOM     27  N   UNL     1       0.641  -5.245  12.646  0.00  0.00    -0.205 N 
ATOM     28  H   UNL     1       0.590  -4.486  13.248  0.00  0.00    +0.177 HD
ATOM     29  H   UNL     1       0.738  -2.969  11.079  0.00  0.00    +0.192 HD
BRANCH  27  30
ATOM     30  N   UNL     1       0.615  -6.548  13.159  0.00  0.00    -0.184 NA
ATOM     31  C   UNL     1       0.521  -6.741  14.442  0.00  0.00    +0.176 C 
BRANCH  31  32
ATOM     32  C   UNL     1       0.493  -8.105  14.979  0.00  0.00    +0.147 A 
ATOM     33  C   UNL     1       0.393  -8.447  16.296  0.00  0.00    +0.051 A 
ATOM     34  C   UNL     1       0.403  -9.853  16.352  0.00  0.00    +0.042 A 
ATOM     35  C   UNL     1       0.507 -10.299  15.084  0.00  0.00    +0.196 A 
ATOM     36  O   UNL     1       0.557  -9.242  14.257  0.00  0.00    -0.462 OA
ENDBRANCH  31  32
ENDBRANCH  27  30
ENDBRANCH  21  22
ENDBRANCH  20  21
ENDBRANCH   2  20
TORSDOF 9
