REMARK  Name = ZINC16425724
REMARK  10 active torsions:
REMARK  status: ('A' for Active; 'I' for Inactive)
REMARK    1  A    between atoms: C_1  and  C_2
REMARK    2  A    between atoms: C_5  and  N_8
REMARK    3  A    between atoms: C_18  and  C_19
REMARK    4  A    between atoms: C_19  and  C_21
REMARK    5  A    between atoms: C_19  and  N_22
REMARK    6  A    between atoms: N_22  and  C_23
REMARK    7  A    between atoms: C_23  and  C_24
REMARK    8  A    between atoms: N_31  and  C_32
REMARK    9  A    between atoms: C_33  and  C_39
REMARK   10  A    between atoms: C_37  and  C_38
REMARK                            x       y       z     vdW  Elec       q    Type
REMARK                         _______ _______ _______ _____ _____    ______ ____
ROOT
ATOM      1  C   UNL     1      -3.235   1.250   0.521  0.00  0.00    +0.141 C 
ATOM      2  C   UNL     1      -4.147   1.151  -0.704  0.00  0.00    +0.036 C 
ENDROOT
BRANCH   1  13
ATOM      3  N   UNL     1      -3.357   0.662   2.910  0.00  0.00    -0.263 N 
ATOM      4  C   UNL     1      -3.856  -0.033   3.959  0.00  0.00    +0.266 A 
ATOM      5  O   UNL     1      -3.453   0.155   5.092  0.00  0.00    -0.267 OA
ATOM      6  C   UNL     1      -4.900  -1.029   3.675  0.00  0.00    +0.065 A 
ATOM      7  C   UNL     1      -5.475  -1.801   4.683  0.00  0.00    +0.015 A 
ATOM      8  C   UNL     1      -6.449  -2.720   4.362  0.00  0.00    +0.001 A 
ATOM      9  C   UNL     1      -6.862  -2.882   3.045  0.00  0.00    +0.002 A 
ATOM     10  C   UNL     1      -6.306  -2.129   2.035  0.00  0.00    +0.028 A 
ATOM     11  C   UNL     1      -5.317  -1.191   2.335  0.00  0.00    +0.078 A 
ATOM     12  N   UNL     1      -4.743  -0.429   1.371  0.00  0.00    -0.231 NA
ATOM     13  C   UNL     1      -3.823   0.443   1.650  0.00  0.00    +0.138 A 
BRANCH   3  18
ATOM     14  C   UNL     1       0.693   4.540   3.781  0.00  0.00    +0.044 C 
ATOM     15  C   UNL     1      -0.383   3.510   3.549  0.00  0.00    -0.050 A 
ATOM     16  C   UNL     1      -1.674   3.913   3.262  0.00  0.00    +0.005 A 
ATOM     17  C   UNL     1      -2.662   2.972   3.050  0.00  0.00    +0.026 A 
ATOM     18  C   UNL     1      -2.358   1.619   3.124  0.00  0.00    +0.051 A 
ATOM     19  C   UNL     1      -1.061   1.217   3.418  0.00  0.00    +0.026 A 
ATOM     20  C   UNL     1      -0.076   2.163   3.624  0.00  0.00    +0.005 A 
ENDBRANCH   3  18
ENDBRANCH   1  13
BRANCH   1  21
ATOM     21  N   UNL     1      -1.908   0.727   0.186  0.00  0.00    -0.268 N 
ATOM     22  C   UNL     1      -0.844   1.553   0.167  0.00  0.00    +0.307 C 
ATOM     23  O   UNL     1      -0.984   2.732   0.428  0.00  0.00    -0.252 OA
ATOM     24  N   UNL     1       0.377   1.072  -0.141  0.00  0.00    -0.269 N 
ATOM     25  H   UNL     1       0.476   0.153  -0.435  0.00  0.00    +0.156 HD
BRANCH  24  26
ATOM     26  C   UNL     1       1.501   1.900  -0.042  0.00  0.00    +0.041 A 
ATOM     27  C   UNL     1       1.552   3.091  -0.754  0.00  0.00    -0.029 A 
ATOM     28  C   UNL     1       2.660   3.909  -0.650  0.00  0.00    +0.005 A 
ATOM     29  C   UNL     1       3.723   3.537   0.153  0.00  0.00    +0.001 A 
ATOM     30  C   UNL     1       3.677   2.349   0.859  0.00  0.00    +0.005 A 
ATOM     31  C   UNL     1       2.570   1.529   0.763  0.00  0.00    -0.029 A 
ATOM     32  C   UNL     1       2.521   0.234   1.533  0.00  0.00    +0.045 C 
ATOM     33  C   UNL     1       0.398   3.494  -1.635  0.00  0.00    +0.045 C 
ENDBRANCH  24  26
BRANCH  21  34
ATOM     34  C   UNL     1      -1.739  -0.694  -0.129  0.00  0.00    +0.184 C 
BRANCH  34  35
ATOM     35  C   UNL     1      -1.298  -1.433   1.108  0.00  0.00    +0.122 A 
ATOM     36  C   UNL     1      -2.102  -2.099   1.955  0.00  0.00    +0.046 A 
ATOM     37  C   UNL     1      -1.275  -2.637   2.968  0.00  0.00    +0.041 A 
ATOM     38  C   UNL     1      -0.015  -2.268   2.679  0.00  0.00    +0.195 A 
ATOM     39  O   UNL     1      -0.034  -1.543   1.548  0.00  0.00    -0.466 OA
ENDBRANCH  34  35
ENDBRANCH  21  34
ENDBRANCH   1  21
TORSDOF 6
