REMARK  Name = ZINC05695282
REMARK  5 active torsions:
REMARK  status: ('A' for Active; 'I' for Inactive)
REMARK    1  A    between atoms: C_1  and  C_2
REMARK    2  A    between atoms: C_2  and  C_3
REMARK    3  A    between atoms: C_7  and  C_28
REMARK    4  A    between atoms: C_8  and  N_9
REMARK    5  A    between atoms: N_17  and  C_21
REMARK                            x       y       z     vdW  Elec       q    Type
REMARK                         _______ _______ _______ _____ _____    ______ ____
ROOT
ATOM      1  N   UNL     1       2.428   1.645  -0.016  0.00  0.00    -0.234 NA
ATOM      2  C   UNL     1       2.961   1.288  -1.147  0.00  0.00    +0.125 C 
ATOM      3  C   UNL     1       4.295   0.609  -1.360  0.00  0.00    +0.097 C 
ATOM      4  C   UNL     1       4.316  -0.749  -0.667  0.00  0.00    +0.034 C 
ATOM      5  C   UNL     1       5.663  -1.432  -0.919  0.00  0.00    +0.003 C 
ATOM      6  C   UNL     1       6.790  -0.548  -0.382  0.00  0.00    +0.000 C 
ATOM      7  C   UNL     1       6.770   0.802  -1.102  0.00  0.00    +0.003 C 
ATOM      8  C   UNL     1       5.428   1.493  -0.850  0.00  0.00    +0.034 C 
ATOM      9  N   UNL     1       4.385   0.441  -2.816  0.00  0.00    -0.269 N 
ATOM     10  C   UNL     1       3.261   0.963  -3.341  0.00  0.00    +0.143 C 
ATOM     11  S   UNL     1       2.925   0.998  -5.019  0.00  0.00    -0.018 S 
ATOM     12  N   UNL     1       2.435   1.452  -2.408  0.00  0.00    -0.283 N 
ATOM     13  H   UNL     1       1.454   1.933  -2.536  0.00  0.00    +0.155 HD
ENDROOT
BRANCH   1  19
ATOM     14  C   UNL     1       1.115   3.651  -0.076  0.00  0.00    -0.022 A 
ATOM     15  C   UNL     1      -0.121   4.264  -0.058  0.00  0.00    +0.006 A 
ATOM     16  C   UNL     1      -1.272   3.504   0.035  0.00  0.00    +0.001 A 
ATOM     17  C   UNL     1      -1.193   2.124   0.106  0.00  0.00    +0.005 A 
ATOM     18  C   UNL     1       0.036   1.499   0.095  0.00  0.00    -0.025 A 
ATOM     19  C   UNL     1       1.202   2.261   0.001  0.00  0.00    +0.072 A 
ATOM     20  C   UNL     1       0.121  -0.003   0.178  0.00  0.00    +0.046 C 
BRANCH  14  22
ATOM     21  C   UNL     1       2.802   4.575  -1.641  0.00  0.00    +0.009 C 
ATOM     22  C   UNL     1       2.369   4.481  -0.177  0.00  0.00    +0.034 C 
ENDBRANCH  14  22
ENDBRANCH   1  19
BRANCH   9  23
ATOM     23  C   UNL     1       5.441  -0.144  -3.523  0.00  0.00    +0.038 A 
ATOM     24  C   UNL     1       6.548  -0.632  -2.841  0.00  0.00    +0.023 A 
ATOM     25  C   UNL     1       7.587  -1.215  -3.541  0.00  0.00    +0.003 A 
ATOM     26  C   UNL     1       7.530  -1.302  -4.920  0.00  0.00    +0.020 A 
ATOM     27  C   UNL     1       6.431  -0.812  -5.603  0.00  0.00    +0.043 A 
ATOM     28  C   UNL     1       5.386  -0.233  -4.907  0.00  0.00    +0.043 A 
ATOM     29 CL   UNL     1       6.364  -0.924  -7.334  0.00  0.00    -0.083 Cl
ENDBRANCH   9  23
TORSDOF 3
