REMARK  Name = ZINC33260265
REMARK  11 active torsions:
REMARK  status: ('A' for Active; 'I' for Inactive)
REMARK    1  A    between atoms: C_1  and  C_2
REMARK    2  A    between atoms: C_2  and  N_3
REMARK    3  A    between atoms: N_3  and  C_4
REMARK    4  A    between atoms: N_3  and  C_6
REMARK    5  A    between atoms: C_4  and  C_5
REMARK    6  A    between atoms: C_6  and  C_7
REMARK    7  A    between atoms: C_7  and  C_8
REMARK    8  A    between atoms: C_8  and  N_9
REMARK    9  A    between atoms: C_10  and  C_12
REMARK   10  A    between atoms: C_24  and  C_27
REMARK   11  A    between atoms: C_30  and  C_33
REMARK                            x       y       z     vdW  Elec       q    Type
REMARK                         _______ _______ _______ _____ _____    ______ ____
ROOT
ATOM      1  C   UNL     1      -1.328   1.937  -0.010  0.00  0.00    +0.078 C 
ATOM      2  C   UNL     1      -1.426   2.828   1.231  0.00  0.00    +0.031 C 
ATOM      3  C   UNL     1      -2.790   3.522   1.248  0.00  0.00    +0.107 C 
ATOM      4  N   UNL     1      -3.856   2.512   1.262  0.00  0.00    -0.314 N 
ATOM      5  C   UNL     1      -3.810   1.675   0.057  0.00  0.00    +0.107 C 
ATOM      6  C   UNL     1      -2.477   0.925   0.005  0.00  0.00    +0.031 C 
ATOM      7  C   UNL     1      -5.104   3.106   1.410  0.00  0.00    +0.142 A 
ATOM      8  C   UNL     1      -5.348   3.950   2.510  0.00  0.00    +0.049 A 
ATOM      9  C   UNL     1      -6.565   4.537   2.664  0.00  0.00    +0.053 A 
ATOM     10  C   UNL     1      -7.571   4.289   1.712  0.00  0.00    +0.178 A 
ATOM     11  N   UNL     1      -8.825   4.696   1.580  0.00  0.00    -0.128 NA
ATOM     12  N   UNL     1      -9.337   4.178   0.518  0.00  0.00    -0.127 NA
ATOM     13  C   UNL     1      -8.447   3.414  -0.088  0.00  0.00    +0.185 A 
ATOM     14  N   UNL     1      -7.302   3.462   0.650  0.00  0.00    -0.191 N 
ATOM     15  N   UNL     1      -6.040   2.879   0.518  0.00  0.00    -0.148 NA
ENDROOT
BRANCH  13  16
ATOM     16  C   UNL     1      -8.654   2.650  -1.336  0.00  0.00    +0.021 A 
ATOM     17  C   UNL     1      -7.750   1.652  -1.704  0.00  0.00    +0.012 A 
ATOM     18  C   UNL     1      -7.952   0.939  -2.868  0.00  0.00    +0.004 A 
ATOM     19  C   UNL     1      -9.041   1.218  -3.674  0.00  0.00    -0.050 A 
ATOM     20  C   UNL     1      -9.938   2.209  -3.317  0.00  0.00    +0.004 A 
ATOM     21  C   UNL     1      -9.751   2.926  -2.154  0.00  0.00    +0.012 A 
ATOM     22  C   UNL     1      -9.252   0.439  -4.947  0.00  0.00    +0.044 C 
ENDBRANCH  13  16
BRANCH   1  24
ATOM     23  N   UNL     1       1.145   1.895  -0.013  0.00  0.00    -0.315 N 
ATOM     24  C   UNL     1      -0.011   1.204  -0.000  0.00  0.00    +0.216 C 
ATOM     25  O   UNL     1       0.008  -0.009   0.014  0.00  0.00    -0.276 OA
ATOM     26  H   UNL     1       1.128   2.995  -0.026  0.00  0.00    +0.149 HD
BRANCH  23  27
ATOM     27  C   UNL     1       2.425   1.183  -0.010  0.00  0.00    +0.102 C 
BRANCH  27  28
ATOM     28  C   UNL     1       3.573   2.195  -0.027  0.00  0.00    +0.000 C 
BRANCH  28  29
ATOM     29  C   UNL     1       4.909   1.450  -0.024  0.00  0.00    -0.077 C 
BRANCH  29  30
ATOM     30  N   UNL     1       6.008   2.416  -0.164  0.00  0.00    +0.379 N 
ATOM     31  H   UNL     1       5.714   3.154  -0.924  0.00  0.00    -0.082 HD
BRANCH  30  33
ATOM     32  C   UNL     1       7.210   4.293   0.851  0.00  0.00    -0.017 C 
ATOM     33  C   UNL     1       6.241   3.134   1.096  0.00  0.00    -0.082 C 
ENDBRANCH  30  33
BRANCH  30  34
ATOM     34  C   UNL     1       7.234   1.754  -0.628  0.00  0.00    -0.082 C 
ATOM     35  C   UNL     1       7.114   1.444  -2.121  0.00  0.00    -0.017 C 
ENDBRANCH  30  34
ENDBRANCH  29  30
ENDBRANCH  28  29
ENDBRANCH  27  28
ENDBRANCH  23  27
ENDBRANCH   1  24
TORSDOF 8
