REMARK  Name = ZINC20836979
REMARK  13 active torsions:
REMARK  status: ('A' for Active; 'I' for Inactive)
REMARK    1  A    between atoms: C_1  and  C_2
REMARK    2  A    between atoms: C_3  and  C_9
REMARK    3  A    between atoms: C_4  and  C_8
REMARK    4  A    between atoms: N_5  and  C_7
REMARK    5  A    between atoms: N_10  and  N_11
REMARK    6  A    between atoms: C_14  and  S_17
REMARK    7  A    between atoms: S_17  and  C_18
REMARK    8  A    between atoms: C_18  and  C_19
REMARK    9  A    between atoms: N_21  and  C_22
REMARK   10  A    between atoms: C_24  and  C_30
REMARK   11  A    between atoms: C_24  and  C_31
REMARK   12  A    between atoms: C_26  and  C_28
REMARK   13  A    between atoms: C_26  and  C_29
REMARK                            x       y       z     vdW  Elec       q    Type
REMARK                         _______ _______ _______ _____ _____    ______ ____
ROOT
ATOM      1  N   UNL     1      -0.560  12.873  -5.128  0.00  0.00    -0.205 N 
ATOM      2  C   UNL     1      -0.390  11.691  -4.422  0.00  0.00    +0.232 A 
ATOM      3  N   UNL     1      -0.510  10.427  -4.930  0.00  0.00    -0.186 NA
ATOM      4  C   UNL     1      -0.267   9.541  -3.919  0.00  0.00    +0.211 A 
ATOM      5  N   UNL     1      -0.012  10.227  -2.831  0.00  0.00    -0.144 NA
ATOM      6  N   UNL     1      -0.084  11.589  -3.151  0.00  0.00    -0.245 N 
ATOM      7  H   UNL     1      -0.816  12.843  -6.197  0.00  0.00    +0.177 HD
ATOM      8  H   UNL     1       0.064  12.496  -2.547  0.00  0.00    +0.192 HD
ENDROOT
BRANCH   1  10
ATOM      9  C   UNL     1      -0.564  15.210  -5.139  0.00  0.00    +0.141 C 
ATOM     10  N   UNL     1      -0.405  14.105  -4.479  0.00  0.00    -0.187 NA
BRANCH   9  13
ATOM     11  C   UNL     1       0.169  15.616  -2.080  0.00  0.00    +0.068 C 
ATOM     12  C   UNL     1      -0.075  16.703  -3.095  0.00  0.00    +0.069 A 
ATOM     13  C   UNL     1      -0.401  16.508  -4.455  0.00  0.00    +0.038 A 
ATOM     14  C   UNL     1      -0.533  17.755  -5.026  0.00  0.00    +0.045 A 
ATOM     15  N   UNL     1      -0.308  18.668  -4.059  0.00  0.00    -0.271 N 
ATOM     16  N   UNL     1      -0.022  17.988  -2.870  0.00  0.00    -0.176 NA
ATOM     17  C   UNL     1      -0.349  20.122  -4.227  0.00  0.00    +0.172 C 
ATOM     18  C   UNL     1      -0.871  18.046  -6.466  0.00  0.00    +0.066 C 
ENDBRANCH   9  13
ENDBRANCH   1  10
BRANCH   4  19
ATOM     19  S   UNL     1      -0.297   7.784  -4.052  0.00  0.00    -0.075 S 
BRANCH  19  20
ATOM     20  C   UNL     1       0.105   7.210  -2.379  0.00  0.00    +0.173 C 
BRANCH  20  21
ATOM     21  C   UNL     1       0.113   5.703  -2.353  0.00  0.00    +0.224 C 
ATOM     22  O   UNL     1      -0.129   5.078  -3.364  0.00  0.00    -0.275 OA
ATOM     23  N   UNL     1       0.389   5.051  -1.207  0.00  0.00    -0.312 N 
ATOM     24  H   UNL     1       0.608   5.617  -0.290  0.00  0.00    +0.149 HD
BRANCH  23  25
ATOM     25  C   UNL     1       0.396   3.583  -1.181  0.00  0.00    +0.070 C 
ATOM     26  C   UNL     1       1.298   3.104  -0.042  0.00  0.00    +0.009 C 
ATOM     27  C   UNL     1       1.320   1.577  -0.002  0.00  0.00    -0.072 C 
ATOM     28  N   UNL     1      -0.012   1.005   0.008  0.00  0.00    +0.386 N 
ATOM     29  C   UNL     1      -1.042   1.551  -0.852  0.00  0.00    -0.072 C 
ATOM     30  C   UNL     1      -1.022   3.076  -0.918  0.00  0.00    +0.009 C 
ATOM     31  C   UNL     1      -0.944   0.975  -2.269  0.00  0.00    -0.010 C 
ATOM     32  C   UNL     1      -2.415   1.129  -0.282  0.00  0.00    -0.010 C 
ATOM     33  C   UNL     1       2.035   1.156   1.301  0.00  0.00    -0.010 C 
ATOM     34  C   UNL     1       2.151   1.041  -1.172  0.00  0.00    -0.010 C 
ATOM     35  H   UNL     1       0.042  -0.055  -0.283  0.00  0.00    -0.084 HD
ATOM     36  H   UNL     1      -0.438   1.086   1.018  0.00  0.00    -0.084 HD
ENDBRANCH  23  25
ENDBRANCH  20  21
ENDBRANCH  19  20
ENDBRANCH   4  19
TORSDOF 6
