REMARK  Name = ZINC64053313
REMARK  7 active torsions:
REMARK  status: ('A' for Active; 'I' for Inactive)
REMARK    1  A    between atoms: C_1  and  C_2
REMARK    2  A    between atoms: C_3  and  C_31
REMARK    3  A    between atoms: C_4  and  O_29
REMARK    4  A    between atoms: C_7  and  C_8
REMARK    5  A    between atoms: N_22  and  C_23
REMARK    6  A    between atoms: C_23  and  C_24
REMARK    7  A    between atoms: O_29  and  C_30
REMARK                            x       y       z     vdW  Elec       q    Type
REMARK                         _______ _______ _______ _____ _____    ______ ____
ROOT
ATOM      1  C   UNL     1       0.208  -0.060   2.556  0.00  0.00    +0.114 C 
ATOM      2  C   UNL     1      -1.194   0.132   3.140  0.00  0.00    +0.128 C 
ATOM      3  C   UNL     1      -1.726  -1.265   3.438  0.00  0.00    -0.035 C 
ATOM      4  C   UNL     1      -2.895  -1.360   2.820  0.00  0.00    -0.001 A 
ATOM      5  C   UNL     1      -3.914  -2.423   2.803  0.00  0.00    +0.010 A 
ATOM      6  C   UNL     1      -5.010  -2.191   2.034  0.00  0.00    +0.001 A 
ATOM      7  C   UNL     1      -5.193  -1.022   1.287  0.00  0.00    +0.002 A 
ATOM      8  C   UNL     1      -4.312   0.008   1.248  0.00  0.00    +0.026 A 
ATOM      9  C   UNL     1      -3.122  -0.116   2.022  0.00  0.00    +0.043 A 
ATOM     10  N   UNL     1      -2.124   0.732   2.186  0.00  0.00    -0.376 N 
ATOM     11  C   UNL     1      -0.916  -2.273   4.217  0.00  0.00    +0.049 C 
ATOM     12  C   UNL     1       0.492  -2.264   3.595  0.00  0.00    +0.090 C 
ATOM     13  N   UNL     1       0.989  -0.888   3.488  0.00  0.00    -0.286 NA
ATOM     14  H   UNL     1      -2.017   1.594   1.754  0.00  0.00    +0.160 HD
ENDROOT
BRANCH   1  21
ATOM     15  C   UNL     1       1.450   1.114   0.229  0.00  0.00    +0.044 C 
ATOM     16  C   UNL     1       0.705  -0.190   0.106  0.00  0.00    -0.039 A 
ATOM     17  C   UNL     1       0.622  -0.826  -1.117  0.00  0.00    -0.006 A 
ATOM     18  C   UNL     1      -0.063  -2.026  -1.229  0.00  0.00    +0.123 A 
ATOM     19  C   UNL     1      -0.664  -2.586  -0.111  0.00  0.00    +0.046 A 
ATOM     20  C   UNL     1      -0.578  -1.947   1.111  0.00  0.00    +0.009 A 
ATOM     21  C   UNL     1       0.110  -0.753   1.220  0.00  0.00    -0.025 A 
ATOM     22  C   UNL     1       1.275  -0.214  -2.330  0.00  0.00    +0.048 C 
BRANCH  18  23
ATOM     23  O   UNL     1      -0.147  -2.653  -2.432  0.00  0.00    -0.495 OA
ATOM     24  C   UNL     1      -0.868  -3.886  -2.472  0.00  0.00    +0.277 C 
ENDBRANCH  18  23
ENDBRANCH   1  21
BRANCH  13  25
ATOM     25  C   UNL     1       2.417  -0.868   3.140  0.00  0.00    +0.157 C 
BRANCH  25  26
ATOM     26  C   UNL     1       3.212  -1.516   4.244  0.00  0.00    +0.099 A 
ATOM     27  N   UNL     1       2.798  -1.694   5.488  0.00  0.00    -0.349 N 
ATOM     28  C   UNL     1       3.784  -2.306   6.177  0.00  0.00    +0.101 A 
ATOM     29  C   UNL     1       4.811  -2.498   5.325  0.00  0.00    +0.101 A 
ATOM     30  N   UNL     1       4.436  -2.006   4.126  0.00  0.00    -0.349 N 
ATOM     31  H   UNL     1       4.972  -2.007   3.318  0.00  0.00    +0.166 HD
ATOM     32  H   UNL     1       1.935  -1.431   5.844  0.00  0.00    +0.166 HD
ENDBRANCH  25  26
ENDBRANCH  13  25
TORSDOF 4
