REMARK  Name = ZINC13031241
REMARK  13 active torsions:
REMARK  status: ('A' for Active; 'I' for Inactive)
REMARK    1  A    between atoms: C_1  and  C_2
REMARK    2  A    between atoms: C_7  and  C_8
REMARK    3  A    between atoms: C_8  and  C_10
REMARK    4  A    between atoms: C_8  and  N_18
REMARK    5  A    between atoms: N_12  and  C_13
REMARK    6  A    between atoms: C_13  and  C_14
REMARK    7  A    between atoms: C_14  and  C_15
REMARK    8  A    between atoms: C_15  and  C_16
REMARK    9  A    between atoms: C_15  and  C_17
REMARK   10  A    between atoms: N_18  and  C_19
REMARK   11  A    between atoms: C_19  and  C_20
REMARK   12  A    between atoms: C_29  and  C_31
REMARK   13  A    between atoms: C_31  and  N_32
REMARK                            x       y       z     vdW  Elec       q    Type
REMARK                         _______ _______ _______ _____ _____    ______ ____
ROOT
ATOM      1  N   UNL     1      -5.454   3.771  -1.431  0.00  0.00    -0.280 N 
ATOM      2  C   UNL     1      -6.176   3.270  -0.409  0.00  0.00    +0.238 C 
ATOM      3  O   UNL     1      -7.006   2.411  -0.617  0.00  0.00    -0.274 OA
ENDROOT
BRANCH   1   4
ATOM      4  C   UNL     1      -5.748   3.359  -2.806  0.00  0.00    +0.193 C 
BRANCH   4  11
ATOM      5  C   UNL     1      -3.215   1.971  -2.744  0.00  0.00    +0.044 C 
ATOM      6  C   UNL     1      -4.499   1.191  -2.869  0.00  0.00    -0.045 A 
ATOM      7  C   UNL     1      -4.464  -0.188  -2.950  0.00  0.00    +0.004 A 
ATOM      8  C   UNL     1      -5.641  -0.903  -3.070  0.00  0.00    +0.000 A 
ATOM      9  C   UNL     1      -6.853  -0.238  -3.105  0.00  0.00    +0.000 A 
ATOM     10  C   UNL     1      -6.888   1.141  -3.020  0.00  0.00    +0.006 A 
ATOM     11  C   UNL     1      -5.710   1.855  -2.899  0.00  0.00    -0.015 A 
ENDBRANCH   4  11
BRANCH   4  12
ATOM     12  C   UNL     1      -7.117   3.852  -3.197  0.00  0.00    +0.238 C 
ATOM     13  O   UNL     1      -7.857   4.319  -2.356  0.00  0.00    -0.273 OA
ATOM     14  N   UNL     1      -7.521   3.776  -4.480  0.00  0.00    -0.313 N 
ATOM     15  H   UNL     1      -6.960   3.337  -5.139  0.00  0.00    +0.149 HD
BRANCH  14  16
ATOM     16  C   UNL     1      -8.806   4.355  -4.880  0.00  0.00    +0.104 C 
BRANCH  16  17
ATOM     17  C   UNL     1      -9.021   4.132  -6.379  0.00  0.00    +0.022 C 
BRANCH  17  18
ATOM     18  C   UNL     1     -10.363   4.737  -6.797  0.00  0.00    -0.016 C 
ATOM     19  C   UNL     1     -10.522   4.625  -8.314  0.00  0.00    +0.007 C 
ATOM     20  C   UNL     1     -11.500   3.980  -6.107  0.00  0.00    +0.007 C 
ENDBRANCH  17  18
ENDBRANCH  16  17
ENDBRANCH  14  16
ENDBRANCH   4  12
ENDBRANCH   1   4
BRANCH   1  21
ATOM     21  C   UNL     1      -4.376   4.727  -1.168  0.00  0.00    +0.144 C 
BRANCH  21  22
ATOM     22  C   UNL     1      -4.898   6.131  -1.333  0.00  0.00    -0.026 A 
ATOM     23  C   UNL     1      -4.920   6.716  -2.586  0.00  0.00    +0.009 A 
ATOM     24  C   UNL     1      -5.403   8.002  -2.743  0.00  0.00    +0.050 A 
ATOM     25  C   UNL     1      -5.856   8.712  -1.643  0.00  0.00    +0.166 A 
ATOM     26  C   UNL     1      -5.829   8.125  -0.380  0.00  0.00    +0.167 A 
ATOM     27  C   UNL     1      -5.349   6.834  -0.231  0.00  0.00    +0.054 A 
ATOM     28  O   UNL     1      -6.322   9.018   0.526  0.00  0.00    -0.453 OA
ATOM     29  C   UNL     1      -6.270  10.299  -0.128  0.00  0.00    +0.466 C 
ATOM     30  O   UNL     1      -6.366   9.972  -1.527  0.00  0.00    -0.453 OA
ENDBRANCH  21  22
ENDBRANCH   1  21
BRANCH   2  31
ATOM     31  C   UNL     1      -5.951   3.778   0.992  0.00  0.00    +0.241 C 
BRANCH  31  32
ATOM     32  N   UNL     1      -6.804   3.035   1.923  0.00  0.00    -0.235 N 
ATOM     33  C   UNL     1      -8.083   3.361   2.306  0.00  0.00    +0.090 A 
ATOM     34  C   UNL     1      -8.954   4.398   1.985  0.00  0.00    +0.029 A 
ATOM     35  C   UNL     1     -10.195   4.443   2.554  0.00  0.00    +0.002 A 
ATOM     36  C   UNL     1     -10.601   3.456   3.443  0.00  0.00    +0.002 A 
ATOM     37  C   UNL     1      -9.768   2.427   3.771  0.00  0.00    +0.032 A 
ATOM     38  C   UNL     1      -8.488   2.360   3.205  0.00  0.00    +0.113 A 
ATOM     39  N   UNL     1      -7.468   1.487   3.332  0.00  0.00    -0.129 NA
ATOM     40  N   UNL     1      -6.475   1.852   2.600  0.00  0.00    -0.064 NA
ENDBRANCH  31  32
ENDBRANCH   2  31
TORSDOF 10
