REMARK  Name = ZINC13064701
REMARK  11 active torsions:
REMARK  status: ('A' for Active; 'I' for Inactive)
REMARK    1  A    between atoms: C_1  and  C_2
REMARK    2  A    between atoms: C_2  and  C_3
REMARK    3  A    between atoms: C_3  and  C_5
REMARK    4  A    between atoms: C_3  and  N_72
REMARK    5  A    between atoms: N_9  and  C_10
REMARK    6  A    between atoms: C_10  and  C_11
REMARK    7  A    between atoms: C_18  and  C_19
REMARK    8  A    between atoms: C_18  and  N_72
REMARK    9  A    between atoms: C_23  and  C_32
REMARK   10  A    between atoms: C_24  and  C_31
REMARK   11  A    between atoms: C_33  and  N_72
REMARK                            x       y       z     vdW  Elec       q    Type
REMARK                         _______ _______ _______ _____ _____    ______ ____
ROOT
ATOM      1  N   UNL     1      -5.413   4.366  -1.315  0.00  0.00    +0.391 N 
ATOM      2  H   UNL     1      -5.236   3.536  -1.892  0.00  0.00    -0.080 HD
ENDROOT
BRANCH   1   3
ATOM      3  C   UNL     1      -4.633   5.501  -1.853  0.00  0.00    -0.067 C 
ATOM      4  C   UNL     1      -5.004   6.797  -1.130  0.00  0.00    -0.015 C 
ATOM      5  C   UNL     1      -4.186   7.954  -1.707  0.00  0.00    -0.002 C 
ATOM      6  C   UNL     1      -4.490   8.099  -3.199  0.00  0.00    -0.000 C 
ATOM      7  C   UNL     1      -4.120   6.802  -3.923  0.00  0.00    -0.002 C 
ATOM      8  C   UNL     1      -4.937   5.645  -3.346  0.00  0.00    -0.015 C 
ENDBRANCH   1   3
BRANCH   1   9
ATOM      9  C   UNL     1      -6.857   4.681  -1.356  0.00  0.00    +0.003 C 
BRANCH   9  10
ATOM     10  C   UNL     1      -7.231   5.593  -0.216  0.00  0.00    +0.138 A 
ATOM     11  N   UNL     1      -6.944   5.420   1.051  0.00  0.00    -0.115 NA
ATOM     12  N   UNL     1      -7.433   6.413   1.709  0.00  0.00    -0.023 NA
ATOM     13  N   UNL     1      -8.033   7.211   0.896  0.00  0.00    -0.044 NA
ATOM     14  N   UNL     1      -7.930   6.740  -0.301  0.00  0.00    -0.226 N 
BRANCH  14  15
ATOM     15  C   UNL     1      -8.473   7.340  -1.522  0.00  0.00    +0.182 C 
BRANCH  15  16
ATOM     16  C   UNL     1      -9.868   6.823  -1.759  0.00  0.00    -0.026 A 
ATOM     17  C   UNL     1     -10.062   5.682  -2.516  0.00  0.00    +0.008 A 
ATOM     18  C   UNL     1     -11.341   5.204  -2.730  0.00  0.00    +0.038 A 
ATOM     19  C   UNL     1     -12.429   5.873  -2.195  0.00  0.00    +0.123 A 
ATOM     20  C   UNL     1     -12.233   7.018  -1.441  0.00  0.00    +0.038 A 
ATOM     21  C   UNL     1     -10.953   7.492  -1.224  0.00  0.00    +0.008 A 
ATOM     22  F   UNL     1     -13.680   5.409  -2.407  0.00  0.00    -0.205 F 
ENDBRANCH  15  16
ENDBRANCH  14  15
ENDBRANCH   9  10
BRANCH   9  24
ATOM     23  C   UNL     1      -7.372   2.507  -2.475  0.00  0.00    +0.002 C 
ATOM     24  C   UNL     1      -7.647   3.375  -1.245  0.00  0.00    -0.011 C 
ENDBRANCH   9  24
ENDBRANCH   1   9
BRANCH   1  25
ATOM     25  C   UNL     1      -4.998   4.082   0.075  0.00  0.00    -0.036 C 
BRANCH  25  26
ATOM     26  C   UNL     1      -3.650   3.408   0.049  0.00  0.00    +0.001 A 
ATOM     27  C   UNL     1      -2.545   4.095   0.429  0.00  0.00    +0.017 A 
ATOM     28  C   UNL     1      -1.250   3.412   0.393  0.00  0.00    -0.001 A 
ATOM     29  C   UNL     1      -0.075   4.068   0.772  0.00  0.00    +0.013 A 
ATOM     30  C   UNL     1       1.117   3.403   0.726  0.00  0.00    -0.047 A 
ATOM     31  C   UNL     1       1.173   2.080   0.307  0.00  0.00    -0.046 A 
ATOM     32  C   UNL     1       0.027   1.414  -0.071  0.00  0.00    +0.030 A 
ATOM     33  C   UNL     1      -1.197   2.073  -0.039  0.00  0.00    +0.049 A 
ATOM     34  N   UNL     1      -2.360   1.429  -0.406  0.00  0.00    -0.322 N 
ATOM     35  H   UNL     1      -2.322   0.505  -0.699  0.00  0.00    +0.169 HD
ATOM     36  C   UNL     1      -3.544   2.065  -0.370  0.00  0.00    +0.251 A 
ATOM     37  O   UNL     1      -4.550   1.466  -0.707  0.00  0.00    -0.268 OA
ATOM     38  C   UNL     1       2.499   1.366   0.266  0.00  0.00    +0.044 C 
ATOM     39  C   UNL     1       2.384   4.110   1.135  0.00  0.00    +0.044 C 
ENDBRANCH  25  26
ENDBRANCH   1  25
TORSDOF 8
