REMARK  Name = ZINC39681369
REMARK  6 active torsions:
REMARK  status: ('A' for Active; 'I' for Inactive)
REMARK    1  A    between atoms: C_5  and  O_7
REMARK    2  A    between atoms: O_7  and  C_8
REMARK    3  A    between atoms: C_8  and  C_9
REMARK    4  A    between atoms: C_9  and  N_10
REMARK    5  A    between atoms: C_11  and  C_13
REMARK    6  A    between atoms: C_24  and  C_26
REMARK                            x       y       z     vdW  Elec       q    Type
REMARK                         _______ _______ _______ _____ _____    ______ ____
ROOT
ATOM      1  C   UNL     1       1.553  -6.181   3.630  0.00  0.00    +0.100 C 
ATOM      2  C   UNL     1       2.982  -5.820   3.167  0.00  0.00    +0.121 C 
ATOM      3  N   UNL     1       3.842  -6.876   3.752  0.00  0.00    -0.300 N 
ATOM      4  C   UNL     1       3.049  -8.120   3.609  0.00  0.00    +0.115 C 
ATOM      5  C   UNL     1       1.600  -7.691   3.917  0.00  0.00    -0.004 C 
ATOM      6  C   UNL     1       0.626  -8.434   3.008  0.00  0.00    -0.010 C 
ATOM      7  C   UNL     1       0.648  -9.926   3.353  0.00  0.00    -0.082 C 
ATOM      8  N   UNL     1       0.273 -10.110   4.760  0.00  0.00    +0.379 N 
ATOM      9  C   UNL     1       1.267  -9.472   5.631  0.00  0.00    -0.082 C 
ATOM     10  C   UNL     1       1.271  -7.961   5.383  0.00  0.00    -0.010 C 
ATOM     11  C   UNL     1       5.069  -6.736   4.292  0.00  0.00    +0.219 C 
ATOM     12  O   UNL     1       5.558  -5.633   4.410  0.00  0.00    -0.275 OA
ATOM     13  H   UNL     1      -0.632  -9.694   4.923  0.00  0.00    -0.086 HD
ATOM     14  H   UNL     1       0.229 -11.096   4.968  0.00  0.00    -0.086 HD
ENDROOT
BRANCH  11  15
ATOM     15  C   UNL     1       5.834  -7.952   4.749  0.00  0.00    +0.079 C 
ATOM     16  C   UNL     1       6.832  -7.552   5.844  0.00  0.00    +0.017 C 
ATOM     17  C   UNL     1       7.463  -8.825   6.412  0.00  0.00    +0.027 C 
ATOM     18  C   UNL     1       7.953  -9.701   5.296  0.00  0.00    -0.031 C 
ATOM     19  C   UNL     1       7.581  -9.580   4.062  0.00  0.00    -0.030 C 
ATOM     20  C   UNL     1       6.612  -8.543   3.572  0.00  0.00    +0.039 C 
ENDBRANCH  11  15
BRANCH   1  22
ATOM     21  N   UNL     1      -0.717  -5.582   2.851  0.00  0.00    -0.312 N 
ATOM     22  C   UNL     1       0.557  -5.887   2.537  0.00  0.00    +0.218 C 
ATOM     23  O   UNL     1       0.904  -5.923   1.375  0.00  0.00    -0.275 OA
ATOM     24  H   UNL     1      -0.995  -5.553   3.780  0.00  0.00    +0.149 HD
BRANCH  21  25
ATOM     25  C   UNL     1      -1.685  -5.296   1.788  0.00  0.00    +0.145 C 
BRANCH  25  26
ATOM     26  C   UNL     1      -3.047  -4.983   2.410  0.00  0.00    +0.248 C 
BRANCH  26  27
ATOM     27  O   UNL     1      -2.957  -3.779   3.174  0.00  0.00    -0.489 OA
BRANCH  27  32
ATOM     28  C   UNL     1      -6.412  -3.655   4.309  0.00  0.00    +0.004 A 
ATOM     29  C   UNL     1      -6.393  -2.497   5.064  0.00  0.00    +0.002 A 
ATOM     30  C   UNL     1      -5.226  -1.767   5.188  0.00  0.00    +0.023 A 
ATOM     31  C   UNL     1      -4.073  -2.194   4.556  0.00  0.00    +0.083 A 
ATOM     32  C   UNL     1      -4.089  -3.356   3.797  0.00  0.00    +0.139 A 
ATOM     33  C   UNL     1      -5.262  -4.086   3.675  0.00  0.00    +0.047 A 
ATOM     34 CL   UNL     1      -2.607  -1.278   4.710  0.00  0.00    -0.080 Cl
ENDBRANCH  27  32
ENDBRANCH  26  27
ENDBRANCH  25  26
ENDBRANCH  21  25
ENDBRANCH   1  22
TORSDOF 6
