REMARK  Name = ZINC35026981
REMARK  9 active torsions:
REMARK  status: ('A' for Active; 'I' for Inactive)
REMARK    1  A    between atoms: C_1  and  C_2
REMARK    2  A    between atoms: C_2  and  C_3
REMARK    3  A    between atoms: C_3  and  C_4
REMARK    4  A    between atoms: C_4  and  N_5
REMARK    5  A    between atoms: N_5  and  C_6
REMARK    6  A    between atoms: C_6  and  C_8
REMARK    7  A    between atoms: C_6  and  C_9
REMARK    8  A    between atoms: N_19  and  C_20
REMARK    9  A    between atoms: N_23  and  C_24
REMARK                            x       y       z     vdW  Elec       q    Type
REMARK                         _______ _______ _______ _____ _____    ______ ____
ROOT
ATOM      1  N   UNL     1       1.927  -2.160  -2.786  0.00  0.00    -0.276 N 
ATOM      2  C   UNL     1       1.534  -2.362  -4.060  0.00  0.00    +0.303 C 
ATOM      3  O   UNL     1       2.289  -2.893  -4.851  0.00  0.00    -0.253 OA
ATOM      4  N   UNL     1       0.306  -1.976  -4.456  0.00  0.00    -0.294 N 
ATOM      5  H   UNL     1      -0.297  -1.552  -3.824  0.00  0.00    +0.151 HD
ENDROOT
BRANCH   4   6
ATOM      6  C   UNL     1      -0.121  -2.195  -5.840  0.00  0.00    +0.037 C 
ATOM      7  C   UNL     1       0.824  -1.454  -6.788  0.00  0.00    +0.029 C 
ATOM      8  C   UNL     1       0.379  -1.683  -8.234  0.00  0.00    -0.008 C 
ATOM      9  C   UNL     1      -1.046  -1.157  -8.419  0.00  0.00    +0.007 C 
ATOM     10  C   UNL     1      -1.991  -1.899  -7.470  0.00  0.00    -0.008 C 
ATOM     11  C   UNL     1      -1.546  -1.669  -6.025  0.00  0.00    +0.029 C 
ATOM     12  C   UNL     1      -1.955  -3.396  -7.783  0.00  0.00    +0.007 C 
ATOM     13  C   UNL     1      -0.531  -3.922  -7.599  0.00  0.00    -0.008 C 
ATOM     14  C   UNL     1       0.414  -3.180  -8.547  0.00  0.00    +0.007 C 
ATOM     15  C   UNL     1      -0.086  -3.692  -6.153  0.00  0.00    +0.029 C 
ENDBRANCH   4   6
BRANCH   1  16
ATOM     16  C   UNL     1       3.262  -2.580  -2.356  0.00  0.00    +0.141 C 
ATOM     17  C   UNL     1       4.045  -1.363  -1.859  0.00  0.00    +0.036 C 
BRANCH  16  18
ATOM     18  C   UNL     1       3.137  -3.586  -1.241  0.00  0.00    +0.133 A 
ATOM     19  N   UNL     1       2.637  -3.193  -0.109  0.00  0.00    -0.232 NA
ATOM     20  C   UNL     1       2.494  -4.042   0.939  0.00  0.00    +0.078 A 
ATOM     21  C   UNL     1       1.956  -3.619   2.156  0.00  0.00    +0.028 A 
ATOM     22  C   UNL     1       1.829  -4.515   3.194  0.00  0.00    +0.002 A 
ATOM     23  C   UNL     1       2.230  -5.837   3.045  0.00  0.00    +0.001 A 
ATOM     24  C   UNL     1       2.763  -6.277   1.854  0.00  0.00    +0.015 A 
ATOM     25  C   UNL     1       2.901  -5.386   0.792  0.00  0.00    +0.065 A 
ATOM     26  C   UNL     1       3.463  -5.800  -0.502  0.00  0.00    +0.262 A 
ATOM     27  O   UNL     1       3.832  -6.944  -0.695  0.00  0.00    -0.267 OA
ATOM     28  N   UNL     1       3.549  -4.860  -1.473  0.00  0.00    -0.298 N 
ATOM     29  C   UNL     1       4.095  -5.219  -2.784  0.00  0.00    +0.154 C 
ENDBRANCH  16  18
ENDBRANCH   1  16
BRANCH   1  30
ATOM     30  C   UNL     1       1.017  -1.520  -1.833  0.00  0.00    +0.110 C 
BRANCH  30  31
ATOM     31  C   UNL     1       1.225  -0.005  -1.867  0.00  0.00    +0.019 C 
BRANCH  31  33
ATOM     32  C   UNL     1       0.484   2.179  -0.906  0.00  0.00    +0.004 C 
ATOM     33  C   UNL     1       0.276   0.663  -0.871  0.00  0.00    -0.002 C 
ENDBRANCH  31  33
ENDBRANCH  30  31
ENDBRANCH   1  30
TORSDOF 6
