REMARK  Name = ZINC34699024
REMARK  13 active torsions:
REMARK  status: ('A' for Active; 'I' for Inactive)
REMARK    1  A    between atoms: C_1  and  C_2
REMARK    2  A    between atoms: C_2  and  C_3
REMARK    3  A    between atoms: C_2  and  C_4
REMARK    4  A    between atoms: C_4  and  N_5
REMARK    5  A    between atoms: N_5  and  C_6
REMARK    6  A    between atoms: C_6  and  C_7
REMARK    7  A    between atoms: N_10  and  C_21
REMARK    8  A    between atoms: C_12  and  C_14
REMARK    9  A    between atoms: C_21  and  C_22
REMARK   10  A    between atoms: C_25  and  N_28
REMARK   11  A    between atoms: N_28  and  C_29
REMARK   12  A    between atoms: N_28  and  C_30
REMARK   13  A    between atoms: C_31  and  C_33
REMARK                            x       y       z     vdW  Elec       q    Type
REMARK                         _______ _______ _______ _____ _____    ______ ____
ROOT
ATOM      1  C   UNL     1      -2.284  -3.304   2.543  0.00  0.00    -0.005 C 
ATOM      2  C   UNL     1      -3.207  -2.572   3.540  0.00  0.00    -0.073 C 
ATOM      3  N   UNL     1      -3.666  -3.633   4.473  0.00  0.00    +0.383 N 
ATOM      4  C   UNL     1      -2.464  -4.479   4.685  0.00  0.00    -0.070 C 
ATOM      5  C   UNL     1      -1.795  -4.560   3.293  0.00  0.00    +0.005 C 
ATOM      6  H   UNL     1      -4.409  -4.173   4.055  0.00  0.00    -0.081 HD
ENDROOT
BRANCH   5   7
ATOM      7  C   UNL     1      -0.294  -4.537   3.431  0.00  0.00    -0.046 A 
ATOM      8  C   UNL     1       0.484  -5.371   2.651  0.00  0.00    +0.006 A 
ATOM      9  C   UNL     1       1.860  -5.350   2.776  0.00  0.00    +0.038 A 
ATOM     10  C   UNL     1       2.460  -4.492   3.683  0.00  0.00    +0.123 A 
ATOM     11  C   UNL     1       1.679  -3.657   4.464  0.00  0.00    +0.038 A 
ATOM     12  C   UNL     1       0.303  -3.676   4.333  0.00  0.00    +0.006 A 
ATOM     13  F   UNL     1       3.805  -4.471   3.806  0.00  0.00    -0.205 F 
ENDBRANCH   5   7
BRANCH   1  14
ATOM     14  C   UNL     1      -1.097  -2.415   2.165  0.00  0.00    +0.110 C 
BRANCH  14  15
ATOM     15  N   UNL     1      -1.553  -1.344   1.276  0.00  0.00    -0.297 N 
ATOM     16  C   UNL     1      -1.327  -1.427  -0.050  0.00  0.00    +0.247 C 
ATOM     17  O   UNL     1      -1.655  -0.513  -0.781  0.00  0.00    -0.270 OA
BRANCH  16  18
ATOM     18  C   UNL     1      -0.682  -2.631  -0.616  0.00  0.00    +0.037 A 
ATOM     19  C   UNL     1      -1.103  -3.902  -0.223  0.00  0.00    +0.013 A 
ATOM     20  C   UNL     1      -0.496  -5.021  -0.755  0.00  0.00    +0.001 A 
ATOM     21  C   UNL     1       0.528  -4.885  -1.676  0.00  0.00    +0.000 A 
ATOM     22  C   UNL     1       0.951  -3.628  -2.069  0.00  0.00    +0.001 A 
ATOM     23  C   UNL     1       0.348  -2.501  -1.549  0.00  0.00    +0.013 A 
ENDBRANCH  16  18
BRANCH  15  24
ATOM     24  C   UNL     1      -2.254  -0.182   1.828  0.00  0.00    +0.111 C 
BRANCH  24  26
ATOM     25  C   UNL     1      -2.003   2.203   2.526  0.00  0.00    +0.009 C 
ATOM     26  C   UNL     1      -1.254   0.951   2.068  0.00  0.00    +0.000 C 
ATOM     27  C   UNL     1      -0.256   0.529   3.148  0.00  0.00    +0.009 C 
ENDBRANCH  24  26
ENDBRANCH  15  24
ENDBRANCH  14  15
ENDBRANCH   1  14
BRANCH   3  28
ATOM     28  C   UNL     1      -4.110  -3.043   5.743  0.00  0.00    -0.043 C 
BRANCH  28  29
ATOM     29  C   UNL     1      -4.684  -4.122   6.625  0.00  0.00    -0.064 A 
ATOM     30  C   UNL     1      -6.032  -4.426   6.555  0.00  0.00    +0.003 A 
ATOM     31  C   UNL     1      -6.561  -5.414   7.361  0.00  0.00    +0.023 A 
ATOM     32  C   UNL     1      -5.739  -6.104   8.243  0.00  0.00    +0.029 A 
ATOM     33  C   UNL     1      -4.386  -5.797   8.310  0.00  0.00    +0.023 A 
ATOM     34  C   UNL     1      -3.862  -4.811   7.497  0.00  0.00    +0.003 A 
BRANCH  32  35
ATOM     35  N   UNL     1      -6.272  -7.104   9.060  0.00  0.00    -0.336 N 
ATOM     36  C   UNL     1      -7.699  -7.426   8.987  0.00  0.00    +0.129 C 
ATOM     37  C   UNL     1      -5.403  -7.830   9.989  0.00  0.00    +0.129 C 
ENDBRANCH  32  35
ENDBRANCH  28  29
ENDBRANCH   3  28
TORSDOF 9
