REMARK  Name = ZINC38671035
REMARK  9 active torsions:
REMARK  status: ('A' for Active; 'I' for Inactive)
REMARK    1  A    between atoms: C_1  and  C_2
REMARK    2  A    between atoms: C_5  and  N_9
REMARK    3  A    between atoms: C_7  and  C_8
REMARK    4  A    between atoms: C_11  and  C_16
REMARK    5  A    between atoms: N_18  and  C_19
REMARK    6  A    between atoms: C_19  and  C_20
REMARK    7  A    between atoms: C_20  and  C_22
REMARK    8  A    between atoms: C_20  and  N_33
REMARK    9  A    between atoms: N_31  and  C_32
REMARK                            x       y       z     vdW  Elec       q    Type
REMARK                         _______ _______ _______ _____ _____    ______ ____
ROOT
ATOM      1  C   UNL     1      -0.653  -9.887  -2.367  0.00  0.00    +0.093 C 
ENDROOT
BRANCH   1   4
ATOM      2  C   UNL     1      -2.761  -8.717  -2.713  0.00  0.00    +0.218 C 
ATOM      3  O   UNL     1      -2.148  -7.840  -3.284  0.00  0.00    -0.275 OA
ATOM      4  N   UNL     1      -2.106  -9.785  -2.217  0.00  0.00    -0.316 N 
ATOM      5  H   UNL     1      -2.597 -10.486  -1.761  0.00  0.00    +0.149 HD
BRANCH   2   8
ATOM      6  N   UNL     1      -6.086  -7.666  -3.788  0.00  0.00    -0.271 N 
ATOM      7  C   UNL     1      -4.789  -7.311  -3.201  0.00  0.00    +0.127 C 
ATOM      8  C   UNL     1      -4.257  -8.612  -2.559  0.00  0.00    +0.101 C 
ATOM      9  C   UNL     1      -4.978  -9.694  -3.397  0.00  0.00    +0.110 C 
ATOM     10  C   UNL     1      -6.219  -8.998  -3.909  0.00  0.00    +0.221 C 
ATOM     11  O   UNL     1      -7.192  -9.560  -4.365  0.00  0.00    -0.275 OA
BRANCH   6  16
ATOM     12  C   UNL     1     -10.043  -3.901  -5.323  0.00  0.00    +0.044 C 
ATOM     13  C   UNL     1      -8.992  -4.901  -4.915  0.00  0.00    -0.047 A 
ATOM     14  C   UNL     1      -9.185  -6.247  -5.166  0.00  0.00    +0.005 A 
ATOM     15  C   UNL     1      -8.225  -7.166  -4.794  0.00  0.00    +0.024 A 
ATOM     16  C   UNL     1      -7.062  -6.737  -4.167  0.00  0.00    +0.037 A 
ATOM     17  C   UNL     1      -6.870  -5.385  -3.916  0.00  0.00    +0.027 A 
ATOM     18  C   UNL     1      -7.833  -4.470  -4.295  0.00  0.00    -0.046 A 
ATOM     19  C   UNL     1      -7.623  -3.002  -4.029  0.00  0.00    +0.044 C 
ENDBRANCH   6  16
ENDBRANCH   2   8
ENDBRANCH   1   4
BRANCH   1  20
ATOM     20  C   UNL     1      -0.179 -11.243  -1.839  0.00  0.00    -0.020 C 
BRANCH  20  21
ATOM     21  C   UNL     1      -0.792 -12.345  -2.665  0.00  0.00    -0.059 A 
ATOM     22  C   UNL     1      -0.243 -12.675  -3.891  0.00  0.00    +0.004 A 
ATOM     23  C   UNL     1      -0.805 -13.683  -4.648  0.00  0.00    +0.023 A 
ATOM     24  C   UNL     1      -1.921 -14.367  -4.177  0.00  0.00    +0.033 A 
ATOM     25  C   UNL     1      -2.468 -14.038  -2.947  0.00  0.00    -0.026 A 
ATOM     26  C   UNL     1      -1.896 -13.027  -2.193  0.00  0.00    +0.007 A 
ATOM     27  C   UNL     1      -3.670 -14.764  -2.401  0.00  0.00    +0.038 C 
ATOM     28  C   UNL     1      -4.436 -15.455  -3.529  0.00  0.00    +0.024 C 
ATOM     29  C   UNL     1      -3.453 -16.298  -4.352  0.00  0.00    +0.105 C 
ATOM     30  N   UNL     1      -2.478 -15.383  -4.962  0.00  0.00    -0.333 N 
ATOM     31  C   UNL     1      -2.096 -15.531  -6.369  0.00  0.00    +0.129 C 
ENDBRANCH  20  21
BRANCH  20  32
ATOM     32  N   UNL     1       1.285 -11.320  -1.929  0.00  0.00    +0.385 N 
ATOM     33  C   UNL     1       1.737 -12.623  -1.427  0.00  0.00    -0.078 C 
ATOM     34  C   UNL     1       3.253 -12.740  -1.593  0.00  0.00    -0.019 C 
ATOM     35  C   UNL     1       3.936 -11.621  -0.801  0.00  0.00    -0.004 C 
ATOM     36  C   UNL     1       3.402 -10.269  -1.283  0.00  0.00    -0.019 C 
ATOM     37  C   UNL     1       1.880 -10.244  -1.128  0.00  0.00    -0.078 C 
ATOM     38  H   UNL     1       1.567 -11.216  -2.892  0.00  0.00    -0.081 HD
ENDBRANCH  20  32
ENDBRANCH   1  20
TORSDOF 6
