REMARK  Name = ZINC39983049
REMARK  6 active torsions:
REMARK  status: ('A' for Active; 'I' for Inactive)
REMARK    1  A    between atoms: C_1  and  C_2
REMARK    2  A    between atoms: C_5  and  C_8
REMARK    3  A    between atoms: C_11  and  C_18
REMARK    4  A    between atoms: N_13  and  S_14
REMARK    5  A    between atoms: S_14  and  C_17
REMARK    6  A    between atoms: C_20  and  C_31
REMARK                            x       y       z     vdW  Elec       q    Type
REMARK                         _______ _______ _______ _____ _____    ______ ____
ROOT
ATOM      1  C   UNL     1       2.289  -6.207   2.303  0.00  0.00    +0.152 C 
ATOM      2  C   UNL     1       1.781  -7.157   3.371  0.00  0.00    -0.014 C 
ATOM      3  C   UNL     1       2.326  -7.021   4.651  0.00  0.00    +0.002 A 
ATOM      4  C   UNL     1       1.911  -7.864   5.704  0.00  0.00    +0.030 A 
ATOM      5  C   UNL     1       2.458  -7.711   6.941  0.00  0.00    +0.042 A 
ATOM      6  C   UNL     1       3.422  -6.736   7.191  0.00  0.00    +0.022 A 
ATOM      7  C   UNL     1       3.862  -5.894   6.215  0.00  0.00    +0.025 A 
ATOM      8  C   UNL     1       3.341  -5.995   4.913  0.00  0.00    +0.041 A 
ATOM      9  N   UNL     1       3.775  -5.167   3.956  0.00  0.00    -0.284 N 
ATOM     10  C   UNL     1       3.337  -5.198   2.713  0.00  0.00    +0.230 C 
ATOM     11  O   UNL     1       3.777  -4.413   1.895  0.00  0.00    -0.274 OA
ATOM     12 CL   UNL     1       1.944  -8.751   8.233  0.00  0.00    -0.084 Cl
ATOM     13  H   UNL     1       4.448  -4.509   4.190  0.00  0.00    +0.155 HD
ENDROOT
BRANCH   2  14
ATOM     14  C   UNL     1       0.799  -8.138   3.084  0.00  0.00    -0.020 A 
ATOM     15  C   UNL     1      -0.452  -8.094   3.722  0.00  0.00    +0.008 A 
ATOM     16  C   UNL     1      -1.399  -9.051   3.436  0.00  0.00    +0.001 A 
ATOM     17  C   UNL     1      -1.123 -10.056   2.523  0.00  0.00    +0.000 A 
ATOM     18  C   UNL     1       0.108 -10.108   1.889  0.00  0.00    +0.001 A 
ATOM     19  C   UNL     1       1.067  -9.157   2.156  0.00  0.00    +0.008 A 
ENDBRANCH   2  14
BRANCH   1  22
ATOM     20  C   UNL     1      -0.316  -4.033   0.435  0.00  0.00    +0.153 C 
ATOM     21  C   UNL     1       1.136  -4.541   0.550  0.00  0.00    +0.084 C 
ATOM     22  C   UNL     1       1.105  -5.450   1.758  0.00  0.00    +0.057 C 
ATOM     23  N   UNL     1      -0.068  -5.479   2.243  0.00  0.00    -0.171 NA
ATOM     24  N   UNL     1      -0.998  -4.693   1.560  0.00  0.00    -0.120 N 
BRANCH  20  29
ATOM     25  C   UNL     1      -0.521   1.713   1.015  0.00  0.00    +0.044 C 
ATOM     26  C   UNL     1      -0.468   0.214   0.864  0.00  0.00    -0.050 A 
ATOM     27  C   UNL     1      -0.561  -0.357  -0.392  0.00  0.00    +0.004 A 
ATOM     28  C   UNL     1      -0.511  -1.732  -0.530  0.00  0.00    +0.006 A 
ATOM     29  C   UNL     1      -0.368  -2.535   0.586  0.00  0.00    -0.023 A 
ATOM     30  C   UNL     1      -0.274  -1.963   1.841  0.00  0.00    +0.006 A 
ATOM     31  C   UNL     1      -0.319  -0.588   1.979  0.00  0.00    +0.004 A 
ENDBRANCH  20  29
BRANCH  24  32
ATOM     32  S   UNL     1      -2.599  -4.528   1.948  0.00  0.00    +0.057 S 
ATOM     33  O   UNL     1      -2.647  -4.676   3.361  0.00  0.00    -0.154 OA
ATOM     34  O   UNL     1      -2.998  -3.309   1.334  0.00  0.00    -0.154 OA
ATOM     35  C   UNL     1      -3.422  -5.930   1.144  0.00  0.00    +0.220 C 
ENDBRANCH  24  32
ENDBRANCH   1  22
TORSDOF 4
