REMARK  Name = ZINC03412140
REMARK  14 active torsions:
REMARK  status: ('A' for Active; 'I' for Inactive)
REMARK    1  A    between atoms: C_1  and  C_2
REMARK    2  A    between atoms: C_2  and  C_3
REMARK    3  A    between atoms: C_2  and  C_4
REMARK    4  A    between atoms: C_6  and  C_28
REMARK    5  A    between atoms: C_7  and  O_27
REMARK    6  A    between atoms: C_8  and  C_10
REMARK    7  A    between atoms: C_10  and  O_12
REMARK    8  A    between atoms: O_12  and  C_13
REMARK    9  A    between atoms: C_13  and  C_14
REMARK   10  A    between atoms: N_16  and  C_17
REMARK   11  A    between atoms: C_20  and  S_23
REMARK   12  A    between atoms: S_23  and  N_26
REMARK   13  A    between atoms: C_28  and  C_29
REMARK   14  A    between atoms: C_28  and  C_30
REMARK                            x       y       z     vdW  Elec       q    Type
REMARK                         _______ _______ _______ _____ _____    ______ ____
ROOT
ATOM      1  O   UNL     1       0.475  -3.067   3.166  0.00  0.00    -0.452 OA
ENDROOT
BRANCH   1   2
ATOM      2  C   UNL     1       0.988  -2.187   4.048  0.00  0.00    +0.343 C 
ATOM      3  O   UNL     1       1.583  -2.586   5.029  0.00  0.00    -0.245 OA
BRANCH   2   8
ATOM      4  C   UNL     1      -0.005   1.080   2.492  0.00  0.00    -0.044 A 
ATOM      5  C   UNL     1       0.527   1.985   3.395  0.00  0.00    +0.011 A 
ATOM      6  C   UNL     1       1.201   1.541   4.515  0.00  0.00    -0.002 A 
ATOM      7  C   UNL     1       1.359   0.181   4.738  0.00  0.00    +0.134 A 
ATOM      8  C   UNL     1       0.826  -0.739   3.823  0.00  0.00    +0.101 A 
ATOM      9  C   UNL     1       0.142  -0.275   2.696  0.00  0.00    +0.022 A 
BRANCH   4  11
ATOM     10  C   UNL     1      -0.036   1.087   0.012  0.00  0.00    +0.012 C 
ATOM     11  C   UNL     1      -0.744   1.579   1.277  0.00  0.00    +0.013 C 
ATOM     12  C   UNL     1      -2.178   1.048   1.298  0.00  0.00    +0.012 C 
ENDBRANCH   4  11
BRANCH   6  13
ATOM     13  C   UNL     1       1.771   2.534   5.495  0.00  0.00    +0.016 C 
ATOM     14  C   UNL     1       2.783   3.432   4.780  0.00  0.00    +0.012 C 
ATOM     15  C   UNL     1       0.641   3.394   6.065  0.00  0.00    +0.012 C 
ENDBRANCH   6  13
BRANCH   7  16
ATOM     16  O   UNL     1       2.025  -0.258   5.835  0.00  0.00    -0.506 OA
ATOM     17  H   UNL     1       2.975  -0.371   5.699  0.00  0.00    +0.292 HD
ENDBRANCH   7  16
ENDBRANCH   2   8
ENDBRANCH   1   2
BRANCH   1  18
ATOM     18  C   UNL     1       0.672  -4.477   3.452  0.00  0.00    +0.328 C 
BRANCH  18  19
ATOM     19  C   UNL     1       0.035  -5.303   2.364  0.00  0.00    +0.255 C 
ATOM     20  O   UNL     1      -0.530  -4.758   1.440  0.00  0.00    -0.272 OA
ATOM     21  N   UNL     1       0.092  -6.649   2.419  0.00  0.00    -0.283 N 
ATOM     22  H   UNL     1       0.601  -7.084   3.122  0.00  0.00    +0.155 HD
BRANCH  21  23
ATOM     23  C   UNL     1      -0.581  -7.417   1.464  0.00  0.00    +0.034 A 
ATOM     24  C   UNL     1      -1.151  -8.632   1.823  0.00  0.00    +0.025 A 
ATOM     25  C   UNL     1      -1.821  -9.385   0.879  0.00  0.00    +0.030 A 
ATOM     26  C   UNL     1      -1.913  -8.937  -0.426  0.00  0.00    +0.105 A 
ATOM     27  C   UNL     1      -1.341  -7.731  -0.789  0.00  0.00    +0.030 A 
ATOM     28  C   UNL     1      -0.676  -6.970   0.152  0.00  0.00    +0.025 A 
BRANCH  26  29
ATOM     29  S   UNL     1      -2.761  -9.905  -1.630  0.00  0.00    +0.056 S 
ATOM     30  O   UNL     1      -3.676 -10.727  -0.918  0.00  0.00    -0.153 OA
ATOM     31  O   UNL     1      -3.178  -9.009  -2.651  0.00  0.00    -0.153 OA
BRANCH  29  32
ATOM     32  N   UNL     1      -1.647 -10.920  -2.316  0.00  0.00    -0.204 NA
ATOM     33  H   UNL     1      -0.722 -10.893  -2.024  0.00  0.00    +0.144 HD
ATOM     34  H   UNL     1      -1.919 -11.540  -3.010  0.00  0.00    +0.144 HD
ENDBRANCH  29  32
ENDBRANCH  26  29
ENDBRANCH  21  23
ENDBRANCH  18  19
ENDBRANCH   1  18
TORSDOF 10
