REMARK  Name = ZINC63373269
REMARK  1 active torsions:
REMARK  status: ('A' for Active; 'I' for Inactive)
REMARK    1  A    between atoms: C_8  and  C_16
REMARK                            x       y       z     vdW  Elec       q    Type
REMARK                         _______ _______ _______ _____ _____    ______ ____
ROOT
ATOM      1  C   UNL     1      -0.384   1.026  -0.085  0.00  0.00    +0.001 A 
ATOM      2  C   UNL     1       0.734   1.870  -0.031  0.00  0.00    +0.002 A 
ATOM      3  C   UNL     1       1.999   1.400   0.002  0.00  0.00    +0.026 A 
ATOM      4  C   UNL     1       2.250   0.002  -0.018  0.00  0.00    +0.043 A 
ATOM      5  N   UNL     1       3.371  -0.685  -0.019  0.00  0.00    -0.376 N 
ATOM      6  C   UNL     1       3.043  -2.105   0.050  0.00  0.00    +0.128 C 
ATOM      7  C   UNL     1       3.655  -2.907  -1.102  0.00  0.00    +0.121 C 
ATOM      8  N   UNL     1       3.039  -4.244  -1.114  0.00  0.00    -0.307 NA
ATOM      9  C   UNL     1       1.615  -4.220  -1.461  0.00  0.00    +0.086 C 
ATOM     10  C   UNL     1       0.818  -3.483  -0.369  0.00  0.00    +0.048 C 
ATOM     11  C   UNL     1       1.532  -2.176  -0.108  0.00  0.00    -0.035 C 
ATOM     12  C   UNL     1       1.084  -0.915  -0.084  0.00  0.00    -0.001 A 
ATOM     13  C   UNL     1      -0.258  -0.320  -0.112  0.00  0.00    +0.010 A 
ATOM     14  H   UNL     1       3.548  -4.871  -1.718  0.00  0.00    +0.123 HD
ATOM     15  H   UNL     1       4.265  -0.310  -0.059  0.00  0.00    +0.160 HD
ENDROOT
BRANCH   7  16
ATOM     16  C   UNL     1       3.381  -2.209  -2.409  0.00  0.00    +0.100 A 
ATOM     17  H   UNL     1       0.955  -1.020  -4.218  0.00  0.00    +0.173 HD
ATOM     18  C   UNL     1       4.424  -1.884  -3.267  0.00  0.00    +0.263 A 
ATOM     19  O   UNL     1       5.683  -2.188  -2.941  0.00  0.00    -0.267 OA
ATOM     20  N   UNL     1       4.153  -1.254  -4.441  0.00  0.00    -0.275 N 
ATOM     21  C   UNL     1       2.887  -0.946  -4.774  0.00  0.00    +0.329 A 
ATOM     22  O   UNL     1       2.666  -0.383  -5.828  0.00  0.00    -0.247 OA
ATOM     23  N   UNL     1       1.860  -1.251  -3.959  0.00  0.00    -0.275 N 
ATOM     24  C   UNL     1       2.082  -1.886  -2.777  0.00  0.00    +0.263 A 
ATOM     25  O   UNL     1       1.059  -2.192  -1.975  0.00  0.00    -0.267 OA
ATOM     26  H   UNL     1       4.878  -1.025  -5.043  0.00  0.00    +0.173 HD
ENDBRANCH   7  16
TORSDOF 1
