REMARK  Name = ZINC16741899
REMARK  11 active torsions:
REMARK  status: ('A' for Active; 'I' for Inactive)
REMARK    1  A    between atoms: C_1  and  C_2
REMARK    2  A    between atoms: C_5  and  O_8
REMARK    3  A    between atoms: O_8  and  C_9
REMARK    4  A    between atoms: C_9  and  C_10
REMARK    5  A    between atoms: N_12  and  C_13
REMARK    6  A    between atoms: C_14  and  C_27
REMARK    7  A    between atoms: C_19  and  C_23
REMARK    8  A    between atoms: C_23  and  C_24
REMARK    9  A    between atoms: C_23  and  C_25
REMARK   10  A    between atoms: C_23  and  C_26
REMARK   11  A    between atoms: N_29  and  C_30
REMARK                            x       y       z     vdW  Elec       q    Type
REMARK                         _______ _______ _______ _____ _____    ______ ____
ROOT
ATOM      1  C   UNL     1      -3.495   2.184   2.859  0.00  0.00    +0.084 A 
ATOM      2  C   UNL     1      -2.408   1.324   2.934  0.00  0.00    +0.069 A 
ATOM      3  C   UNL     1      -1.968   0.912   4.256  0.00  0.00    -0.023 A 
ATOM      4  C   UNL     1      -2.683   1.419   5.284  0.00  0.00    -0.004 A 
ATOM      5  S   UNL     1      -3.922   2.426   4.521  0.00  0.00    -0.077 S 
ATOM      6  C   UNL     1      -2.465   1.171   6.745  0.00  0.00    +0.046 C 
ATOM      7  C   UNL     1      -1.537  -0.043   6.896  0.00  0.00    -0.000 C 
ATOM      8  C   UNL     1      -0.339   0.132   5.959  0.00  0.00    +0.009 C 
ATOM      9  C   UNL     1      -0.789  -0.020   4.505  0.00  0.00    +0.037 C 
ENDROOT
BRANCH   1  12
ATOM     10  C   UNL     1      -5.152   3.544   1.853  0.00  0.00    +0.255 C 
ATOM     11  O   UNL     1      -5.579   3.821   2.954  0.00  0.00    -0.272 OA
ATOM     12  N   UNL     1      -4.094   2.718   1.728  0.00  0.00    -0.277 N 
ATOM     13  H   UNL     1      -3.752   2.497   0.848  0.00  0.00    +0.155 HD
BRANCH  10  14
ATOM     14  C   UNL     1      -5.803   4.124   0.624  0.00  0.00    +0.324 C 
BRANCH  14  15
ATOM     15  O   UNL     1      -6.894   4.962   1.013  0.00  0.00    -0.483 OA
BRANCH  15  20
ATOM     16  C   UNL     1      -9.792   7.470  -3.114  0.00  0.00    +0.044 C 
ATOM     17  C   UNL     1      -9.017   6.799  -2.010  0.00  0.00    -0.050 A 
ATOM     18  C   UNL     1      -9.373   7.008  -0.690  0.00  0.00    +0.007 A 
ATOM     19  C   UNL     1      -8.664   6.394   0.324  0.00  0.00    +0.046 A 
ATOM     20  C   UNL     1      -7.593   5.567   0.018  0.00  0.00    +0.121 A 
ATOM     21  C   UNL     1      -7.234   5.364  -1.307  0.00  0.00    +0.046 A 
ATOM     22  C   UNL     1      -7.950   5.975  -2.318  0.00  0.00    +0.007 A 
ENDBRANCH  15  20
ENDBRANCH  14  15
ENDBRANCH  10  14
ENDBRANCH   1  12
BRANCH   7  23
ATOM     23  C   UNL     1      -1.047  -0.137   8.343  0.00  0.00    -0.035 C 
ATOM     24  C   UNL     1      -2.247  -0.294   9.279  0.00  0.00    +0.011 C 
ATOM     25  C   UNL     1      -0.123  -1.348   8.491  0.00  0.00    +0.011 C 
ATOM     26  C   UNL     1      -0.281   1.137   8.706  0.00  0.00    +0.011 C 
ENDBRANCH   7  23
BRANCH   2  27
ATOM     27  C   UNL     1      -1.726   0.853   1.725  0.00  0.00    +0.247 C 
ATOM     28  O   UNL     1      -2.091  -0.172   1.180  0.00  0.00    -0.270 OA
ATOM     29  N   UNL     1      -0.695   1.556   1.216  0.00  0.00    -0.307 N 
ATOM     30  H   UNL     1      -0.404   2.373   1.650  0.00  0.00    +0.149 HD
BRANCH  29  31
ATOM     31  C   UNL     1      -0.013   1.086   0.008  0.00  0.00    +0.096 C 
ATOM     32  C   UNL     1      -0.767   1.593  -1.232  0.00  0.00    +0.046 C 
ATOM     33  C   UNL     1       0.134   1.355  -2.478  0.00  0.00    +0.168 C 
ATOM     34  S   UNL     1       1.780   1.828  -1.798  0.00  0.00    -0.029 S 
ATOM     35  O   UNL     1       2.014   3.204  -2.068  0.00  0.00    -0.174 OA
ATOM     36  O   UNL     1       2.742   0.864  -2.202  0.00  0.00    -0.174 OA
ATOM     37  C   UNL     1       1.440   1.619  -0.003  0.00  0.00    +0.188 C 
ENDBRANCH  29  31
ENDBRANCH   2  27
TORSDOF 7
