REMARK  Name = ZINC57270821
REMARK  7 active torsions:
REMARK  status: ('A' for Active; 'I' for Inactive)
REMARK    1  A    between atoms: C_4  and  C_7
REMARK    2  A    between atoms: N_14  and  C_31
REMARK    3  A    between atoms: C_15  and  C_17
REMARK    4  A    between atoms: C_17  and  N_18
REMARK    5  A    between atoms: N_21  and  C_24
REMARK    6  A    between atoms: C_29  and  O_30
REMARK    7  A    between atoms: C_31  and  C_32
REMARK                            x       y       z     vdW  Elec       q    Type
REMARK                         _______ _______ _______ _____ _____    ______ ____
ROOT
ATOM      1  C   UNL     1       3.698  -0.688  -0.038  0.00  0.00    +0.004 A 
ATOM      2  C   UNL     1       4.658  -0.360  -0.936  0.00  0.00    +0.056 A 
ATOM      3  S   UNL     1       5.984  -1.488  -0.553  0.00  0.00    -0.076 S 
ATOM      4  C   UNL     1       5.225  -2.365   0.790  0.00  0.00    +0.116 A 
ATOM      5  C   UNL     1       3.965  -1.759   0.914  0.00  0.00    +0.080 A 
ATOM      6  C   UNL     1       3.125  -2.280   1.950  0.00  0.00    +0.264 A 
ATOM      7  O   UNL     1       2.010  -1.822   2.132  0.00  0.00    -0.267 OA
ATOM      8  N   UNL     1       3.585  -3.284   2.719  0.00  0.00    -0.281 N 
ATOM      9  C   UNL     1       4.824  -3.807   2.530  0.00  0.00    +0.129 A 
ATOM     10  N   UNL     1       5.609  -3.360   1.586  0.00  0.00    -0.225 NA
ENDROOT
BRANCH   1  14
ATOM     11  C   UNL     1      -0.017   1.379   0.010  0.00  0.00    +0.000 A 
ATOM     12  C   UNL     1       1.169   2.092   0.002  0.00  0.00    +0.001 A 
ATOM     13  C   UNL     1       2.377   1.427  -0.013  0.00  0.00    +0.008 A 
ATOM     14  C   UNL     1       2.403   0.033  -0.021  0.00  0.00    -0.017 A 
ATOM     15  C   UNL     1       1.205  -0.680  -0.013  0.00  0.00    +0.008 A 
ATOM     16  C   UNL     1       0.002  -0.004   0.002  0.00  0.00    +0.001 A 
ENDBRANCH   1  14
BRANCH   9  17
ATOM     17  C   UNL     1       5.296  -4.931   3.416  0.00  0.00    +0.159 C 
BRANCH  17  18
ATOM     18  N   UNL     1       6.656  -5.325   3.023  0.00  0.00    -0.292 NA
ATOM     19  C   UNL     1       6.667  -5.906   1.674  0.00  0.00    +0.104 C 
ATOM     20  C   UNL     1       8.116  -6.135   1.232  0.00  0.00    +0.120 C 
ATOM     21  N   UNL     1       8.796  -6.938   2.260  0.00  0.00    -0.325 N 
ATOM     22  C   UNL     1       8.713  -6.491   3.659  0.00  0.00    +0.120 C 
ATOM     23  C   UNL     1       7.241  -6.247   4.005  0.00  0.00    +0.104 C 
BRANCH  21  24
ATOM     24  C   UNL     1       9.505  -8.095   1.916  0.00  0.00    +0.072 A 
ATOM     25  C   UNL     1      10.854  -8.017   1.601  0.00  0.00    +0.027 A 
ATOM     26  C   UNL     1      11.551  -9.161   1.262  0.00  0.00    +0.002 A 
ATOM     27  C   UNL     1      10.908 -10.384   1.236  0.00  0.00    +0.004 A 
ATOM     28  C   UNL     1       9.563 -10.470   1.548  0.00  0.00    +0.047 A 
ATOM     29  C   UNL     1       8.858  -9.329   1.894  0.00  0.00    +0.138 A 
BRANCH  29  30
ATOM     30  O   UNL     1       7.537  -9.412   2.206  0.00  0.00    -0.505 OA
ATOM     31  H   UNL     1       6.947  -9.312   1.447  0.00  0.00    +0.292 HD
ENDBRANCH  29  30
ENDBRANCH  21  24
ENDBRANCH  17  18
ENDBRANCH   9  17
BRANCH   8  32
ATOM     32  C   UNL     1       2.732  -3.824   3.780  0.00  0.00    +0.245 C 
BRANCH  32  33
ATOM     33  C   UNL     1       1.920  -4.929   3.244  0.00  0.00    +0.084 C 
ATOM     34  N   UNL     1       1.294  -5.781   2.830  0.00  0.00    -0.195 NA
ENDBRANCH  32  33
ENDBRANCH   8  32
TORSDOF 7
