REMARK  Name = ZINC08775754
REMARK  11 active torsions:
REMARK  status: ('A' for Active; 'I' for Inactive)
REMARK    1  A    between atoms: C_1  and  C_2
REMARK    2  A    between atoms: C_4  and  C_37
REMARK    3  A    between atoms: C_5  and  C_36
REMARK    4  A    between atoms: C_6  and  S_9
REMARK    5  A    between atoms: C_7  and  C_8
REMARK    6  A    between atoms: S_9  and  N_12
REMARK    7  A    between atoms: C_15  and  C_18
REMARK    8  A    between atoms: C_18  and  O_20
REMARK    9  A    between atoms: O_20  and  C_21
REMARK   10  A    between atoms: C_21  and  C_23
REMARK   11  A    between atoms: C_21  and  C_24
REMARK                            x       y       z     vdW  Elec       q    Type
REMARK                         _______ _______ _______ _____ _____    ______ ____
ROOT
ATOM      1  N   UNL     1      -0.731  -8.286   4.436  0.00  0.00    -0.177 NA
ATOM      2  C   UNL     1      -2.134  -8.399   4.017  0.00  0.00    +0.110 C 
ATOM      3  C   UNL     1      -2.206  -8.266   2.493  0.00  0.00    +0.032 C 
ATOM      4  C   UNL     1      -1.525  -6.963   2.066  0.00  0.00    +0.100 C 
ATOM      5  C   UNL     1      -0.052  -6.996   2.479  0.00  0.00    +0.032 C 
ATOM      6  C   UNL     1       0.044  -7.115   4.003  0.00  0.00    +0.110 C 
ENDROOT
BRANCH   1   7
ATOM      7  S   UNL     1      -0.035  -9.456   5.379  0.00  0.00    +0.061 S 
ATOM      8  O   UNL     1       0.987  -8.817   6.132  0.00  0.00    -0.153 OA
ATOM      9  O   UNL     1      -1.099 -10.171   5.991  0.00  0.00    -0.153 OA
BRANCH   7  15
ATOM     10  C   UNL     1       4.269 -11.338   3.086  0.00  0.00    +0.044 C 
ATOM     11  C   UNL     1       2.775 -11.409   3.273  0.00  0.00    -0.045 A 
ATOM     12  C   UNL     1       2.038 -12.361   2.593  0.00  0.00    +0.007 A 
ATOM     13  C   UNL     1       0.668 -12.426   2.765  0.00  0.00    -0.045 A 
ATOM     14  C   UNL     1       0.035 -11.539   3.615  0.00  0.00    -0.021 A 
ATOM     15  C   UNL     1       0.772 -10.587   4.295  0.00  0.00    +0.112 A 
ATOM     16  C   UNL     1       2.142 -10.519   4.120  0.00  0.00    -0.021 A 
ATOM     17  C   UNL     1       2.945  -9.477   4.856  0.00  0.00    +0.046 C 
ATOM     18  C   UNL     1      -1.459 -11.609   3.802  0.00  0.00    +0.046 C 
ATOM     19  C   UNL     1      -0.136 -13.463   2.024  0.00  0.00    +0.044 C 
ENDBRANCH   7  15
ENDBRANCH   1   7
BRANCH   4  20
ATOM     20  C   UNL     1      -1.624  -6.812   0.570  0.00  0.00    +0.311 C 
ATOM     21  O   UNL     1      -2.181  -7.659  -0.088  0.00  0.00    -0.251 OA
BRANCH  20  22
ATOM     22  O   UNL     1      -1.093  -5.737  -0.033  0.00  0.00    -0.454 OA
BRANCH  22  23
ATOM     23  C   UNL     1      -1.225  -5.657  -1.477  0.00  0.00    +0.239 C 
ATOM     24  C   UNL     1      -0.022  -6.333  -2.137  0.00  0.00    +0.060 C 
BRANCH  23  25
ATOM     25  C   UNL     1      -1.283  -4.211  -1.897  0.00  0.00    +0.151 A 
ATOM     26  N   UNL     1      -2.432  -3.521  -1.676  0.00  0.00    -0.307 N 
ATOM     27  H   UNL     1      -3.186  -3.965  -1.257  0.00  0.00    +0.170 HD
ATOM     28  C   UNL     1      -2.535  -2.221  -2.036  0.00  0.00    +0.259 A 
ATOM     29  O   UNL     1      -3.558  -1.590  -1.844  0.00  0.00    -0.267 OA
ATOM     30  C   UNL     1      -1.361  -1.598  -2.667  0.00  0.00    +0.065 A 
ATOM     31  C   UNL     1      -1.363  -0.266  -3.074  0.00  0.00    +0.015 A 
ATOM     32  C   UNL     1      -0.236   0.267  -3.659  0.00  0.00    +0.001 A 
ATOM     33  C   UNL     1       0.898  -0.513  -3.848  0.00  0.00    +0.002 A 
ATOM     34  C   UNL     1       0.920  -1.832  -3.453  0.00  0.00    +0.028 A 
ATOM     35  C   UNL     1      -0.210  -2.394  -2.857  0.00  0.00    +0.078 A 
ATOM     36  N   UNL     1      -0.232  -3.689  -2.452  0.00  0.00    -0.230 NA
ENDBRANCH  23  25
ENDBRANCH  22  23
ENDBRANCH  20  22
ENDBRANCH   4  20
TORSDOF 6
