REMARK  Name = ZINC02541779
REMARK  9 active torsions:
REMARK  status: ('A' for Active; 'I' for Inactive)
REMARK    1  A    between atoms: C_1  and  C_2
REMARK    2  A    between atoms: C_5  and  C_8
REMARK    3  A    between atoms: C_10  and  C_26
REMARK    4  A    between atoms: C_11  and  N_25
REMARK    5  A    between atoms: N_12  and  N_22
REMARK    6  A    between atoms: C_18  and  C_20
REMARK    7  A    between atoms: C_18  and  C_21
REMARK    8  A    between atoms: N_22  and  C_23
REMARK    9  A    between atoms: N_22  and  C_24
REMARK                            x       y       z     vdW  Elec       q    Type
REMARK                         _______ _______ _______ _____ _____    ______ ____
ROOT
ATOM      1  C   UNL     1      -1.107   5.773   0.039  0.00  0.00    +0.097 C 
ATOM      2  C   UNL     1      -1.012   6.424  -1.309  0.00  0.00    +0.078 C 
ATOM      3  C   UNL     1      -0.761   5.692  -2.425  0.00  0.00    +0.117 C 
ATOM      4  N   UNL     1      -0.581   4.332  -2.333  0.00  0.00    -0.223 N 
ATOM      5  C   UNL     1      -0.255   3.753  -1.137  0.00  0.00    +0.037 C 
ATOM      6  C   UNL     1      -0.478   4.402   0.026  0.00  0.00    +0.026 C 
ATOM      7  C   UNL     1      -0.130   3.822   1.258  0.00  0.00    +0.162 C 
ATOM      8  O   UNL     1      -0.356   4.427   2.287  0.00  0.00    -0.292 OA
ATOM      9  C   UNL     1       0.522   2.468   1.329  0.00  0.00    +0.086 C 
ATOM     10  C   UNL     1       1.313   2.227   0.039  0.00  0.00    -0.023 C 
ATOM     11  C   UNL     1       0.363   2.377  -1.152  0.00  0.00    +0.059 C 
ATOM     12  C   UNL     1       1.901   0.815   0.053  0.00  0.00    +0.011 C 
ATOM     13  C   UNL     1       2.442   3.253  -0.071  0.00  0.00    +0.011 C 
ENDROOT
BRANCH   1  18
ATOM     14  C   UNL     1      -6.670   5.296   1.528  0.00  0.00    +0.044 C 
ATOM     15  C   UNL     1      -5.219   5.420   1.140  0.00  0.00    -0.050 A 
ATOM     16  C   UNL     1      -4.352   6.151   1.931  0.00  0.00    +0.003 A 
ATOM     17  C   UNL     1      -3.021   6.265   1.575  0.00  0.00    +0.005 A 
ATOM     18  C   UNL     1      -2.557   5.648   0.428  0.00  0.00    -0.035 A 
ATOM     19  C   UNL     1      -3.425   4.922  -0.366  0.00  0.00    +0.005 A 
ATOM     20  C   UNL     1      -4.755   4.804  -0.007  0.00  0.00    +0.003 A 
ENDBRANCH   1  18
BRANCH   4  21
ATOM     21  N   UNL     1      -0.728   3.553  -3.445  0.00  0.00    -0.227 NA
ATOM     22  C   UNL     1      -2.031   3.785  -4.082  0.00  0.00    +0.128 C 
ATOM     23  C   UNL     1       0.370   3.777  -4.394  0.00  0.00    +0.128 C 
ENDBRANCH   4  21
BRANCH   3  24
ATOM     24  N   UNL     1      -0.688   6.311  -3.650  0.00  0.00    -0.344 N 
ATOM     25  H   UNL     1      -0.733   5.785  -4.463  0.00  0.00    +0.144 HD
ATOM     26  H   UNL     1      -0.590   7.275  -3.700  0.00  0.00    +0.144 HD
ENDBRANCH   3  24
BRANCH   2  27
ATOM     27  C   UNL     1      -1.190   7.841  -1.421  0.00  0.00    +0.099 C 
ATOM     28  N   UNL     1      -1.330   8.964  -1.509  0.00  0.00    -0.191 NA
ENDBRANCH   2  27
TORSDOF 4
