REMARK  Name = ZINC41349359
REMARK  7 active torsions:
REMARK  status: ('A' for Active; 'I' for Inactive)
REMARK    1  A    between atoms: C_1  and  O_2
REMARK    2  A    between atoms: O_2  and  C_3
REMARK    3  A    between atoms: C_8  and  C_9
REMARK    4  A    between atoms: C_11  and  O_12
REMARK    5  A    between atoms: C_21  and  C_23
REMARK    6  A    between atoms: C_23  and  O_24
REMARK    7  A    between atoms: O_24  and  C_25
REMARK                            x       y       z     vdW  Elec       q    Type
REMARK                         _______ _______ _______ _____ _____    ______ ____
ROOT
ATOM      1  C   UNL     1       0.139  -2.885  -0.884  0.00  0.00    +0.143 A 
ATOM      2  C   UNL     1       1.325  -2.219  -0.642  0.00  0.00    +0.093 A 
ATOM      3  C   UNL     1       2.456  -2.938  -0.258  0.00  0.00    +0.131 A 
ATOM      4  C   UNL     1       2.347  -4.346  -0.128  0.00  0.00    +0.059 A 
ATOM      5  C   UNL     1       3.454  -5.120   0.256  0.00  0.00    +0.017 A 
ATOM      6  C   UNL     1       3.331  -6.469   0.376  0.00  0.00    +0.024 A 
ATOM      7  C   UNL     1       2.100  -7.095   0.117  0.00  0.00    +0.037 A 
ATOM      8  C   UNL     1       0.991  -6.338  -0.266  0.00  0.00    +0.070 A 
ATOM      9  C   UNL     1       1.107  -4.965  -0.390  0.00  0.00    +0.141 A 
ATOM     10  O   UNL     1       0.044  -4.217  -0.753  0.00  0.00    -0.454 OA
ATOM     11  N   UNL     1       1.988  -8.447   0.239  0.00  0.00    -0.283 N 
ATOM     12  C   UNL     1       2.910  -9.128   0.890  0.00  0.00    +0.255 C 
ATOM     13  O   UNL     1       3.795  -8.540   1.486  0.00  0.00    -0.272 OA
ATOM     14  H   UNL     1       1.230  -8.908  -0.153  0.00  0.00    +0.155 HD
ENDROOT
BRANCH   1  20
ATOM     15  C   UNL     1      -2.230  -2.779  -1.653  0.00  0.00    +0.131 A 
ATOM     16  C   UNL     1      -3.344  -2.043  -2.027  0.00  0.00    +0.046 A 
ATOM     17  C   UNL     1      -3.288  -0.663  -2.046  0.00  0.00    +0.004 A 
ATOM     18  C   UNL     1      -2.122  -0.003  -1.692  0.00  0.00    +0.001 A 
ATOM     19  C   UNL     1      -1.005  -0.717  -1.318  0.00  0.00    +0.015 A 
ATOM     20  C   UNL     1      -1.049  -2.115  -1.289  0.00  0.00    +0.059 A 
BRANCH  15  22
ATOM     21  C   UNL     1      -3.520  -4.740  -2.019  0.00  0.00    +0.277 C 
ATOM     22  O   UNL     1      -2.284  -4.134  -1.635  0.00  0.00    -0.494 OA
ENDBRANCH  15  22
ENDBRANCH   1  20
BRANCH   3  23
ATOM     23  O   UNL     1       3.627  -2.309  -0.015  0.00  0.00    -0.506 OA
ATOM     24  H   UNL     1       3.590  -1.350  -0.133  0.00  0.00    +0.292 HD
ENDBRANCH   3  23
BRANCH  12  25
ATOM     25  C   UNL     1       2.869 -10.635   0.896  0.00  0.00    +0.325 C 
BRANCH  25  26
ATOM     26  O   UNL     1       3.966 -11.137   1.663  0.00  0.00    -0.477 OA
BRANCH  26  27
ATOM     27  C   UNL     1       4.076 -12.489   1.770  0.00  0.00    +0.197 A 
ATOM     28  C   UNL     1       3.446 -13.157   2.811  0.00  0.00    +0.206 A 
ATOM     29  C   UNL     1       3.559 -14.534   2.918  0.00  0.00    +0.200 A 
ATOM     30  C   UNL     1       4.300 -15.244   1.987  0.00  0.00    +0.199 A 
ATOM     31  C   UNL     1       4.930 -14.578   0.948  0.00  0.00    +0.200 A 
ATOM     32  C   UNL     1       4.814 -13.202   0.835  0.00  0.00    +0.206 A 
ATOM     33  F   UNL     1       5.423 -12.553  -0.181  0.00  0.00    -0.198 F 
ATOM     34  F   UNL     1       5.653 -15.271   0.042  0.00  0.00    -0.199 F 
ATOM     35  F   UNL     1       4.409 -16.586   2.093  0.00  0.00    -0.199 F 
ATOM     36  F   UNL     1       2.946 -15.184   3.932  0.00  0.00    -0.199 F 
ATOM     37  F   UNL     1       2.724 -12.465   3.719  0.00  0.00    -0.198 F 
ENDBRANCH  26  27
ENDBRANCH  25  26
ENDBRANCH  12  25
TORSDOF 6
