REMARK  Name = ZINC39638456
REMARK  8 active torsions:
REMARK  status: ('A' for Active; 'I' for Inactive)
REMARK    1  A    between atoms: C_1  and  O_2
REMARK    2  A    between atoms: O_2  and  C_3
REMARK    3  A    between atoms: C_7  and  C_11
REMARK    4  A    between atoms: C_8  and  O_9
REMARK    5  A    between atoms: O_9  and  C_10
REMARK    6  A    between atoms: C_11  and  N_12
REMARK    7  A    between atoms: C_13  and  C_15
REMARK    8  A    between atoms: C_26  and  C_28
REMARK                            x       y       z     vdW  Elec       q    Type
REMARK                         _______ _______ _______ _____ _____    ______ ____
ROOT
ATOM      1  C   UNL     1       4.122  -4.907   1.876  0.00  0.00    +0.100 C 
ATOM      2  C   UNL     1       5.178  -4.018   2.569  0.00  0.00    +0.121 C 
ATOM      3  N   UNL     1       5.730  -4.865   3.652  0.00  0.00    -0.297 N 
ATOM      4  C   UNL     1       5.826  -6.217   3.050  0.00  0.00    +0.115 C 
ATOM      5  C   UNL     1       4.552  -6.350   2.191  0.00  0.00    -0.004 C 
ATOM      6  C   UNL     1       3.459  -7.067   2.978  0.00  0.00    -0.010 C 
ATOM      7  C   UNL     1       3.886  -8.516   3.231  0.00  0.00    -0.082 C 
ATOM      8  N   UNL     1       4.116  -9.191   1.947  0.00  0.00    +0.379 N 
ATOM      9  C   UNL     1       5.230  -8.551   1.238  0.00  0.00    -0.082 C 
ATOM     10  C   UNL     1       4.860  -7.103   0.901  0.00  0.00    -0.010 C 
ATOM     11  C   UNL     1       6.068  -4.492   4.902  0.00  0.00    +0.260 C 
ATOM     12  O   UNL     1       6.511  -5.310   5.680  0.00  0.00    -0.271 OA
ATOM     13  H   UNL     1       4.337 -10.161   2.114  0.00  0.00    -0.086 HD
ATOM     14  H   UNL     1       3.281  -9.131   1.383  0.00  0.00    -0.086 HD
ENDROOT
BRANCH  11  15
ATOM     15  C   UNL     1       5.896  -3.058   5.333  0.00  0.00    +0.296 C 
ATOM     16  C   UNL     1       6.845  -2.159   4.529  0.00  0.00    +0.283 C 
ATOM     17  O   UNL     1       6.666  -0.809   4.972  0.00  0.00    -0.484 OA
ATOM     18  C   UNL     1       6.632  -0.607   6.317  0.00  0.00    +0.162 A 
ATOM     19  C   UNL     1       6.826   0.672   6.819  0.00  0.00    +0.049 A 
ATOM     20  C   UNL     1       6.791   0.893   8.182  0.00  0.00    +0.004 A 
ATOM     21  C   UNL     1       6.564  -0.158   9.050  0.00  0.00    +0.004 A 
ATOM     22  C   UNL     1       6.371  -1.435   8.558  0.00  0.00    +0.049 A 
ATOM     23  C   UNL     1       6.406  -1.665   7.190  0.00  0.00    +0.163 A 
ATOM     24  O   UNL     1       6.222  -2.929   6.721  0.00  0.00    -0.473 OA
ENDBRANCH  11  15
BRANCH   1  26
ATOM     25  N   UNL     1       1.655  -4.859   1.693  0.00  0.00    -0.311 N 
ATOM     26  C   UNL     1       2.752  -4.633   2.442  0.00  0.00    +0.218 C 
ATOM     27  O   UNL     1       2.637  -4.208   3.573  0.00  0.00    -0.275 OA
ATOM     28  H   UNL     1       1.742  -5.265   0.816  0.00  0.00    +0.149 HD
BRANCH  25  29
ATOM     29  C   UNL     1       0.331  -4.493   2.203  0.00  0.00    +0.143 C 
BRANCH  29  34
ATOM     30  C   UNL     1      -2.130  -6.214  -0.102  0.00  0.00    +0.162 A 
ATOM     31  C   UNL     1      -2.600  -5.143  -0.845  0.00  0.00    +0.049 A 
ATOM     32  C   UNL     1      -2.123  -3.869  -0.599  0.00  0.00    +0.004 A 
ATOM     33  C   UNL     1      -1.176  -3.660   0.386  0.00  0.00    +0.009 A 
ATOM     34  C   UNL     1      -0.702  -4.724   1.130  0.00  0.00    +0.015 A 
ATOM     35  C   UNL     1      -1.180  -6.003   0.894  0.00  0.00    +0.166 A 
BRANCH  30  37
ATOM     36  C   UNL     1      -3.571  -7.609  -1.378  0.00  0.00    +0.277 C 
ATOM     37  O   UNL     1      -2.599  -7.468  -0.341  0.00  0.00    -0.491 OA
ENDBRANCH  30  37
BRANCH  35  38
ATOM     38  O   UNL     1      -0.720  -7.050   1.629  0.00  0.00    -0.491 OA
ATOM     39  C   UNL     1       0.352  -7.813   1.071  0.00  0.00    +0.277 C 
ENDBRANCH  35  38
ENDBRANCH  29  34
ENDBRANCH  25  29
ENDBRANCH   1  26
TORSDOF 6
