REMARK  Name = ZINC08897404
REMARK  9 active torsions:
REMARK  status: ('A' for Active; 'I' for Inactive)
REMARK    1  A    between atoms: C_1  and  C_2
REMARK    2  A    between atoms: C_2  and  O_3
REMARK    3  A    between atoms: O_3  and  C_4
REMARK    4  A    between atoms: C_4  and  C_6
REMARK    5  A    between atoms: C_10  and  N_11
REMARK    6  A    between atoms: C_12  and  C_14
REMARK    7  A    between atoms: C_14  and  S_15
REMARK    8  A    between atoms: S_15  and  C_16
REMARK    9  A    between atoms: C_32  and  C_36
REMARK                            x       y       z     vdW  Elec       q    Type
REMARK                         _______ _______ _______ _____ _____    ______ ____
ROOT
ATOM      1  N   UNL     1      -4.118  -7.790   1.120  0.00  0.00    -0.279 N 
ATOM      2  C   UNL     1      -2.822  -7.690   0.764  0.00  0.00    +0.228 C 
ATOM      3  O   UNL     1      -2.164  -8.693   0.583  0.00  0.00    -0.275 OA
ATOM      4  H   UNL     1      -4.645  -6.989   1.265  0.00  0.00    +0.155 HD
ENDROOT
BRANCH   1   9
ATOM      5  C   UNL     1      -6.005  -9.344   1.641  0.00  0.00    +0.091 A 
ATOM      6  C   UNL     1      -6.365 -10.749   1.731  0.00  0.00    -0.021 A 
ATOM      7  C   UNL     1      -5.368 -11.618   1.457  0.00  0.00    -0.004 A 
ATOM      8  S   UNL     1      -3.971 -10.598   1.076  0.00  0.00    -0.077 S 
ATOM      9  C   UNL     1      -4.699  -9.039   1.277  0.00  0.00    +0.086 A 
ATOM     10  C   UNL     1      -5.441 -13.113   1.478  0.00  0.00    +0.046 C 
ATOM     11  C   UNL     1      -6.721 -13.525   2.220  0.00  0.00    -0.009 C 
ATOM     12  C   UNL     1      -7.894 -12.704   1.674  0.00  0.00    +0.008 C 
ATOM     13  C   UNL     1      -7.755 -11.245   2.110  0.00  0.00    +0.037 C 
ATOM     14  C   UNL     1      -6.989 -15.014   1.994  0.00  0.00    +0.008 C 
BRANCH   5  15
ATOM     15  C   UNL     1      -6.982  -8.290   1.918  0.00  0.00    +0.342 C 
ATOM     16  O   UNL     1      -7.672  -7.848   1.019  0.00  0.00    -0.245 OA
BRANCH  15  17
ATOM     17  O   UNL     1      -7.117  -7.808   3.171  0.00  0.00    -0.461 OA
BRANCH  17  19
ATOM     18  C   UNL     1      -8.115  -6.348   4.845  0.00  0.00    +0.048 C 
ATOM     19  C   UNL     1      -8.106  -6.764   3.373  0.00  0.00    +0.229 C 
ENDBRANCH  17  19
ENDBRANCH  15  17
ENDBRANCH   5  15
ENDBRANCH   1   9
BRANCH   2  20
ATOM     20  C   UNL     1      -2.191  -6.333   0.593  0.00  0.00    +0.173 C 
BRANCH  20  21
ATOM     21  S   UNL     1      -0.456  -6.530   0.117  0.00  0.00    -0.078 S 
BRANCH  21  22
ATOM     22  C   UNL     1       0.021  -4.839  -0.011  0.00  0.00    +0.170 A 
ATOM     23  N   UNL     1       1.304  -4.546  -0.362  0.00  0.00    -0.301 N 
ATOM     24  H   UNL     1       1.916  -5.280  -0.531  0.00  0.00    +0.171 HD
ATOM     25  C   UNL     1       1.763  -3.279  -0.486  0.00  0.00    +0.261 A 
ATOM     26  O   UNL     1       2.916  -3.037  -0.801  0.00  0.00    -0.267 OA
ATOM     27  C   UNL     1       0.812  -2.240  -0.224  0.00  0.00    +0.075 A 
ATOM     28  C   UNL     1       1.051  -0.807  -0.287  0.00  0.00    -0.023 A 
ATOM     29  C   UNL     1       0.002  -0.004   0.002  0.00  0.00    -0.004 A 
ATOM     30  S   UNL     1      -1.341  -1.105   0.369  0.00  0.00    -0.073 S 
ATOM     31  C   UNL     1      -0.496  -2.637   0.135  0.00  0.00    +0.117 A 
ATOM     32  N   UNL     1      -0.885  -3.902   0.239  0.00  0.00    -0.216 NA
ATOM     33  C   UNL     1      -0.018   1.493   0.010  0.00  0.00    +0.043 C 
ATOM     34  C   UNL     1       1.431   2.000  -0.001  0.00  0.00    +0.005 C 
ATOM     35  C   UNL     1       2.206   1.244  -1.085  0.00  0.00    +0.005 C 
ATOM     36  C   UNL     1       2.405  -0.211  -0.660  0.00  0.00    +0.037 C 
ENDBRANCH  21  22
ENDBRANCH  20  21
ENDBRANCH   2  20
TORSDOF 7
