REMARK  Name = ZINC50289985
REMARK  3 active torsions:
REMARK  status: ('A' for Active; 'I' for Inactive)
REMARK    1  A    between atoms: C_5  and  N_9
REMARK    2  A    between atoms: C_10  and  C_12
REMARK    3  A    between atoms: C_12  and  C_16
REMARK                            x       y       z     vdW  Elec       q    Type
REMARK                         _______ _______ _______ _____ _____    ______ ____
ROOT
ATOM      1  N   UNL     1       4.350  -0.724  -0.827  0.00  0.00    -0.312 N 
ATOM      2  C   UNL     1       5.356  -0.832   0.064  0.00  0.00    +0.230 C 
ATOM      3  O   UNL     1       5.206  -0.430   1.198  0.00  0.00    -0.275 OA
ATOM      4  H   UNL     1       4.470  -1.046  -1.734  0.00  0.00    +0.149 HD
ENDROOT
BRANCH   1   9
ATOM      5  C   UNL     1      -0.019   1.526   0.010  0.00  0.00    +0.000 C 
ATOM      6  C   UNL     1       1.417   2.055  -0.000  0.00  0.00    +0.000 C 
ATOM      7  C   UNL     1       2.003   1.911  -1.406  0.00  0.00    +0.002 C 
ATOM      8  C   UNL     1       2.370   0.447  -1.657  0.00  0.00    +0.022 C 
ATOM      9  C   UNL     1       3.077  -0.122  -0.425  0.00  0.00    +0.073 C 
ATOM     10  C   UNL     1       2.191  -1.187   0.225  0.00  0.00    +0.022 C 
ATOM     11  C   UNL     1       1.056  -0.506   0.991  0.00  0.00    +0.002 C 
ATOM     12  C   UNL     1       0.002  -0.004   0.002  0.00  0.00    +0.000 C 
ENDBRANCH   1   9
BRANCH   2  13
ATOM     13  C   UNL     1       6.666  -1.451  -0.349  0.00  0.00    +0.147 C 
ATOM     14  C   UNL     1       6.662  -2.989  -0.305  0.00  0.00    +0.028 C 
ATOM     15  C   UNL     1       8.087  -2.898   0.264  0.00  0.00    +0.003 C 
ATOM     16  C   UNL     1       7.708  -1.500   0.780  0.00  0.00    +0.028 C 
BRANCH  13  17
ATOM     17  C   UNL     1       7.200  -0.884  -1.639  0.00  0.00    +0.371 C 
ATOM     18  O   UNL     1       6.677   0.099  -2.136  0.00  0.00    -0.245 OA
ATOM     19  O   UNL     1       8.155  -1.409  -2.187  0.00  0.00    -0.245 OA
ENDBRANCH  13  17
ENDBRANCH   2  13
TORSDOF 3
