REMARK  Name = ZINC65301213
REMARK  7 active torsions:
REMARK  status: ('A' for Active; 'I' for Inactive)
REMARK    1  A    between atoms: C_1  and  C_2
REMARK    2  A    between atoms: C_4  and  N_20
REMARK    3  A    between atoms: C_5  and  C_11
REMARK    4  A    between atoms: C_16  and  C_19
REMARK    5  A    between atoms: C_23  and  C_26
REMARK    6  A    between atoms: N_28  and  C_29
REMARK    7  A    between atoms: C_29  and  C_30
REMARK                            x       y       z     vdW  Elec       q    Type
REMARK                         _______ _______ _______ _____ _____    ______ ____
ROOT
ATOM      1  C   UNL     1       0.562   1.832  -0.526  0.00  0.00    +0.067 C 
ATOM      2  C   UNL     1       0.593   0.340  -0.315  0.00  0.00    +0.058 A 
ATOM      3  C   UNL     1       0.220  -0.517  -1.364  0.00  0.00    +0.050 A 
ATOM      4  C   UNL     1      -0.213  -0.226  -2.685  0.00  0.00    +0.055 A 
ATOM      5  C   UNL     1      -0.525  -1.296  -3.536  0.00  0.00    +0.074 A 
ATOM      6  C   UNL     1      -0.407  -2.613  -3.075  0.00  0.00    +0.098 A 
ATOM      7  N   UNL     1      -0.004  -2.857  -1.846  0.00  0.00    -0.353 N 
ATOM      8  C   UNL     1       0.300  -1.885  -1.012  0.00  0.00    +0.107 A 
ATOM      9  S   UNL     1       0.863  -1.803   0.669  0.00  0.00    +0.030 S 
ATOM     10  N   UNL     1       0.968  -0.138   0.831  0.00  0.00    -0.213 NA
ATOM     11  H   UNL     1       0.070  -3.777  -1.547  0.00  0.00    +0.166 HD
ENDROOT
BRANCH   5  12
ATOM     12  C   UNL     1      -0.977  -1.035  -4.912  0.00  0.00    +0.250 C 
ATOM     13  O   UNL     1      -0.242  -0.466  -5.696  0.00  0.00    -0.270 OA
ATOM     14  N   UNL     1      -2.206  -1.426  -5.303  0.00  0.00    -0.297 N 
ATOM     15  C   UNL     1      -2.712  -1.079  -6.638  0.00  0.00    +0.108 C 
ATOM     16  C   UNL     1      -4.070  -0.385  -6.486  0.00  0.00    +0.022 C 
ATOM     17  C   UNL     1      -5.007  -1.280  -5.671  0.00  0.00    -0.011 C 
ATOM     18  C   UNL     1      -4.418  -1.502  -4.276  0.00  0.00    +0.022 C 
ATOM     19  C   UNL     1      -3.062  -2.213  -4.405  0.00  0.00    +0.108 C 
ATOM     20  C   UNL     1      -6.374  -0.606  -5.546  0.00  0.00    +0.007 C 
ENDBRANCH   5  12
BRANCH   4  21
ATOM     21  N   UNL     1      -0.323   1.078  -3.120  0.00  0.00    -0.329 N 
ATOM     22  C   UNL     1       0.855   1.806  -3.613  0.00  0.00    +0.106 C 
ATOM     23  C   UNL     1       0.544   2.363  -5.005  0.00  0.00    +0.031 C 
ATOM     24  C   UNL     1      -0.733   3.205  -4.940  0.00  0.00    +0.078 C 
ATOM     25  C   UNL     1      -1.904   2.325  -4.499  0.00  0.00    +0.031 C 
ATOM     26  C   UNL     1      -1.622   1.765  -3.107  0.00  0.00    +0.106 C 
BRANCH  24  27
ATOM     27  C   UNL     1      -1.023   3.783  -6.301  0.00  0.00    +0.216 C 
ATOM     28  O   UNL     1      -0.282   3.546  -7.231  0.00  0.00    -0.276 OA
ATOM     29  N   UNL     1      -2.106   4.565  -6.484  0.00  0.00    -0.311 N 
ATOM     30  H   UNL     1      -2.698   4.755  -5.740  0.00  0.00    +0.149 HD
BRANCH  29  31
ATOM     31  C   UNL     1      -2.388   5.127  -7.807  0.00  0.00    +0.139 C 
BRANCH  31  32
ATOM     32  C   UNL     1      -3.645   5.956  -7.743  0.00  0.00    -0.025 A 
ATOM     33  C   UNL     1      -4.873   5.367  -7.980  0.00  0.00    +0.043 A 
ATOM     34  C   UNL     1      -6.028   6.128  -7.922  0.00  0.00    +0.126 A 
ATOM     35  C   UNL     1      -5.953   7.479  -7.626  0.00  0.00    +0.076 A 
ATOM     36  C   UNL     1      -4.723   8.066  -7.388  0.00  0.00    +0.126 A 
ATOM     37  C   UNL     1      -3.569   7.303  -7.442  0.00  0.00    +0.043 A 
ATOM     38  F   UNL     1      -4.648   9.384  -7.099  0.00  0.00    -0.205 F 
ATOM     39  F   UNL     1      -7.228   5.553  -8.154  0.00  0.00    -0.205 F 
ENDBRANCH  31  32
ENDBRANCH  29  31
ENDBRANCH  24  27
ENDBRANCH   4  21
TORSDOF 5
