REMARK  Name = ZINC45511562
REMARK  8 active torsions:
REMARK  status: ('A' for Active; 'I' for Inactive)
REMARK    1  A    between atoms: C_1  and  C_2
REMARK    2  A    between atoms: C_5  and  C_9
REMARK    3  A    between atoms: C_7  and  C_8
REMARK    4  A    between atoms: C_9  and  C_11
REMARK    5  A    between atoms: C_9  and  N_12
REMARK    6  A    between atoms: C_13  and  C_15
REMARK    7  A    between atoms: C_15  and  N_16
REMARK    8  A    between atoms: C_18  and  C_27
REMARK                            x       y       z     vdW  Elec       q    Type
REMARK                         _______ _______ _______ _____ _____    ______ ____
ROOT
ATOM      1  N   UNL     1       2.931  -7.785  -1.760  0.00  0.00    -0.314 N 
ATOM      2  C   UNL     1       4.171  -7.969  -0.987  0.00  0.00    +0.160 C 
ATOM      3  C   UNL     1       3.919  -9.090   0.032  0.00  0.00    +0.276 C 
ATOM      4  O   UNL     1       3.540 -10.275  -0.672  0.00  0.00    -0.476 OA
ATOM      5  C   UNL     1       2.560 -10.170  -1.608  0.00  0.00    +0.143 A 
ATOM      6  C   UNL     1       2.236  -8.936  -2.163  0.00  0.00    +0.073 A 
ATOM      7  C   UNL     1       1.234  -8.845  -3.115  0.00  0.00    +0.027 A 
ATOM      8  C   UNL     1       0.550  -9.981  -3.507  0.00  0.00    +0.002 A 
ATOM      9  C   UNL     1       0.867 -11.206  -2.950  0.00  0.00    +0.004 A 
ATOM     10  C   UNL     1       1.872 -11.304  -2.011  0.00  0.00    +0.047 A 
ENDROOT
BRANCH   3  11
ATOM     11  C   UNL     1       5.178  -9.348   0.820  0.00  0.00    +0.258 C 
ATOM     12  O   UNL     1       5.746 -10.415   0.723  0.00  0.00    -0.271 OA
ATOM     13  N   UNL     1       5.671  -8.393   1.633  0.00  0.00    -0.294 N 
ATOM     14  C   UNL     1       4.995  -7.093   1.772  0.00  0.00    +0.136 C 
ATOM     15  C   UNL     1       4.812  -6.800   3.265  0.00  0.00    +0.179 C 
ATOM     16  O   UNL     1       6.071  -6.936   3.929  0.00  0.00    -0.377 OA
ATOM     17  C   UNL     1       6.625  -8.252   3.871  0.00  0.00    +0.179 C 
ATOM     18  C   UNL     1       6.898  -8.621   2.413  0.00  0.00    +0.136 C 
ENDBRANCH   3  11
BRANCH   1  19
ATOM     19  C   UNL     1       2.437  -6.446  -2.092  0.00  0.00    +0.201 C 
BRANCH  19  21
ATOM     20  N   UNL     1       0.948  -4.746  -1.087  0.00  0.00    -0.307 N 
ATOM     21  C   UNL     1       1.524  -5.962  -0.996  0.00  0.00    +0.231 C 
ATOM     22  O   UNL     1       1.306  -6.665  -0.033  0.00  0.00    -0.274 OA
ATOM     23  H   UNL     1       1.121  -4.184  -1.858  0.00  0.00    +0.149 HD
BRANCH  20  24
ATOM     24  C   UNL     1       0.059  -4.275  -0.021  0.00  0.00    +0.100 C 
ATOM     25  C   UNL     1      -1.356  -4.802  -0.267  0.00  0.00    +0.033 C 
BRANCH  24  30
ATOM     26  C   UNL     1      -0.018   1.503   0.010  0.00  0.00    +0.044 C 
ATOM     27  C   UNL     1       0.002  -0.004   0.002  0.00  0.00    -0.048 A 
ATOM     28  C   UNL     1       0.006  -0.689  -1.199  0.00  0.00    +0.004 A 
ATOM     29  C   UNL     1       0.025  -2.071  -1.207  0.00  0.00    +0.006 A 
ATOM     30  C   UNL     1       0.040  -2.768  -0.013  0.00  0.00    -0.027 A 
ATOM     31  C   UNL     1       0.037  -2.084   1.188  0.00  0.00    +0.009 A 
ATOM     32  C   UNL     1       0.023  -0.702   1.195  0.00  0.00    -0.047 A 
ATOM     33  C   UNL     1       0.025   0.045   2.504  0.00  0.00    +0.044 C 
ENDBRANCH  24  30
ENDBRANCH  20  24
ENDBRANCH  19  21
ENDBRANCH   1  19
TORSDOF 5
