REMARK  Name = ZINC63373624
REMARK  5 active torsions:
REMARK  status: ('A' for Active; 'I' for Inactive)
REMARK    1  A    between atoms: C_1  and  C_2
REMARK    2  A    between atoms: C_7  and  N_8
REMARK    3  A    between atoms: C_11  and  C_18
REMARK    4  A    between atoms: C_25  and  O_30
REMARK    5  A    between atoms: O_30  and  C_31
REMARK                            x       y       z     vdW  Elec       q    Type
REMARK                         _______ _______ _______ _____ _____    ______ ____
ROOT
ATOM      1  N   UNL     1       0.026  -0.013   2.418  0.00  0.00    -0.228 N 
ATOM      2  C   UNL     1      -1.143   0.297   3.014  0.00  0.00    +0.270 A 
ATOM      3  O   UNL     1      -2.199  -0.022   2.497  0.00  0.00    -0.267 OA
ATOM      4  C   UNL     1      -1.135   0.992   4.237  0.00  0.00    +0.101 A 
ATOM      5  C   UNL     1       0.060   1.337   4.795  0.00  0.00    +0.263 A 
ATOM      6  N   UNL     1       1.226   1.002   4.155  0.00  0.00    -0.274 N 
ATOM      7  H   UNL     1       2.079   1.246   4.548  0.00  0.00    +0.173 HD
ATOM      8  C   UNL     1       1.195   0.333   2.988  0.00  0.00    +0.337 A 
ATOM      9  O   UNL     1       2.239   0.040   2.437  0.00  0.00    -0.246 OA
ATOM     10  O   UNL     1       0.095   2.005   5.968  0.00  0.00    -0.267 OA
ENDROOT
BRANCH   4  11
ATOM     11  C   UNL     1      -2.430   1.349   4.920  0.00  0.00    +0.121 C 
ATOM     12  C   UNL     1      -3.164   0.072   5.335  0.00  0.00    +0.128 C 
ATOM     13  C   UNL     1      -4.526   0.514   5.858  0.00  0.00    -0.035 C 
ATOM     14  C   UNL     1      -4.649  -0.005   7.070  0.00  0.00    +0.003 A 
ATOM     15  C   UNL     1      -5.761  -0.004   8.034  0.00  0.00    +0.055 A 
ATOM     16  C   UNL     1      -5.541  -0.634   9.221  0.00  0.00    +0.121 A 
ATOM     17  C   UNL     1      -4.338  -1.269   9.561  0.00  0.00    +0.047 A 
ATOM     18  C   UNL     1      -3.253  -1.335   8.748  0.00  0.00    +0.029 A 
ATOM     19  C   UNL     1      -3.370  -0.693   7.431  0.00  0.00    +0.043 A 
ATOM     20  N   UNL     1      -2.505  -0.622   6.440  0.00  0.00    -0.376 N 
ATOM     21  C   UNL     1      -5.410   1.451   5.070  0.00  0.00    +0.048 C 
ATOM     22  C   UNL     1      -4.509   2.615   4.620  0.00  0.00    +0.086 C 
ATOM     23  N   UNL     1      -3.291   2.098   3.991  0.00  0.00    -0.307 NA
ATOM     24  H   UNL     1      -2.776   2.837   3.537  0.00  0.00    +0.123 HD
ATOM     25  H   UNL     1      -1.596  -0.960   6.437  0.00  0.00    +0.160 HD
BRANCH  16  26
ATOM     26  O   UNL     1      -6.550  -0.649  10.132  0.00  0.00    -0.495 OA
ATOM     27  C   UNL     1      -6.297  -1.316  11.370  0.00  0.00    +0.277 C 
ENDBRANCH  16  26
ENDBRANCH   4  11
BRANCH   1  34
ATOM     28  C   UNL     1      -0.018   1.503   0.010  0.00  0.00    +0.046 C 
ATOM     29  C   UNL     1       0.002  -0.004   0.002  0.00  0.00    -0.026 A 
ATOM     30  C   UNL     1       0.006  -0.689  -1.198  0.00  0.00    +0.007 A 
ATOM     31  C   UNL     1       0.024  -2.071  -1.207  0.00  0.00    +0.020 A 
ATOM     32  C   UNL     1       0.040  -2.773  -0.014  0.00  0.00    +0.043 A 
ATOM     33  C   UNL     1       0.036  -2.093   1.189  0.00  0.00    +0.046 A 
ATOM     34  C   UNL     1       0.023  -0.705   1.200  0.00  0.00    +0.059 A 
ATOM     35 CL   UNL     1       0.062  -4.509  -0.030  0.00  0.00    -0.083 Cl
ENDBRANCH   1  34
TORSDOF 3
