REMARK  Name = ZINC36933903
REMARK  7 active torsions:
REMARK  status: ('A' for Active; 'I' for Inactive)
REMARK    1  A    between atoms: C_1  and  C_2
REMARK    2  A    between atoms: C_3  and  C_9
REMARK    3  A    between atoms: C_4  and  C_8
REMARK    4  A    between atoms: C_9  and  N_10
REMARK    5  A    between atoms: N_10  and  C_11
REMARK    6  A    between atoms: C_18  and  C_20
REMARK    7  A    between atoms: C_18  and  C_21
REMARK                            x       y       z     vdW  Elec       q    Type
REMARK                         _______ _______ _______ _____ _____    ______ ____
ROOT
ATOM      1  N   UNL     1       1.371  -0.155  -2.998  0.00  0.00    -0.340 N 
ATOM      2  H   UNL     1       2.114  -0.341  -2.403  0.00  0.00    +0.146 HD
ENDROOT
BRANCH   1   3
ATOM      3  C   UNL     1       1.614   0.277  -4.307  0.00  0.00    +0.031 A 
ATOM      4  C   UNL     1       0.550   0.549  -5.157  0.00  0.00    +0.027 A 
ATOM      5  C   UNL     1       0.789   0.975  -6.450  0.00  0.00    +0.051 A 
ATOM      6  C   UNL     1       2.090   1.134  -6.901  0.00  0.00    +0.167 A 
ATOM      7  C   UNL     1       3.158   0.863  -6.050  0.00  0.00    +0.169 A 
ATOM      8  C   UNL     1       2.918   0.440  -4.753  0.00  0.00    +0.072 A 
ATOM      9  O   UNL     1       4.322   1.093  -6.724  0.00  0.00    -0.448 OA
ATOM     10  C   UNL     1       3.962   1.114  -8.118  0.00  0.00    +0.248 C 
ATOM     11  O   UNL     1       2.585   1.535  -8.109  0.00  0.00    -0.448 OA
ATOM     12  C   UNL     1       4.826   2.119  -8.882  0.00  0.00    +0.104 C 
ATOM     13  C   UNL     1       4.093  -0.283  -8.728  0.00  0.00    +0.104 C 
ENDBRANCH   1   3
BRANCH   1  14
ATOM     14  C   UNL     1      -0.006  -0.327  -2.527  0.00  0.00    +0.140 C 
BRANCH  14  17
ATOM     15  C   UNL     1      -0.018   1.503   0.010  0.00  0.00    +0.065 C 
ATOM     16  C   UNL     1       0.002  -0.004   0.002  0.00  0.00    +0.038 A 
ATOM     17  C   UNL     1       0.008  -0.796  -1.095  0.00  0.00    +0.013 A 
ATOM     18  C   UNL     1       0.028  -2.127  -0.666  0.00  0.00    +0.065 A 
ATOM     19  N   UNL     1       0.035  -2.134   0.643  0.00  0.00    -0.179 NA
ATOM     20  N   UNL     1       0.024  -0.805   1.088  0.00  0.00    -0.281 N 
ATOM     21  H   UNL     1       0.029  -0.513   2.013  0.00  0.00    +0.189 HD
ATOM     22  C   UNL     1       0.040  -3.343  -1.556  0.00  0.00    +0.068 C 
ENDBRANCH  14  17
ENDBRANCH   1  14
TORSDOF 3
