REMARK  Name = ZINC06160131
REMARK  8 active torsions:
REMARK  status: ('A' for Active; 'I' for Inactive)
REMARK    1  A    between atoms: C_1  and  C_2
REMARK    2  A    between atoms: C_2  and  C_3
REMARK    3  A    between atoms: C_3  and  C_4
REMARK    4  A    between atoms: C_8  and  C_13
REMARK    5  A    between atoms: C_9  and  N_12
REMARK    6  A    between atoms: C_15  and  C_18
REMARK    7  A    between atoms: C_22  and  O_23
REMARK    8  A    between atoms: O_23  and  C_24
REMARK                            x       y       z     vdW  Elec       q    Type
REMARK                         _______ _______ _______ _____ _____    ______ ____
ROOT
ATOM      1  C   UNL     1       3.611  -1.422  -3.124  0.00  0.00    -0.005 C 
ATOM      2  C   UNL     1       3.818  -2.293  -2.096  0.00  0.00    +0.020 C 
ATOM      3  C   UNL     1       3.574  -3.662  -2.273  0.00  0.00    +0.045 C 
ATOM      4  C   UNL     1       3.794  -4.598  -1.172  0.00  0.00    +0.068 C 
ATOM      5  C   UNL     1       4.341  -4.286   0.083  0.00  0.00    +0.066 C 
ATOM      6  C   UNL     1       4.373  -5.468   0.835  0.00  0.00    +0.109 C 
ATOM      7  N   UNL     1       3.863  -6.471   0.066  0.00  0.00    -0.254 N 
ATOM      8  N   UNL     1       3.497  -5.936  -1.176  0.00  0.00    -0.264 N 
ATOM      9  C   UNL     1       3.111  -4.132  -3.528  0.00  0.00    +0.191 C 
ATOM     10  O   UNL     1       2.874  -5.430  -3.714  0.00  0.00    -0.287 OA
ATOM     11  C   UNL     1       2.907  -3.221  -4.568  0.00  0.00    +0.097 C 
ATOM     12  C   UNL     1       3.151  -1.877  -4.361  0.00  0.00    +0.127 C 
ATOM     13  H   UNL     1       3.766  -7.398   0.334  0.00  0.00    +0.171 HD
ATOM     14  H   UNL     1       3.104  -6.429  -1.913  0.00  0.00    +0.170 HD
ENDROOT
BRANCH   5  15
ATOM     15  C   UNL     1       4.799  -2.957   0.528  0.00  0.00    +0.113 A 
ATOM     16  N   UNL     1       5.991  -2.389   0.396  0.00  0.00    -0.244 NA
ATOM     17  C   UNL     1       6.224  -1.181   0.860  0.00  0.00    +0.046 A 
ATOM     18  C   UNL     1       5.236  -0.494   1.488  0.00  0.00    +0.070 A 
ATOM     19  S   UNL     1       3.896  -1.674   1.386  0.00  0.00    -0.075 S 
ATOM     20  C   UNL     1       7.587  -0.560   0.697  0.00  0.00    +0.066 C 
ENDBRANCH   5  15
BRANCH   6  21
ATOM     21  N   UNL     1       4.835  -5.594   2.111  0.00  0.00    -0.345 N 
ATOM     22  H   UNL     1       5.182  -4.819   2.580  0.00  0.00    +0.144 HD
ATOM     23  H   UNL     1       4.817  -6.458   2.551  0.00  0.00    +0.144 HD
ENDBRANCH   6  21
BRANCH  12  24
ATOM     24  O   UNL     1       2.948  -0.992  -5.370  0.00  0.00    -0.495 OA
ATOM     25  C   UNL     1       2.476  -1.521  -6.612  0.00  0.00    +0.277 C 
ENDBRANCH  12  24
BRANCH   1  26
ATOM     26  C   UNL     1       3.877   0.048  -2.922  0.00  0.00    +0.038 C 
BRANCH  26  28
ATOM     27  C   UNL     1       5.558   1.875  -3.202  0.00  0.00    +0.004 C 
ATOM     28  C   UNL     1       5.288   0.383  -3.408  0.00  0.00    +0.001 C 
ENDBRANCH  26  28
ENDBRANCH   1  26
TORSDOF 5
