REMARK  Name = ZINC02678450
REMARK  5 active torsions:
REMARK  status: ('A' for Active; 'I' for Inactive)
REMARK    1  A    between atoms: C_4  and  N_7
REMARK    2  A    between atoms: C_9  and  C_17
REMARK    3  A    between atoms: C_10  and  C_12
REMARK    4  A    between atoms: N_18  and  N_19
REMARK    5  A    between atoms: C_20  and  C_22
REMARK                            x       y       z     vdW  Elec       q    Type
REMARK                         _______ _______ _______ _____ _____    ______ ____
ROOT
ATOM      1  N   UNL     1       1.258   5.679  -0.343  0.00  0.00    -0.239 N 
ATOM      2  C   UNL     1       2.361   5.533   0.419  0.00  0.00    +0.124 A 
ATOM      3  C   UNL     1       2.525   4.200   0.677  0.00  0.00    +0.041 A 
ATOM      4  C   UNL     1       1.421   3.504   0.007  0.00  0.00    +0.108 A 
ATOM      5  N   UNL     1       0.694   4.424  -0.593  0.00  0.00    -0.165 NA
ENDROOT
BRANCH   1   9
ATOM      6  C   UNL     1      -0.232   9.307  -1.751  0.00  0.00    +0.000 A 
ATOM      7  C   UNL     1      -0.883   8.127  -2.061  0.00  0.00    +0.002 A 
ATOM      8  C   UNL     1      -0.392   6.923  -1.596  0.00  0.00    +0.028 A 
ATOM      9  C   UNL     1       0.757   6.898  -0.817  0.00  0.00    +0.065 A 
ATOM     10  C   UNL     1       1.406   8.085  -0.503  0.00  0.00    +0.028 A 
ATOM     11  C   UNL     1       0.913   9.286  -0.975  0.00  0.00    +0.002 A 
ENDBRANCH   1   9
BRANCH   4  12
ATOM     12  C   UNL     1       1.176   2.048   0.002  0.00  0.00    +0.040 A 
ATOM     13  C   UNL     1      -0.017   1.373   0.010  0.00  0.00    +0.018 A 
ATOM     14  C   UNL     1       0.002  -0.004   0.002  0.00  0.00    +0.008 A 
ATOM     15  C   UNL     1       1.196  -0.649  -0.013  0.00  0.00    +0.046 A 
ATOM     16  S   UNL     1       2.356   0.708  -0.017  0.00  0.00    -0.095 S 
ENDBRANCH   4  12
BRANCH   3  17
ATOM     17  C   UNL     1       3.601   3.583   1.473  0.00  0.00    +0.142 C 
ATOM     18  N   UNL     1       3.632   2.296   1.636  0.00  0.00    -0.187 NA
BRANCH  18  19
ATOM     19  N   UNL     1       4.655   1.709   2.392  0.00  0.00    -0.202 N 
ATOM     20  C   UNL     1       4.686   0.373   2.562  0.00  0.00    +0.271 C 
ATOM     21  O   UNL     1       3.826  -0.325   2.057  0.00  0.00    -0.268 OA
ATOM     22  H   UNL     1       5.340   2.265   2.794  0.00  0.00    +0.178 HD
BRANCH  20  23
ATOM     23  C   UNL     1       5.758  -0.242   3.354  0.00  0.00    +0.095 A 
ATOM     24  C   UNL     1       5.954  -1.558   3.639  0.00  0.00    +0.068 A 
ATOM     25  C   UNL     1       7.057  -1.949   4.422  0.00  0.00    +0.008 A 
ATOM     26  C   UNL     1       7.431  -3.258   4.820  0.00  0.00    +0.010 A 
ATOM     27  C   UNL     1       8.532  -3.463   5.588  0.00  0.00    +0.001 A 
ATOM     28  C   UNL     1       9.331  -2.408   6.012  0.00  0.00    +0.001 A 
ATOM     29  C   UNL     1       9.004  -1.118   5.647  0.00  0.00    +0.016 A 
ATOM     30  C   UNL     1       7.888  -0.894   4.868  0.00  0.00    +0.021 A 
ATOM     31  S   UNL     1       7.120   0.554   4.188  0.00  0.00    -0.082 S 
ATOM     32 CL   UNL     1       4.849  -2.753   3.035  0.00  0.00    -0.082 Cl
ENDBRANCH  20  23
ENDBRANCH  18  19
ENDBRANCH   3  17
TORSDOF 5
