REMARK  Name = ZINC20764074
REMARK  7 active torsions:
REMARK  status: ('A' for Active; 'I' for Inactive)
REMARK    1  A    between atoms: C_1  and  C_2
REMARK    2  A    between atoms: C_2  and  O_3
REMARK    3  A    between atoms: O_3  and  C_4
REMARK    4  A    between atoms: C_8  and  C_11
REMARK    5  A    between atoms: C_9  and  O_10
REMARK    6  A    between atoms: C_14  and  C_27
REMARK    7  A    between atoms: C_16  and  C_19
REMARK                            x       y       z     vdW  Elec       q    Type
REMARK                         _______ _______ _______ _____ _____    ______ ____
ROOT
ATOM      1  C   UNL     1      -0.753   1.593  -1.233  0.00  0.00    -0.028 C 
ATOM      2  C   UNL     1      -0.013   1.086   0.008  0.00  0.00    +0.044 C 
ATOM      3  C   UNL     1      -0.716   1.571   1.245  0.00  0.00    +0.040 C 
ATOM      4  N   UNL     1      -1.909   2.038   1.234  0.00  0.00    -0.299 NA
ATOM      5  C   UNL     1      -2.724   2.168   0.033  0.00  0.00    +0.081 C 
ATOM      6  N   UNL     1      -2.191   1.332  -1.049  0.00  0.00    +0.401 N 
ATOM      7  H   UNL     1      -2.728   1.563  -1.981  0.00  0.00    -0.081 HD
ATOM      8  H   UNL     1      -2.342   0.273  -0.793  0.00  0.00    -0.081 HD
ENDROOT
BRANCH   3   9
ATOM      9  C   UNL     1       0.000   1.505   2.532  0.00  0.00    -0.001 A 
ATOM     10  C   UNL     1       1.300   0.995   2.585  0.00  0.00    +0.013 A 
ATOM     11  C   UNL     1       1.969   0.939   3.788  0.00  0.00    +0.050 A 
ATOM     12  C   UNL     1       1.353   1.377   4.952  0.00  0.00    +0.166 A 
ATOM     13  C   UNL     1       0.053   1.882   4.907  0.00  0.00    +0.167 A 
ATOM     14  C   UNL     1      -0.622   1.946   3.703  0.00  0.00    +0.059 A 
ATOM     15  O   UNL     1      -0.319   2.241   6.171  0.00  0.00    -0.453 OA
ATOM     16  C   UNL     1       0.907   2.333   6.920  0.00  0.00    +0.466 C 
ATOM     17  O   UNL     1       1.792   1.421   6.243  0.00  0.00    -0.453 OA
ENDBRANCH   3   9
BRANCH   5  18
ATOM     18  C   UNL     1      -2.730   3.608  -0.410  0.00  0.00    -0.039 A 
ATOM     19  C   UNL     1      -2.882   3.919  -1.748  0.00  0.00    +0.006 A 
ATOM     20  C   UNL     1      -2.893   5.240  -2.155  0.00  0.00    +0.040 A 
ATOM     21  C   UNL     1      -2.740   6.252  -1.223  0.00  0.00    +0.137 A 
ATOM     22  C   UNL     1      -2.582   5.940   0.117  0.00  0.00    +0.053 A 
ATOM     23  C   UNL     1      -2.577   4.618   0.522  0.00  0.00    +0.022 A 
ATOM     24 BR   UNL     1      -2.372   7.321   1.392  0.00  0.00    -0.047 Br
ATOM     25  F   UNL     1      -2.744   7.543  -1.621  0.00  0.00    -0.204 F 
ENDBRANCH   5  18
BRANCH   1  30
ATOM     26  C   UNL     1       1.389   0.574  -4.183  0.00  0.00    +0.162 A 
ATOM     27  C   UNL     1       0.652  -0.478  -4.702  0.00  0.00    +0.049 A 
ATOM     28  C   UNL     1      -0.533  -0.856  -4.099  0.00  0.00    +0.004 A 
ATOM     29  C   UNL     1      -0.987  -0.186  -2.978  0.00  0.00    +0.006 A 
ATOM     30  C   UNL     1      -0.256   0.865  -2.455  0.00  0.00    -0.016 A 
ATOM     31  C   UNL     1       0.930   1.252  -3.058  0.00  0.00    +0.160 A 
BRANCH  31  32
ATOM     32  O   UNL     1       1.647   2.289  -2.547  0.00  0.00    -0.503 OA
ATOM     33  H   UNL     1       1.283   2.824  -1.658  0.00  0.00    +0.292 HD
ENDBRANCH  31  32
BRANCH  26  34
ATOM     34  O   UNL     1       2.555   0.947  -4.775  0.00  0.00    -0.489 OA
BRANCH  34  36
ATOM     35  C   UNL     1       4.286   0.769  -6.452  0.00  0.00    +0.048 C 
ATOM     36  C   UNL     1       2.962   0.209  -5.929  0.00  0.00    +0.226 C 
ENDBRANCH  34  36
ENDBRANCH  26  34
ENDBRANCH   1  30
TORSDOF 6
