REMARK  Name = ZINC16975042
REMARK  9 active torsions:
REMARK  status: ('A' for Active; 'I' for Inactive)
REMARK    1  A    between atoms: C_1  and  C_2
REMARK    2  A    between atoms: C_5  and  N_8
REMARK    3  A    between atoms: N_8  and  S_9
REMARK    4  A    between atoms: S_9  and  C_12
REMARK    5  A    between atoms: C_15  and  C_18
REMARK    6  A    between atoms: N_20  and  C_21
REMARK    7  A    between atoms: C_21  and  C_23
REMARK    8  A    between atoms: C_21  and  C_30
REMARK    9  A    between atoms: N_34  and  C_35
REMARK                            x       y       z     vdW  Elec       q    Type
REMARK                         _______ _______ _______ _____ _____    ______ ____
ROOT
ATOM      1  C   UNL     1       2.716   0.262   0.127  0.00  0.00    +0.109 A 
ATOM      2  C   UNL     1       1.423  -0.229   0.164  0.00  0.00    +0.029 A 
ATOM      3  C   UNL     1       0.355   0.638   0.272  0.00  0.00    +0.015 A 
ATOM      4  C   UNL     1       0.582   2.014   0.343  0.00  0.00    +0.037 A 
ATOM      5  C   UNL     1       1.889   2.502   0.304  0.00  0.00    +0.015 A 
ATOM      6  C   UNL     1       2.948   1.624   0.197  0.00  0.00    +0.029 A 
ENDROOT
BRANCH   4   7
ATOM      7  C   UNL     1      -0.557   2.950   0.452  0.00  0.00    +0.245 C 
ATOM      8  O   UNL     1      -1.694   2.522   0.480  0.00  0.00    -0.270 OA
ATOM      9  N   UNL     1      -0.335   4.277   0.520  0.00  0.00    -0.298 N 
ATOM     10  H   UNL     1       0.573   4.619   0.498  0.00  0.00    +0.150 HD
BRANCH   9  11
ATOM     11  C   UNL     1      -1.464   5.204   0.628  0.00  0.00    +0.170 C 
BRANCH  11  12
ATOM     12  C   UNL     1      -1.060   6.552   0.087  0.00  0.00    -0.020 A 
ATOM     13  C   UNL     1       0.198   7.056   0.356  0.00  0.00    +0.007 A 
ATOM     14  C   UNL     1       0.571   8.289  -0.145  0.00  0.00    +0.020 A 
ATOM     15  C   UNL     1      -0.321   9.024  -0.906  0.00  0.00    +0.041 A 
ATOM     16  C   UNL     1      -1.583   8.522  -1.170  0.00  0.00    +0.020 A 
ATOM     17  C   UNL     1      -1.952   7.286  -0.673  0.00  0.00    +0.007 A 
ATOM     18 CL   UNL     1       0.143  10.577  -1.529  0.00  0.00    -0.084 Cl
ENDBRANCH  11  12
BRANCH  11  19
ATOM     19  C   UNL     1      -1.863   5.343   2.075  0.00  0.00    +0.134 A 
ATOM     20  N   UNL     1      -1.044   5.507   3.078  0.00  0.00    -0.238 NA
ATOM     21  C   UNL     1      -1.749   5.592   4.215  0.00  0.00    +0.130 A 
ATOM     22  C   UNL     1      -3.055   5.476   3.906  0.00  0.00    +0.106 A 
ATOM     23  N   UNL     1      -3.128   5.324   2.547  0.00  0.00    -0.336 N 
ATOM     24  C   UNL     1      -4.350   5.166   1.755  0.00  0.00    +0.150 C 
ENDBRANCH  11  19
ENDBRANCH   9  11
ENDBRANCH   4   7
BRANCH   1  25
ATOM     25  S   UNL     1       4.073  -0.853  -0.010  0.00  0.00    +0.072 S 
ATOM     26  O   UNL     1       5.229  -0.140   0.408  0.00  0.00    -0.150 OA
ATOM     27  O   UNL     1       3.665  -2.068   0.604  0.00  0.00    -0.150 OA
BRANCH  25  28
ATOM     28  N   UNL     1       4.277  -1.182  -1.620  0.00  0.00    -0.216 N 
ATOM     29  H   UNL     1       4.153  -2.086  -1.950  0.00  0.00    +0.174 HD
BRANCH  28  34
ATOM     30  C   UNL     1       5.694   2.975  -5.207  0.00  0.00    +0.044 C 
ATOM     31  C   UNL     1       5.317   1.870  -4.254  0.00  0.00    -0.050 A 
ATOM     32  C   UNL     1       6.262   1.358  -3.383  0.00  0.00    +0.005 A 
ATOM     33  C   UNL     1       5.920   0.346  -2.508  0.00  0.00    +0.025 A 
ATOM     34  C   UNL     1       4.625  -0.158  -2.503  0.00  0.00    +0.048 A 
ATOM     35  C   UNL     1       3.680   0.355  -3.382  0.00  0.00    +0.025 A 
ATOM     36  C   UNL     1       4.027   1.371  -4.251  0.00  0.00    +0.005 A 
ENDBRANCH  28  34
ENDBRANCH  25  28
ENDBRANCH   1  25
TORSDOF 7
