REMARK  Name = ZINC08868195
REMARK  5 active torsions:
REMARK  status: ('A' for Active; 'I' for Inactive)
REMARK    1  A    between atoms: C_10  and  C_11
REMARK    2  A    between atoms: C_11  and  N_12
REMARK    3  A    between atoms: N_15  and  C_16
REMARK    4  A    between atoms: C_16  and  C_17
REMARK    5  A    between atoms: N_20  and  C_24
REMARK                            x       y       z     vdW  Elec       q    Type
REMARK                         _______ _______ _______ _____ _____    ______ ____
ROOT
ATOM      1  N   UNL     1      -0.920   1.705  -3.501  0.00  0.00    -0.295 N 
ATOM      2  C   UNL     1      -0.268   1.258  -2.409  0.00  0.00    +0.300 C 
ATOM      3  O   UNL     1       0.729   0.574  -2.534  0.00  0.00    -0.253 OA
ATOM      4  N   UNL     1      -0.721   1.571  -1.179  0.00  0.00    -0.296 N 
ATOM      5  H   UNL     1      -1.715   2.251  -3.401  0.00  0.00    +0.151 HD
ATOM      6  H   UNL     1      -1.516   2.118  -1.079  0.00  0.00    +0.150 HD
ENDROOT
BRANCH   1   7
ATOM      7  C   UNL     1      -0.427   1.365  -4.838  0.00  0.00    +0.141 C 
BRANCH   7  17
ATOM      8  C   UNL     1      -0.966   6.016  -6.907  0.00  0.00    +0.001 A 
ATOM      9  C   UNL     1      -0.124   5.463  -5.944  0.00  0.00    +0.001 A 
ATOM     10  C   UNL     1      -0.225   4.151  -5.595  0.00  0.00    +0.009 A 
ATOM     11  C   UNL     1      -1.192   3.340  -6.212  0.00  0.00    -0.013 A 
ATOM     12  C   UNL     1      -2.048   3.903  -7.192  0.00  0.00    -0.018 A 
ATOM     13  C   UNL     1      -1.914   5.261  -7.527  0.00  0.00    +0.008 A 
ATOM     14  C   UNL     1      -3.016   3.092  -7.809  0.00  0.00    +0.008 A 
ATOM     15  C   UNL     1      -3.118   1.780  -7.459  0.00  0.00    +0.001 A 
ATOM     16  C   UNL     1      -2.273   1.226  -6.500  0.00  0.00    +0.006 A 
ATOM     17  C   UNL     1      -1.328   1.982  -5.877  0.00  0.00    -0.023 A 
ENDBRANCH   7  17
ENDBRANCH   1   7
BRANCH   4  18
ATOM     18  C   UNL     1      -0.013   1.086   0.008  0.00  0.00    +0.152 C 
BRANCH  18  19
ATOM     19  C   UNL     1      -0.729   1.579   1.267  0.00  0.00    +0.213 C 
ATOM     20  C   UNL     1      -0.003   1.082   2.531  0.00  0.00    +0.163 C 
ATOM     21  N   UNL     1       0.410   2.321   3.209  0.00  0.00    -0.234 N 
ATOM     22  C   UNL     1       0.003   3.369   2.480  0.00  0.00    +0.408 C 
ATOM     23  O   UNL     1       0.210   4.522   2.804  0.00  0.00    -0.226 OA
ATOM     24  O   UNL     1      -0.651   3.031   1.363  0.00  0.00    -0.444 OA
BRANCH  21  25
ATOM     25  C   UNL     1       1.113   2.393   4.419  0.00  0.00    +0.043 A 
ATOM     26  C   UNL     1       1.474   1.228   5.083  0.00  0.00    +0.027 A 
ATOM     27  C   UNL     1       2.172   1.297   6.273  0.00  0.00    +0.051 A 
ATOM     28  C   UNL     1       2.504   2.529   6.813  0.00  0.00    +0.166 A 
ATOM     29  C   UNL     1       2.139   3.699   6.153  0.00  0.00    +0.168 A 
ATOM     30  C   UNL     1       1.444   3.629   4.957  0.00  0.00    +0.073 A 
ATOM     31  O   UNL     1       2.578   4.767   6.881  0.00  0.00    -0.453 OA
ATOM     32  C   UNL     1       3.569   4.237   7.782  0.00  0.00    +0.466 C 
ATOM     33  O   UNL     1       3.172   2.864   7.957  0.00  0.00    -0.453 OA
ENDBRANCH  21  25
ENDBRANCH  18  19
ENDBRANCH   4  18
TORSDOF 5
