REMARK  Name = ZINC63879058
REMARK  10 active torsions:
REMARK  status: ('A' for Active; 'I' for Inactive)
REMARK    1  A    between atoms: C_1  and  C_2
REMARK    2  A    between atoms: C_2  and  O_3
REMARK    3  A    between atoms: O_3  and  C_4
REMARK    4  A    between atoms: C_6  and  C_15
REMARK    5  A    between atoms: C_9  and  O_10
REMARK    6  A    between atoms: O_10  and  C_11
REMARK    7  A    between atoms: C_11  and  C_12
REMARK    8  A    between atoms: C_12  and  C_13
REMARK    9  A    between atoms: C_12  and  C_14
REMARK   10  A    between atoms: C_27  and  C_31
REMARK                            x       y       z     vdW  Elec       q    Type
REMARK                         _______ _______ _______ _____ _____    ______ ____
ROOT
ATOM      1  C   UNL     1       0.346  -5.038   1.046  0.00  0.00    +0.111 C 
ATOM      2  C   UNL     1       1.092  -6.161   1.770  0.00  0.00    +0.128 C 
ATOM      3  C   UNL     1       1.781  -6.983   0.686  0.00  0.00    -0.028 C 
ATOM      4  C   UNL     1       3.064  -7.038   1.016  0.00  0.00    -0.000 A 
ATOM      5  C   UNL     1       4.202  -7.750   0.413  0.00  0.00    +0.010 A 
ATOM      6  C   UNL     1       5.409  -7.569   1.013  0.00  0.00    +0.001 A 
ATOM      7  C   UNL     1       5.594  -6.759   2.138  0.00  0.00    +0.002 A 
ATOM      8  C   UNL     1       4.604  -6.073   2.761  0.00  0.00    +0.026 A 
ATOM      9  C   UNL     1       3.288  -6.189   2.226  0.00  0.00    +0.043 A 
ATOM     10  N   UNL     1       2.153  -5.660   2.643  0.00  0.00    -0.376 N 
ATOM     11  C   UNL     1       1.031  -7.483  -0.524  0.00  0.00    +0.061 C 
ATOM     12  C   UNL     1       0.238  -6.280  -1.066  0.00  0.00    +0.094 C 
ATOM     13  N   UNL     1      -0.516  -5.642   0.018  0.00  0.00    -0.307 NA
ATOM     14  H   UNL     1      -1.173  -6.288   0.430  0.00  0.00    +0.123 HD
ATOM     15  H   UNL     1       2.035  -5.048   3.386  0.00  0.00    +0.160 HD
ENDROOT
BRANCH   1  18
ATOM     16  C   UNL     1       2.173  -1.889   0.036  0.00  0.00    +0.162 A 
ATOM     17  C   UNL     1       1.263  -2.747   0.633  0.00  0.00    +0.054 A 
ATOM     18  C   UNL     1       1.337  -4.107   0.396  0.00  0.00    -0.024 A 
ATOM     19  C   UNL     1       2.317  -4.615  -0.437  0.00  0.00    +0.009 A 
ATOM     20  C   UNL     1       3.228  -3.765  -1.036  0.00  0.00    +0.050 A 
ATOM     21  C   UNL     1       3.156  -2.400  -0.807  0.00  0.00    +0.162 A 
BRANCH  16  22
ATOM     22  O   UNL     1       2.103  -0.551   0.268  0.00  0.00    -0.489 OA
BRANCH  22  24
ATOM     23  C   UNL     1       1.147   1.423   1.282  0.00  0.00    +0.048 C 
ATOM     24  C   UNL     1       1.068  -0.099   1.143  0.00  0.00    +0.226 C 
ENDBRANCH  22  24
ENDBRANCH  16  22
BRANCH  21  25
ATOM     25  O   UNL     1       4.048  -1.562  -1.400  0.00  0.00    -0.488 OA
BRANCH  25  26
ATOM     26  C   UNL     1       5.029  -2.156  -2.252  0.00  0.00    +0.232 C 
BRANCH  26  27
ATOM     27  C   UNL     1       5.937  -1.065  -2.824  0.00  0.00    +0.020 C 
ATOM     28  C   UNL     1       6.728  -0.413  -1.688  0.00  0.00    +0.010 C 
ATOM     29  C   UNL     1       6.907  -1.685  -3.831  0.00  0.00    +0.010 C 
ENDBRANCH  26  27
ENDBRANCH  25  26
ENDBRANCH  21  25
ENDBRANCH   1  18
BRANCH  11  30
ATOM     30  C   UNL     1       2.001  -7.979  -1.566  0.00  0.00    -0.039 A 
ATOM     31  C   UNL     1       2.651  -7.079  -2.389  0.00  0.00    +0.004 A 
ATOM     32  C   UNL     1       3.541  -7.533  -3.345  0.00  0.00    +0.000 A 
ATOM     33  C   UNL     1       3.781  -8.888  -3.476  0.00  0.00    +0.000 A 
ATOM     34  C   UNL     1       3.132  -9.788  -2.652  0.00  0.00    +0.000 A 
ATOM     35  C   UNL     1       2.245  -9.334  -1.694  0.00  0.00    +0.004 A 
ENDBRANCH  11  30
TORSDOF 7
