REMARK  Name = ZINC16495927
REMARK  14 active torsions:
REMARK  status: ('A' for Active; 'I' for Inactive)
REMARK    1  A    between atoms: C_1  and  C_2
REMARK    2  A    between atoms: C_2  and  C_4
REMARK    3  A    between atoms: C_2  and  C_30
REMARK    4  A    between atoms: C_4  and  C_5
REMARK    5  A    between atoms: C_13  and  C_17
REMARK    6  A    between atoms: N_19  and  C_20
REMARK    7  A    between atoms: C_20  and  C_21
REMARK    8  A    between atoms: C_21  and  C_22
REMARK    9  A    between atoms: C_27  and  O_28
REMARK   10  A    between atoms: O_28  and  C_29
REMARK   11  A    between atoms: C_30  and  C_31
REMARK   12  A    between atoms: C_31  and  C_32
REMARK   13  A    between atoms: C_31  and  C_33
REMARK   14  A    between atoms: C_31  and  C_34
REMARK                            x       y       z     vdW  Elec       q    Type
REMARK                         _______ _______ _______ _____ _____    ______ ____
ROOT
ATOM      1  C   UNL     1      -7.762   3.554  -0.993  0.00  0.00    +0.216 C 
ATOM      2  O   UNL     1      -7.879   3.484  -2.198  0.00  0.00    -0.276 OA
ATOM      3  N   UNL     1      -6.698   2.994  -0.385  0.00  0.00    -0.302 N 
ATOM      4  C   UNL     1      -5.671   2.295  -1.171  0.00  0.00    +0.107 C 
ATOM      5  C   UNL     1      -5.502   0.878  -0.608  0.00  0.00    +0.017 C 
ATOM      6  C   UNL     1      -5.236   0.954   0.887  0.00  0.00    -0.016 C 
ATOM      7  C   UNL     1      -6.370   1.650   1.625  0.00  0.00    +0.017 C 
ATOM      8  C   UNL     1      -6.544   3.070   1.074  0.00  0.00    +0.107 C 
ATOM      9  C   UNL     1      -2.825   0.646   1.185  0.00  0.00    +0.028 C 
ATOM     10  C   UNL     1      -3.231  -0.568   2.074  0.00  0.00    +0.061 C 
ATOM     11  S   UNL     1      -4.997  -0.735   1.564  0.00  0.00    -0.174 S 
ATOM     12  N   UNL     1      -3.941   1.629   1.170  0.00  0.00    +0.397 N 
ATOM     13  H   UNL     1      -3.995   2.091   2.085  0.00  0.00    -0.083 HD
ATOM     14  H   UNL     1      -3.761   2.330   0.442  0.00  0.00    -0.083 HD
ENDROOT
BRANCH   9  15
ATOM     15  C   UNL     1      -1.597   1.305   1.757  0.00  0.00    +0.200 C 
ATOM     16  O   UNL     1      -1.642   2.461   2.120  0.00  0.00    -0.278 OA
ATOM     17  N   UNL     1      -0.447   0.609   1.864  0.00  0.00    -0.316 N 
ATOM     18  H   UNL     1      -0.411  -0.315   1.573  0.00  0.00    +0.149 HD
BRANCH  17  19
ATOM     19  C   UNL     1       0.749   1.252   2.414  0.00  0.00    +0.109 C 
BRANCH  19  20
ATOM     20  C   UNL     1       1.908   0.252   2.420  0.00  0.00    +0.057 C 
BRANCH  20  21
ATOM     21  C   UNL     1       3.138   0.913   2.986  0.00  0.00    -0.004 A 
ATOM     22  C   UNL     1       4.068   1.484   2.138  0.00  0.00    +0.007 A 
ATOM     23  C   UNL     1       5.197   2.091   2.657  0.00  0.00    +0.000 A 
ATOM     24  C   UNL     1       5.398   2.128   4.025  0.00  0.00    +0.004 A 
ATOM     25  C   UNL     1       4.471   1.559   4.876  0.00  0.00    +0.046 A 
ATOM     26  C   UNL     1       3.335   0.954   4.358  0.00  0.00    +0.123 A 
BRANCH  26  27
ATOM     27  O   UNL     1       2.419   0.398   5.194  0.00  0.00    -0.495 OA
ATOM     28  C   UNL     1       2.687   0.477   6.595  0.00  0.00    +0.277 C 
ENDBRANCH  26  27
ENDBRANCH  20  21
ENDBRANCH  19  20
ENDBRANCH  17  19
ENDBRANCH   9  15
BRANCH   1  29
ATOM     29  C   UNL     1      -8.808   4.268  -0.174  0.00  0.00    +0.099 C 
BRANCH  29  31
ATOM     30  C   UNL     1      -9.305   5.877  -2.020  0.00  0.00    +0.008 C 
ATOM     31  C   UNL     1      -9.899   4.808  -1.101  0.00  0.00    -0.005 C 
BRANCH  31  32
ATOM     32  C   UNL     1     -11.021   5.422  -0.262  0.00  0.00    +0.010 C 
BRANCH  32  33
ATOM     33  C   UNL     1     -12.325   5.403  -1.062  0.00  0.00    -0.037 C 
ATOM     34  C   UNL     1     -12.756   3.954  -1.299  0.00  0.00    +0.010 C 
ATOM     35  C   UNL     1     -13.415   6.137  -0.279  0.00  0.00    +0.010 C 
ATOM     36  C   UNL     1     -12.109   6.097  -2.408  0.00  0.00    +0.010 C 
ENDBRANCH  32  33
ENDBRANCH  31  32
ENDBRANCH  29  31
ENDBRANCH   1  29
TORSDOF 9
