REMARK  Name = ZINC12861893
REMARK  11 active torsions:
REMARK  status: ('A' for Active; 'I' for Inactive)
REMARK    1  A    between atoms: C_1  and  C_2
REMARK    2  A    between atoms: N_6  and  O_7
REMARK    3  A    between atoms: O_7  and  C_8
REMARK    4  A    between atoms: C_8  and  C_9
REMARK    5  A    between atoms: C_15  and  C_17
REMARK    6  A    between atoms: C_27  and  O_42
REMARK    7  A    between atoms: C_30  and  C_41
REMARK    8  A    between atoms: C_35  and  C_36
REMARK    9  A    between atoms: C_35  and  O_40
REMARK   10  A    between atoms: C_36  and  C_38
REMARK   11  A    between atoms: C_38  and  O_39
REMARK                            x       y       z     vdW  Elec       q    Type
REMARK                         _______ _______ _______ _____ _____    ______ ____
ROOT
ATOM      1  C   UNL     1      -6.039   9.852  -4.027  0.00  0.00    +0.016 C 
ATOM      2  C   UNL     1      -7.049   8.705  -4.061  0.00  0.00    -0.005 C 
ATOM      3  C   UNL     1      -7.519   8.415  -2.629  0.00  0.00    +0.017 C 
ATOM      4  C   UNL     1      -6.330   8.088  -1.728  0.00  0.00    +0.059 C 
ATOM      5  C   UNL     1      -5.474   7.021  -2.359  0.00  0.00    +0.080 C 
ATOM      6  N   UNL     1      -4.635   6.351  -1.630  0.00  0.00    -0.089 NA
ATOM      7  C   UNL     1      -5.595   6.724  -3.791  0.00  0.00    +0.026 C 
ATOM      8  C   UNL     1      -6.331   7.483  -4.583  0.00  0.00    -0.061 C 
ATOM      9  C   UNL     1      -6.506   7.143  -6.044  0.00  0.00    +0.031 C 
ATOM     10  C   UNL     1      -7.981   6.802  -6.235  0.00  0.00    +0.008 C 
ATOM     11  C   UNL     1      -8.896   7.772  -5.522  0.00  0.00    -0.001 C 
ATOM     12  C   UNL     1      -8.260   9.018  -4.925  0.00  0.00    +0.031 C 
ATOM     13  C   UNL     1      -8.110  10.194  -5.862  0.00  0.00    +0.119 C 
ATOM     14  C   UNL     1      -9.393  10.474  -6.673  0.00  0.00    +0.041 C 
ATOM     15  C   UNL     1      -9.812   9.215  -7.391  0.00  0.00    +0.009 C 
ATOM     16  C   UNL     1     -10.112   8.133  -6.335  0.00  0.00    +0.002 C 
ATOM     17  C   UNL     1     -10.747   7.027  -7.188  0.00  0.00    +0.008 C 
ATOM     18  C   UNL     1     -11.677   7.831  -8.140  0.00  0.00    +0.043 C 
ATOM     19  C   UNL     1     -11.149   9.288  -8.144  0.00  0.00    +0.131 C 
ATOM     20  C   UNL     1      -8.741   8.815  -8.400  0.00  0.00    +0.015 C 
ENDROOT
BRANCH  19  21
ATOM     21  C   UNL     1     -10.920   9.760  -9.554  0.00  0.00    +0.190 C 
ATOM     22  O   UNL     1     -10.708   8.959 -10.432  0.00  0.00    -0.292 OA
BRANCH  21  23
ATOM     23  C   UNL     1     -10.953  11.233  -9.870  0.00  0.00    +0.233 C 
BRANCH  23  24
ATOM     24  O   UNL     1     -10.709  11.427 -11.265  0.00  0.00    -0.387 OA
ATOM     25  H   UNL     1     -10.716  12.354 -11.541  0.00  0.00    +0.210 HD
ENDBRANCH  23  24
ENDBRANCH  21  23
ENDBRANCH  19  21
BRANCH  19  26
ATOM     26  O   UNL     1     -12.053  10.153  -7.462  0.00  0.00    -0.380 OA
ATOM     27  H   UNL     1     -12.932  10.198  -7.862  0.00  0.00    +0.211 HD
ENDBRANCH  19  26
BRANCH  13  28
ATOM     28  O   UNL     1      -7.900  11.405  -5.105  0.00  0.00    -0.391 OA
ATOM     29  H   UNL     1      -7.795  12.196  -5.651  0.00  0.00    +0.210 HD
ENDBRANCH  13  28
BRANCH   6  30
ATOM     30  O   UNL     1      -3.840   5.338  -2.217  0.00  0.00    -0.384 OA
BRANCH  30  31
ATOM     31  C   UNL     1      -2.962   4.683  -1.299  0.00  0.00    +0.358 C 
BRANCH  31  32
ATOM     32  C   UNL     1      -2.168   3.629  -2.027  0.00  0.00    +0.257 C 
ATOM     33  O   UNL     1      -2.338   3.455  -3.216  0.00  0.00    -0.272 OA
ATOM     34  N   UNL     1      -1.270   2.879  -1.358  0.00  0.00    -0.285 N 
ATOM     35  C   UNL     1      -0.965   2.984   0.080  0.00  0.00    +0.109 C 
ATOM     36  C   UNL     1      -0.396   1.595   0.471  0.00  0.00    +0.021 C 
ATOM     37  C   UNL     1       0.416   1.225  -0.798  0.00  0.00    +0.035 C 
ATOM     38  C   UNL     1      -0.433   1.821  -1.942  0.00  0.00    +0.189 C 
BRANCH  38  39
ATOM     39  C   UNL     1       0.469   2.406  -2.998  0.00  0.00    +0.376 C 
ATOM     40  O   UNL     1       0.666   3.597  -3.032  0.00  0.00    -0.244 OA
ATOM     41  O   UNL     1       1.053   1.603  -3.902  0.00  0.00    -0.244 OA
ENDBRANCH  38  39
ENDBRANCH  31  32
ENDBRANCH  30  31
ENDBRANCH   6  30
TORSDOF 9
