REMARK  Name = ZINC02341785
REMARK  7 active torsions:
REMARK  status: ('A' for Active; 'I' for Inactive)
REMARK    1  A    between atoms: C_4  and  C_7
REMARK    2  A    between atoms: C_10  and  S_18
REMARK    3  A    between atoms: N_11  and  C_12
REMARK    4  A    between atoms: S_18  and  C_19
REMARK    5  A    between atoms: C_19  and  C_20
REMARK    6  A    between atoms: N_22  and  N_23
REMARK    7  A    between atoms: C_24  and  C_25
REMARK                            x       y       z     vdW  Elec       q    Type
REMARK                         _______ _______ _______ _____ _____    ______ ____
ROOT
ATOM      1  S   UNL     1      -1.696  -0.631   0.042  0.00  0.00    -0.076 S 
ENDROOT
BRANCH   1   5
ATOM      2  C   UNL     1      -1.611  -4.540   0.020  0.00  0.00    +0.169 A 
ATOM      3  N   UNL     1      -0.337  -4.222   0.001  0.00  0.00    -0.128 NA
ATOM      4  N   UNL     1      -0.202  -2.944   0.006  0.00  0.00    -0.122 NA
ATOM      5  C   UNL     1      -1.382  -2.365   0.028  0.00  0.00    +0.197 A 
ATOM      6  N   UNL     1      -2.321  -3.359   0.043  0.00  0.00    -0.270 N 
BRANCH   2  10
ATOM      7  C   UNL     1      -3.233  -8.465   0.025  0.00  0.00    +0.000 A 
ATOM      8  C   UNL     1      -1.894  -8.273   0.315  0.00  0.00    +0.001 A 
ATOM      9  C   UNL     1      -1.361  -7.001   0.315  0.00  0.00    +0.011 A 
ATOM     10  C   UNL     1      -2.175  -5.906   0.021  0.00  0.00    +0.020 A 
ATOM     11  C   UNL     1      -3.527  -6.106  -0.264  0.00  0.00    +0.011 A 
ATOM     12  C   UNL     1      -4.046  -7.384  -0.266  0.00  0.00    +0.001 A 
ENDBRANCH   2  10
BRANCH   6  13
ATOM     13  C   UNL     1      -3.715  -3.209   0.074  0.00  0.00    +0.051 A 
ATOM     14  C   UNL     1      -4.437  -3.650   1.175  0.00  0.00    +0.026 A 
ATOM     15  C   UNL     1      -5.809  -3.496   1.205  0.00  0.00    +0.002 A 
ATOM     16  C   UNL     1      -6.465  -2.915   0.135  0.00  0.00    +0.000 A 
ATOM     17  C   UNL     1      -5.748  -2.479  -0.964  0.00  0.00    +0.002 A 
ATOM     18  C   UNL     1      -4.375  -2.625  -0.998  0.00  0.00    +0.026 A 
ENDBRANCH   6  13
ENDBRANCH   1   5
BRANCH   1  19
ATOM     19  C   UNL     1       0.002  -0.004   0.018  0.00  0.00    +0.174 C 
BRANCH  19  20
ATOM     20  C   UNL     1      -0.018   1.503   0.026  0.00  0.00    +0.242 C 
ATOM     21  O   UNL     1      -1.077   2.095   0.041  0.00  0.00    -0.273 OA
ATOM     22  N   UNL     1       1.140   2.192   0.011  0.00  0.00    -0.206 N 
ATOM     23  H   UNL     1       1.986   1.719  -0.006  0.00  0.00    +0.177 HD
BRANCH  22  24
ATOM     24  N   UNL     1       1.121   3.593   0.018  0.00  0.00    -0.188 NA
ATOM     25  C   UNL     1       2.237   4.258   0.004  0.00  0.00    +0.139 C 
BRANCH  25  26
ATOM     26  C   UNL     1       2.217   5.729   0.012  0.00  0.00    +0.002 A 
ATOM     27  C   UNL     1       3.398   6.454   0.108  0.00  0.00    +0.010 A 
ATOM     28  C   UNL     1       3.376   7.842   0.116  0.00  0.00    +0.001 A 
ATOM     29  C   UNL     1       2.212   8.542   0.030  0.00  0.00    +0.008 A 
ATOM     30  C   UNL     1       0.980   7.875  -0.070  0.00  0.00    -0.017 A 
ATOM     31  C   UNL     1       0.954   6.459  -0.088  0.00  0.00    -0.009 A 
ATOM     32  C   UNL     1      -0.272   5.790  -0.182  0.00  0.00    +0.009 A 
ATOM     33  C   UNL     1      -1.427   6.509  -0.266  0.00  0.00    +0.001 A 
ATOM     34  C   UNL     1      -1.405   7.902  -0.255  0.00  0.00    +0.001 A 
ATOM     35  C   UNL     1      -0.230   8.584  -0.159  0.00  0.00    +0.008 A 
ENDBRANCH  25  26
ENDBRANCH  22  24
ENDBRANCH  19  20
ENDBRANCH   1  19
TORSDOF 7
