REMARK  Name = ZINC36307890
REMARK  18 active torsions:
REMARK  status: ('A' for Active; 'I' for Inactive)
REMARK    1  A    between atoms: C_1  and  C_2
REMARK    2  A    between atoms: C_2  and  C_3
REMARK    3  A    between atoms: C_2  and  C_4
REMARK    4  A    between atoms: C_4  and  O_5
REMARK    5  A    between atoms: O_5  and  C_6
REMARK    6  A    between atoms: C_6  and  C_7
REMARK    7  A    between atoms: C_7  and  C_9
REMARK    8  A    between atoms: C_7  and  O_37
REMARK    9  A    between atoms: C_9  and  N_10
REMARK   10  A    between atoms: N_10  and  C_11
REMARK   11  A    between atoms: N_10  and  C_34
REMARK   12  A    between atoms: C_11  and  C_12
REMARK   13  A    between atoms: C_13  and  C_31
REMARK   14  A    between atoms: N_15  and  C_25
REMARK   15  A    between atoms: C_16  and  O_17
REMARK   16  A    between atoms: O_17  and  C_18
REMARK   17  A    between atoms: C_31  and  C_32
REMARK   18  A    between atoms: C_31  and  C_33
REMARK                            x       y       z     vdW  Elec       q    Type
REMARK                         _______ _______ _______ _____ _____    ______ ____
ROOT
ATOM      1  C   UNL     1      -0.812  -0.073   9.970  0.00  0.00    +0.021 A 
ATOM      2  C   UNL     1      -1.408   1.187  10.080  0.00  0.00    +0.071 A 
ATOM      3  N   UNL     1      -2.678   1.022  10.349  0.00  0.00    -0.168 NA
ATOM      4  N   UNL     1      -2.940  -0.352  10.420  0.00  0.00    -0.200 N 
ATOM      5  C   UNL     1      -1.774  -1.011  10.178  0.00  0.00    +0.225 A 
ENDROOT
BRANCH   4   6
ATOM      6  C   UNL     1      -4.182  -0.944  10.688  0.00  0.00    +0.069 A 
ATOM      7  C   UNL     1      -4.574  -2.083   9.998  0.00  0.00    +0.028 A 
ATOM      8  C   UNL     1      -5.798  -2.664  10.265  0.00  0.00    +0.002 A 
ATOM      9  C   UNL     1      -6.634  -2.110  11.217  0.00  0.00    +0.000 A 
ATOM     10  C   UNL     1      -6.247  -0.976  11.906  0.00  0.00    +0.002 A 
ATOM     11  C   UNL     1      -5.021  -0.394  11.648  0.00  0.00    +0.028 A 
ENDBRANCH   4   6
BRANCH   2  12
ATOM     12  C   UNL     1      -0.706   2.510   9.918  0.00  0.00    +0.034 C 
ATOM     13  C   UNL     1      -1.629   3.491   9.192  0.00  0.00    +0.014 C 
ATOM     14  C   UNL     1      -0.349   3.071  11.296  0.00  0.00    +0.014 C 
ENDBRANCH   2  12
BRANCH   1  15
ATOM     15  C   UNL     1       0.640  -0.345   9.667  0.00  0.00    -0.035 C 
BRANCH  15  16
ATOM     16  N   UNL     1       0.776  -0.781   8.271  0.00  0.00    +0.386 N 
ATOM     17  H   UNL     1       0.157  -1.560   8.100  0.00  0.00    -0.081 HD
BRANCH  16  18
ATOM     18  C   UNL     1       0.424   0.329   7.375  0.00  0.00    -0.068 C 
ATOM     19  C   UNL     1      -0.926   0.258   6.659  0.00  0.00    -0.017 C 
ATOM     20  C   UNL     1       0.369   0.035   5.875  0.00  0.00    -0.017 C 
ENDBRANCH  16  18
BRANCH  16  21
ATOM     21  C   UNL     1       2.163  -1.193   8.020  0.00  0.00    -0.044 C 
BRANCH  21  22
ATOM     22  C   UNL     1       2.250  -1.889   6.660  0.00  0.00    +0.124 C 
BRANCH  22  23
ATOM     23  O   UNL     1       1.357  -3.005   6.638  0.00  0.00    -0.391 OA
ATOM     24  H   UNL     1       1.545  -3.672   7.312  0.00  0.00    +0.210 HD
ENDBRANCH  22  23
BRANCH  22  25
ATOM     25  C   UNL     1       3.682  -2.376   6.427  0.00  0.00    +0.189 C 
BRANCH  25  26
ATOM     26  O   UNL     1       3.791  -2.922   5.111  0.00  0.00    -0.377 OA
BRANCH  26  27
ATOM     27  C   UNL     1       5.095  -3.409   4.790  0.00  0.00    +0.163 C 
BRANCH  27  29
ATOM     28  C   UNL     1       4.831  -2.832   2.373  0.00  0.00    +0.009 C 
ATOM     29  C   UNL     1       5.095  -3.966   3.365  0.00  0.00    +0.009 C 
ATOM     30  C   UNL     1       6.456  -4.600   3.065  0.00  0.00    +0.009 C 
ENDBRANCH  27  29
ENDBRANCH  26  27
ENDBRANCH  25  26
ENDBRANCH  22  25
ENDBRANCH  21  22
ENDBRANCH  16  21
ENDBRANCH  15  16
ENDBRANCH   1  15
BRANCH   5  31
ATOM     31  O   UNL     1      -1.604  -2.357  10.151  0.00  0.00    -0.435 OA
BRANCH  31  32
ATOM     32  C   UNL     1      -1.336  -2.990  11.323  0.00  0.00    +0.165 A 
ATOM     33  C   UNL     1      -1.347  -2.280  12.515  0.00  0.00    +0.049 A 
ATOM     34  C   UNL     1      -1.075  -2.925  13.706  0.00  0.00    +0.004 A 
ATOM     35  C   UNL     1      -0.791  -4.278  13.712  0.00  0.00    +0.003 A 
ATOM     36  C   UNL     1      -0.778  -4.990  12.527  0.00  0.00    +0.042 A 
ATOM     37  C   UNL     1      -1.055  -4.351  11.332  0.00  0.00    +0.165 A 
ATOM     38  F   UNL     1      -1.048  -5.047  10.174  0.00  0.00    -0.202 F 
ENDBRANCH  31  32
ENDBRANCH   5  31
TORSDOF 14
