REMARK  Name = ZINC38573927
REMARK  6 active torsions:
REMARK  status: ('A' for Active; 'I' for Inactive)
REMARK    1  A    between atoms: C_4  and  C_7
REMARK    2  A    between atoms: C_7  and  N_8
REMARK    3  A    between atoms: N_8  and  C_9
REMARK    4  A    between atoms: N_15  and  C_17
REMARK    5  A    between atoms: C_17  and  C_18
REMARK    6  A    between atoms: C_25  and  N_30
REMARK                            x       y       z     vdW  Elec       q    Type
REMARK                         _______ _______ _______ _____ _____    ______ ____
ROOT
ATOM      1  C   UNL     1       5.435  -1.670   1.364  0.00  0.00    +0.203 C 
ATOM      2  C   UNL     1       5.274  -2.850   2.297  0.00  0.00    -0.013 C 
ATOM      3  C   UNL     1       6.099  -2.973   3.335  0.00  0.00    -0.028 C 
ATOM      4  C   UNL     1       6.003  -4.125   4.302  0.00  0.00    +0.051 C 
ATOM      5  C   UNL     1       4.648  -4.817   4.165  0.00  0.00    +0.090 C 
ATOM      6  N   UNL     1       4.412  -5.095   2.739  0.00  0.00    -0.294 NA
ATOM      7  C   UNL     1       4.177  -3.841   2.016  0.00  0.00    +0.119 C 
ATOM      8  C   UNL     1       7.136  -1.958   3.546  0.00  0.00    +0.063 C 
ATOM      9  C   UNL     1       8.126  -1.774   4.486  0.00  0.00    +0.121 C 
ATOM     10  N   UNL     1       8.792  -0.645   4.170  0.00  0.00    -0.262 N 
ATOM     11  N   UNL     1       8.329  -0.077   3.114  0.00  0.00    -0.152 NA
ATOM     12  C   UNL     1       7.278  -0.806   2.619  0.00  0.00    +0.181 C 
ATOM     13  N   UNL     1       6.484  -0.678   1.608  0.00  0.00    -0.240 NA
ATOM     14  H   UNL     1       9.539  -0.299   4.683  0.00  0.00    +0.190 HD
ENDROOT
BRANCH   9  15
ATOM     15  N   UNL     1       8.391  -2.605   5.569  0.00  0.00    -0.343 N 
ATOM     16  H   UNL     1       7.854  -3.399   5.714  0.00  0.00    +0.144 HD
ATOM     17  H   UNL     1       9.114  -2.390   6.180  0.00  0.00    +0.144 HD
ENDBRANCH   9  15
BRANCH   1  18
ATOM     18  N   UNL     1       4.153  -0.953   1.342  0.00  0.00    -0.288 NA
ATOM     19  H   UNL     1       4.212  -0.090   1.862  0.00  0.00    +0.125 HD
BRANCH  18  20
ATOM     20  C   UNL     1       3.711  -0.707  -0.038  0.00  0.00    +0.118 C 
BRANCH  20  24
ATOM     21  C   UNL     1      -0.017   1.378   0.010  0.00  0.00    +0.000 A 
ATOM     22  C   UNL     1       1.171   2.086   0.002  0.00  0.00    +0.000 A 
ATOM     23  C   UNL     1       2.377   1.411  -0.013  0.00  0.00    +0.005 A 
ATOM     24  C   UNL     1       2.396   0.029  -0.020  0.00  0.00    -0.034 A 
ATOM     25  C   UNL     1       1.208  -0.679  -0.012  0.00  0.00    +0.005 A 
ATOM     26  C   UNL     1       0.002  -0.004   0.002  0.00  0.00    +0.000 A 
ENDBRANCH  20  24
ENDBRANCH  18  20
ENDBRANCH   1  18
BRANCH   6  27
ATOM     27  C   UNL     1       3.288  -6.024   2.562  0.00  0.00    +0.120 C 
BRANCH  27  28
ATOM     28  C   UNL     1       3.653  -7.370   3.134  0.00  0.00    -0.033 A 
ATOM     29  C   UNL     1       4.267  -8.317   2.336  0.00  0.00    +0.005 A 
ATOM     30  C   UNL     1       4.602  -9.551   2.861  0.00  0.00    +0.000 A 
ATOM     31  C   UNL     1       4.324  -9.838   4.184  0.00  0.00    +0.000 A 
ATOM     32  C   UNL     1       3.711  -8.890   4.983  0.00  0.00    +0.000 A 
ATOM     33  C   UNL     1       3.380  -7.655   4.459  0.00  0.00    +0.005 A 
ENDBRANCH  27  28
ENDBRANCH   6  27
TORSDOF 6
