REMARK  Name = ZINC35739057
REMARK  4 active torsions:
REMARK  status: ('A' for Active; 'I' for Inactive)
REMARK    1  A    between atoms: C_1  and  C_2
REMARK    2  A    between atoms: C_2  and  C_4
REMARK    3  A    between atoms: C_2  and  N_9
REMARK    4  A    between atoms: N_9  and  C_10
REMARK                            x       y       z     vdW  Elec       q    Type
REMARK                         _______ _______ _______ _____ _____    ______ ____
ROOT
ATOM      1  C   UNL     1      -1.968  -0.335  -1.325  0.00  0.00    +0.050 C 
ATOM      2  C   UNL     1      -3.391  -0.844  -1.339  0.00  0.00    -0.030 A 
ATOM      3  C   UNL     1      -3.937  -2.101  -1.203  0.00  0.00    +0.019 A 
ATOM      4  C   UNL     1      -5.310  -2.268  -1.259  0.00  0.00    +0.018 A 
ATOM      5  C   UNL     1      -6.129  -1.169  -1.452  0.00  0.00    +0.017 A 
ATOM      6  C   UNL     1      -5.584   0.091  -1.589  0.00  0.00    +0.024 A 
ATOM      7  C   UNL     1      -4.203   0.266  -1.533  0.00  0.00    +0.035 A 
ATOM      8  N   UNL     1      -3.424   1.419  -1.642  0.00  0.00    -0.286 N 
ATOM      9  C   UNL     1      -2.107   1.159  -1.534  0.00  0.00    +0.208 C 
ATOM     10  O   UNL     1      -1.203   1.965  -1.592  0.00  0.00    -0.277 OA
ATOM     11 BR   UNL     1      -6.065  -3.991  -1.074  0.00  0.00    -0.050 Br
ATOM     12  H   UNL     1      -3.789   2.307  -1.782  0.00  0.00    +0.155 HD
ENDROOT
BRANCH   1  13
ATOM     13  N   UNL     1      -1.333  -0.616  -0.032  0.00  0.00    +0.396 N 
ATOM     14  H   UNL     1      -1.342  -1.611   0.138  0.00  0.00    -0.083 HD
ATOM     15  H   UNL     1      -1.840  -0.145   0.702  0.00  0.00    -0.083 HD
BRANCH  13  17
ATOM     16  C   UNL     1       0.679  -0.317   1.332  0.00  0.00    -0.006 C 
ATOM     17  C   UNL     1       0.055  -0.136  -0.053  0.00  0.00    -0.006 C 
BRANCH  17  18
ATOM     18  C   UNL     1       0.844  -0.925  -1.066  0.00  0.00    +0.091 A 
ATOM     19  C   UNL     1       1.774  -0.427  -1.901  0.00  0.00    +0.043 A 
ATOM     20  C   UNL     1       2.256  -1.510  -2.671  0.00  0.00    +0.041 A 
ATOM     21  C   UNL     1       1.592  -2.606  -2.261  0.00  0.00    +0.195 A 
ATOM     22  O   UNL     1       0.743  -2.247  -1.284  0.00  0.00    -0.469 OA
ENDBRANCH  17  18
ENDBRANCH  13  17
ENDBRANCH   1  13
TORSDOF 3
