REMARK  Name = ZINC38791129
REMARK  6 active torsions:
REMARK  status: ('A' for Active; 'I' for Inactive)
REMARK    1  A    between atoms: C_4  and  C_7
REMARK    2  A    between atoms: C_7  and  C_9
REMARK    3  A    between atoms: C_7  and  S_20
REMARK    4  A    between atoms: C_9  and  C_11
REMARK    5  A    between atoms: S_20  and  C_21
REMARK    6  A    between atoms: C_23  and  N_28
REMARK                            x       y       z     vdW  Elec       q    Type
REMARK                         _______ _______ _______ _____ _____    ______ ____
ROOT
ATOM      1  C   UNL     1       3.711  -0.707  -0.038  0.00  0.00    +0.155 C 
ENDROOT
BRANCH   1   5
ATOM      2  C   UNL     1      -0.017   1.378   0.010  0.00  0.00    +0.000 A 
ATOM      3  C   UNL     1       1.171   2.086   0.002  0.00  0.00    +0.000 A 
ATOM      4  C   UNL     1       2.377   1.411  -0.013  0.00  0.00    +0.005 A 
ATOM      5  C   UNL     1       2.396   0.029  -0.020  0.00  0.00    -0.027 A 
ATOM      6  C   UNL     1       1.208  -0.679  -0.012  0.00  0.00    +0.005 A 
ATOM      7  C   UNL     1       0.002  -0.004   0.002  0.00  0.00    +0.000 A 
ENDBRANCH   1   5
BRANCH   1   8
ATOM      8  C   UNL     1       3.816  -1.579   1.188  0.00  0.00    +0.179 C 
ATOM      9  O   UNL     1       3.492  -2.748   1.131  0.00  0.00    -0.291 OA
BRANCH   8  10
ATOM     10  C   UNL     1       4.290  -1.036   2.401  0.00  0.00    +0.025 C 
ATOM     11  C   UNL     1       4.450  -1.696   3.606  0.00  0.00    +0.006 A 
ATOM     12  C   UNL     1       4.216  -3.031   4.011  0.00  0.00    +0.010 A 
ATOM     13  C   UNL     1       4.467  -3.411   5.284  0.00  0.00    +0.001 A 
ATOM     14  C   UNL     1       4.963  -2.523   6.251  0.00  0.00    +0.002 A 
ATOM     15  C   UNL     1       5.221  -1.228   5.968  0.00  0.00    +0.026 A 
ATOM     16  C   UNL     1       4.975  -0.732   4.604  0.00  0.00    +0.043 A 
ATOM     17  N   UNL     1       5.131   0.444   4.065  0.00  0.00    -0.380 N 
ATOM     18  C   UNL     1       4.735   0.388   2.655  0.00  0.00    +0.152 C 
ATOM     19  H   UNL     1       5.461   1.232   4.524  0.00  0.00    +0.160 HD
ENDBRANCH   8  10
ENDBRANCH   1   8
BRANCH   1  20
ATOM     20  S   UNL     1       3.806  -1.741  -1.525  0.00  0.00    -0.072 S 
BRANCH  20  21
ATOM     21  C   UNL     1       3.820  -0.581  -2.851  0.00  0.00    +0.172 A 
ATOM     22  N   UNL     1       3.771   0.708  -2.581  0.00  0.00    -0.209 NA
ATOM     23  C   UNL     1       3.779   1.620  -3.559  0.00  0.00    +0.124 A 
ATOM     24  C   UNL     1       3.840   1.210  -4.884  0.00  0.00    +0.113 A 
ATOM     25  C   UNL     1       3.892  -0.160  -5.162  0.00  0.00    +0.254 A 
ATOM     26  N   UNL     1       3.886  -1.034  -4.134  0.00  0.00    -0.302 N 
ATOM     27  O   UNL     1       3.947  -0.557  -6.315  0.00  0.00    -0.268 OA
ATOM     28  H   UNL     1       3.926  -1.987  -4.309  0.00  0.00    +0.171 HD
BRANCH  23  29
ATOM     29  N   UNL     1       3.726   2.965  -3.252  0.00  0.00    -0.343 N 
ATOM     30  H   UNL     1       3.683   3.250  -2.326  0.00  0.00    +0.144 HD
ATOM     31  H   UNL     1       3.732   3.625  -3.963  0.00  0.00    +0.144 HD
ENDBRANCH  23  29
ENDBRANCH  20  21
ENDBRANCH   1  20
TORSDOF 6
