REMARK  Name = ZINC35093571
REMARK  13 active torsions:
REMARK  status: ('A' for Active; 'I' for Inactive)
REMARK    1  A    between atoms: C_1  and  C_2
REMARK    2  A    between atoms: C_2  and  C_3
REMARK    3  A    between atoms: C_6  and  N_9
REMARK    4  A    between atoms: C_19  and  C_20
REMARK    5  A    between atoms: C_20  and  C_22
REMARK    6  A    between atoms: C_20  and  N_24
REMARK    7  A    between atoms: C_22  and  C_23
REMARK    8  A    between atoms: N_24  and  C_25
REMARK    9  A    between atoms: C_25  and  C_26
REMARK   10  A    between atoms: C_26  and  N_27
REMARK   11  A    between atoms: N_27  and  C_28
REMARK   12  A    between atoms: N_27  and  C_29
REMARK   13  A    between atoms: N_32  and  C_33
REMARK                            x       y       z     vdW  Elec       q    Type
REMARK                         _______ _______ _______ _____ _____    ______ ____
ROOT
ATOM      1  C   UNL     1       4.896  -1.835  -3.458  0.00  0.00    +0.144 C 
ENDROOT
BRANCH   1  12
ATOM      2  N   UNL     1       4.464  -1.470  -5.856  0.00  0.00    -0.263 N 
ATOM      3  C   UNL     1       3.937  -1.814  -7.054  0.00  0.00    +0.266 A 
ATOM      4  O   UNL     1       4.097  -1.117  -8.039  0.00  0.00    -0.267 OA
ATOM      5  C   UNL     1       3.165  -3.063  -7.120  0.00  0.00    +0.065 A 
ATOM      6  C   UNL     1       2.582  -3.507  -8.306  0.00  0.00    +0.015 A 
ATOM      7  C   UNL     1       1.869  -4.686  -8.312  0.00  0.00    +0.001 A 
ATOM      8  C   UNL     1       1.727  -5.431  -7.149  0.00  0.00    +0.002 A 
ATOM      9  C   UNL     1       2.295  -5.010  -5.967  0.00  0.00    +0.028 A 
ATOM     10  C   UNL     1       3.023  -3.819  -5.936  0.00  0.00    +0.078 A 
ATOM     11  N   UNL     1       3.600  -3.368  -4.794  0.00  0.00    -0.231 NA
ATOM     12  C   UNL     1       4.281  -2.263  -4.766  0.00  0.00    +0.138 A 
BRANCH   2  16
ATOM     13  C   UNL     1       6.679   2.042  -5.505  0.00  0.00    -0.047 A 
ATOM     14  C   UNL     1       5.439   1.946  -4.901  0.00  0.00    +0.005 A 
ATOM     15  C   UNL     1       4.702   0.783  -5.016  0.00  0.00    +0.026 A 
ATOM     16  C   UNL     1       5.208  -0.289  -5.738  0.00  0.00    +0.051 A 
ATOM     17  C   UNL     1       6.454  -0.189  -6.343  0.00  0.00    +0.026 A 
ATOM     18  C   UNL     1       7.184   0.978  -6.230  0.00  0.00    +0.005 A 
BRANCH  13  20
ATOM     19  C   UNL     1       7.125   4.257  -6.527  0.00  0.00    +0.009 C 
ATOM     20  C   UNL     1       7.481   3.312  -5.378  0.00  0.00    +0.032 C 
ENDBRANCH  13  20
ENDBRANCH   2  16
ENDBRANCH   1  12
BRANCH   1  21
ATOM     21  N   UNL     1       6.336  -2.101  -3.485  0.00  0.00    -0.277 N 
ATOM     22  C   UNL     1       7.211  -1.096  -3.284  0.00  0.00    +0.307 C 
ATOM     23  O   UNL     1       6.806   0.032  -3.080  0.00  0.00    -0.252 OA
ATOM     24  N   UNL     1       8.536  -1.342  -3.308  0.00  0.00    -0.269 N 
ATOM     25  H   UNL     1       8.862  -2.227  -3.536  0.00  0.00    +0.156 HD
BRANCH  24  26
ATOM     26  C   UNL     1       9.443  -0.319  -3.006  0.00  0.00    +0.036 A 
ATOM     27  C   UNL     1       9.120   0.638  -2.053  0.00  0.00    +0.023 A 
ATOM     28  C   UNL     1      10.016   1.646  -1.756  0.00  0.00    +0.003 A 
ATOM     29  C   UNL     1      11.235   1.703  -2.406  0.00  0.00    +0.020 A 
ATOM     30  C   UNL     1      11.561   0.751  -3.356  0.00  0.00    +0.043 A 
ATOM     31  C   UNL     1      10.670  -0.264  -3.654  0.00  0.00    +0.043 A 
ATOM     32 CL   UNL     1      13.092   0.827  -4.171  0.00  0.00    -0.083 Cl
ENDBRANCH  24  26
BRANCH  21  33
ATOM     33  C   UNL     1       6.825  -3.460  -3.731  0.00  0.00    +0.091 C 
BRANCH  33  34
ATOM     34  C   UNL     1       7.152  -3.624  -5.216  0.00  0.00    -0.060 C 
BRANCH  34  35
ATOM     35  N   UNL     1       7.541  -5.015  -5.482  0.00  0.00    +0.377 N 
ATOM     36  C   UNL     1       6.394  -5.900  -5.237  0.00  0.00    -0.097 C 
ATOM     37  C   UNL     1       7.970  -5.146  -6.881  0.00  0.00    -0.097 C 
ATOM     38  H   UNL     1       8.302  -5.274  -4.871  0.00  0.00    -0.083 HD
ENDBRANCH  34  35
ENDBRANCH  33  34
ENDBRANCH  21  33
ENDBRANCH   1  21
BRANCH   1  39
ATOM     39  C   UNL     1       4.253  -2.618  -2.312  0.00  0.00    +0.027 C 
ATOM     40  C   UNL     1       4.825  -2.132  -0.978  0.00  0.00    +0.006 C 
ENDBRANCH   1  39
TORSDOF 9
