REMARK  Name = ZINC23506297
REMARK  8 active torsions:
REMARK  status: ('A' for Active; 'I' for Inactive)
REMARK    1  A    between atoms: C_8  and  C_10
REMARK    2  A    between atoms: C_10  and  N_11
REMARK    3  A    between atoms: C_12  and  C_14
REMARK    4  A    between atoms: C_14  and  O_15
REMARK    5  A    between atoms: O_15  and  C_16
REMARK    6  A    between atoms: C_19  and  C_33
REMARK    7  A    between atoms: C_21  and  C_22
REMARK    8  A    between atoms: C_22  and  N_23
REMARK                            x       y       z     vdW  Elec       q    Type
REMARK                         _______ _______ _______ _____ _____    ______ ____
ROOT
ATOM      1  C   UNL     1      -9.434   4.223  -4.135  0.00  0.00    +0.126 A 
ATOM      2  C   UNL     1      -8.707   4.064  -5.308  0.00  0.00    +0.046 A 
ATOM      3  C   UNL     1      -9.328   4.206  -6.530  0.00  0.00    +0.015 A 
ATOM      4  C   UNL     1     -10.685   4.521  -6.589  0.00  0.00    +0.020 A 
ATOM      5  C   UNL     1     -11.412   4.686  -5.410  0.00  0.00    +0.020 A 
ATOM      6  C   UNL     1     -10.786   4.537  -4.190  0.00  0.00    +0.009 A 
ENDROOT
BRANCH   4   7
ATOM      7  C   UNL     1     -11.355   4.682  -7.902  0.00  0.00    +0.160 A 
ATOM      8  N   UNL     1     -12.647   4.977  -7.938  0.00  0.00    -0.236 NA
ATOM      9  C   UNL     1     -13.273   5.131  -9.092  0.00  0.00    +0.114 A 
ATOM     10  C   UNL     1     -12.564   4.970 -10.273  0.00  0.00    +0.039 A 
ATOM     11  C   UNL     1     -11.215   4.656 -10.199  0.00  0.00    +0.114 A 
ATOM     12  N   UNL     1     -10.648   4.521  -9.012  0.00  0.00    -0.236 NA
ENDBRANCH   4   7
BRANCH   1  13
ATOM     13  O   UNL     1      -8.821   4.077  -2.932  0.00  0.00    -0.482 OA
BRANCH  13  14
ATOM     14  C   UNL     1      -7.429   3.753  -2.949  0.00  0.00    +0.324 C 
BRANCH  14  16
ATOM     15  N   UNL     1      -5.632   3.330  -1.303  0.00  0.00    -0.308 N 
ATOM     16  C   UNL     1      -6.925   3.632  -1.534  0.00  0.00    +0.251 C 
ATOM     17  O   UNL     1      -7.683   3.805  -0.603  0.00  0.00    -0.272 OA
ATOM     18  H   UNL     1      -4.944   3.173  -2.147  0.00  0.00    +0.149 HD
BRANCH  15  19
ATOM     19  C   UNL     1      -5.142   3.212   0.072  0.00  0.00    +0.146 C 
BRANCH  19  27
ATOM     20  C   UNL     1       1.134   3.175   0.008  0.00  0.00    +0.001 A 
ATOM     21  C   UNL     1       1.171   1.787   0.001  0.00  0.00    +0.001 A 
ATOM     22  C   UNL     1      -0.013   1.076   0.008  0.00  0.00    +0.015 A 
ATOM     23  C   UNL     1      -1.213   1.754   0.017  0.00  0.00    +0.020 A 
ATOM     24  C   UNL     1      -1.278   3.164   0.032  0.00  0.00    -0.011 A 
ATOM     25  C   UNL     1      -0.043   3.855   0.023  0.00  0.00    +0.009 A 
ATOM     26  C   UNL     1      -2.627   3.709   0.049  0.00  0.00    +0.021 A 
ATOM     27  C   UNL     1      -3.674   2.871   0.055  0.00  0.00    +0.008 A 
ATOM     28  S   UNL     1      -2.916   1.258   0.038  0.00  0.00    -0.092 S 
ENDBRANCH  19  27
ENDBRANCH  15  19
ENDBRANCH  14  16
ENDBRANCH  13  14
ENDBRANCH   1  13
BRANCH   6  29
ATOM     29  C   UNL     1     -11.570   4.715  -2.916  0.00  0.00    +0.123 C 
BRANCH  29  30
ATOM     30  N   UNL     1     -11.318   6.054  -2.368  0.00  0.00    -0.294 NA
ATOM     31  C   UNL     1     -11.892   6.190  -1.020  0.00  0.00    +0.090 C 
ATOM     32  C   UNL     1     -11.297   7.436  -0.363  0.00  0.00    +0.051 C 
ATOM     33  C   UNL     1     -11.423   8.616  -1.291  0.00  0.00    -0.042 A 
ATOM     34  C   UNL     1     -11.275   9.891  -0.764  0.00  0.00    +0.004 A 
ATOM     35  C   UNL     1     -11.378  10.999  -1.581  0.00  0.00    +0.000 A 
ATOM     36  C   UNL     1     -11.631  10.838  -2.930  0.00  0.00    +0.000 A 
ATOM     37  C   UNL     1     -11.780   9.570  -3.455  0.00  0.00    +0.005 A 
ATOM     38  C   UNL     1     -11.678   8.455  -2.636  0.00  0.00    -0.030 A 
ATOM     39  C   UNL     1     -11.853   7.093  -3.254  0.00  0.00    +0.120 C 
ENDBRANCH  29  30
ENDBRANCH   6  29
TORSDOF 8
