REMARK  Name = ZINC39672290
REMARK  9 active torsions:
REMARK  status: ('A' for Active; 'I' for Inactive)
REMARK    1  A    between atoms: C_1  and  N_2
REMARK    2  A    between atoms: C_10  and  C_12
REMARK    3  A    between atoms: C_12  and  N_13
REMARK    4  A    between atoms: C_14  and  C_16
REMARK    5  A    between atoms: C_27  and  C_29
REMARK    6  A    between atoms: C_29  and  C_30
REMARK    7  A    between atoms: C_30  and  C_31
REMARK    8  A    between atoms: C_34  and  O_37
REMARK    9  A    between atoms: O_37  and  C_38
REMARK                            x       y       z     vdW  Elec       q    Type
REMARK                         _______ _______ _______ _____ _____    ______ ____
ROOT
ATOM      1  C   UNL     1       7.121  -2.818   2.419  0.00  0.00    +0.100 C 
ATOM      2  C   UNL     1       7.253  -1.318   2.768  0.00  0.00    +0.121 C 
ATOM      3  N   UNL     1       8.531  -1.218   3.510  0.00  0.00    -0.300 N 
ATOM      4  C   UNL     1       9.444  -2.145   2.800  0.00  0.00    +0.115 C 
ATOM      5  C   UNL     1       8.561  -3.356   2.441  0.00  0.00    -0.004 C 
ATOM      6  C   UNL     1       8.943  -3.898   1.066  0.00  0.00    -0.010 C 
ATOM      7  C   UNL     1      10.358  -4.481   1.127  0.00  0.00    -0.082 C 
ATOM      8  N   UNL     1      10.405  -5.553   2.128  0.00  0.00    +0.379 N 
ATOM      9  C   UNL     1      10.127  -5.006   3.462  0.00  0.00    -0.082 C 
ATOM     10  C   UNL     1       8.703  -4.446   3.499  0.00  0.00    -0.010 C 
ATOM     11  C   UNL     1       8.803  -0.455   4.588  0.00  0.00    +0.216 C 
ATOM     12  O   UNL     1       9.908  -0.482   5.087  0.00  0.00    -0.276 OA
ATOM     13  H   UNL     1       9.713  -6.252   1.903  0.00  0.00    -0.086 HD
ATOM     14  H   UNL     1      11.321  -5.976   2.124  0.00  0.00    -0.086 HD
ENDROOT
BRANCH   1  16
ATOM     15  N   UNL     1       5.814  -4.098   0.755  0.00  0.00    -0.311 N 
ATOM     16  C   UNL     1       6.518  -2.987   1.049  0.00  0.00    +0.218 C 
ATOM     17  O   UNL     1       6.665  -2.123   0.210  0.00  0.00    -0.275 OA
ATOM     18  H   UNL     1       5.696  -4.789   1.425  0.00  0.00    +0.149 HD
BRANCH  15  19
ATOM     19  C   UNL     1       5.227  -4.262  -0.578  0.00  0.00    +0.139 C 
BRANCH  19  29
ATOM     20  C   UNL     1       1.157  -9.348  -0.190  0.00  0.00    +0.129 C 
ATOM     21  N   UNL     1       2.470  -9.213  -0.825  0.00  0.00    -0.333 N 
ATOM     22  C   UNL     1       3.078 -10.349  -1.532  0.00  0.00    +0.105 C 
ATOM     23  C   UNL     1       4.552 -10.427  -1.113  0.00  0.00    +0.024 C 
ATOM     24  C   UNL     1       5.264  -9.154  -1.571  0.00  0.00    +0.038 C 
ATOM     25  C   UNL     1       4.508  -7.934  -1.115  0.00  0.00    -0.026 A 
ATOM     26  C   UNL     1       3.164  -7.999  -0.772  0.00  0.00    +0.033 A 
ATOM     27  C   UNL     1       2.493  -6.852  -0.364  0.00  0.00    +0.024 A 
ATOM     28  C   UNL     1       3.160  -5.646  -0.303  0.00  0.00    +0.007 A 
ATOM     29  C   UNL     1       4.498  -5.579  -0.647  0.00  0.00    -0.030 A 
ATOM     30  C   UNL     1       5.173  -6.722  -1.044  0.00  0.00    +0.010 A 
ENDBRANCH  19  29
ENDBRANCH  15  19
ENDBRANCH   1  16
BRANCH  11  31
ATOM     31  C   UNL     1       7.733   0.431   5.173  0.00  0.00    +0.100 C 
BRANCH  31  32
ATOM     32  C   UNL     1       8.298   1.183   6.380  0.00  0.00    +0.044 C 
BRANCH  32  33
ATOM     33  C   UNL     1       7.228   2.069   6.965  0.00  0.00    -0.047 A 
ATOM     34  C   UNL     1       7.081   3.366   6.510  0.00  0.00    +0.007 A 
ATOM     35  C   UNL     1       6.102   4.180   7.045  0.00  0.00    +0.046 A 
ATOM     36  C   UNL     1       5.265   3.695   8.040  0.00  0.00    +0.120 A 
ATOM     37  C   UNL     1       5.414   2.393   8.494  0.00  0.00    +0.046 A 
ATOM     38  C   UNL     1       6.391   1.581   7.952  0.00  0.00    +0.007 A 
BRANCH  36  39
ATOM     39  O   UNL     1       4.301   4.494   8.568  0.00  0.00    -0.495 OA
ATOM     40  C   UNL     1       3.476   3.928   9.588  0.00  0.00    +0.277 C 
ENDBRANCH  36  39
ENDBRANCH  32  33
ENDBRANCH  31  32
ENDBRANCH  11  31
TORSDOF 7
