REMARK  Name = ZINC38687147
REMARK  10 active torsions:
REMARK  status: ('A' for Active; 'I' for Inactive)
REMARK    1  A    between atoms: C_1  and  C_2
REMARK    2  A    between atoms: C_2  and  C_3
REMARK    3  A    between atoms: C_2  and  C_4
REMARK    4  A    between atoms: C_2  and  C_5
REMARK    5  A    between atoms: C_8  and  C_11
REMARK    6  A    between atoms: C_16  and  O_25
REMARK    7  A    between atoms: C_20  and  N_24
REMARK    8  A    between atoms: C_21  and  C_22
REMARK    9  A    between atoms: O_25  and  C_26
REMARK   10  A    between atoms: C_26  and  C_28
REMARK                            x       y       z     vdW  Elec       q    Type
REMARK                         _______ _______ _______ _____ _____    ______ ____
ROOT
ATOM      1  C   UNL     1       2.758  -1.860  -4.713  0.00  0.00    +0.098 C 
ATOM      2  C   UNL     1       3.191  -0.678  -5.540  0.00  0.00    +0.008 A 
ATOM      3  C   UNL     1       2.274  -0.051  -6.365  0.00  0.00    +0.012 A 
ATOM      4  C   UNL     1       2.653   1.034  -7.130  0.00  0.00    +0.047 A 
ATOM      5  C   UNL     1       3.959   1.500  -7.073  0.00  0.00    +0.135 A 
ATOM      6  C   UNL     1       4.880   0.875  -6.248  0.00  0.00    +0.093 A 
ATOM      7  C   UNL     1       4.497  -0.216  -5.479  0.00  0.00    +0.138 A 
ATOM      8  O   UNL     1       5.410  -0.817  -4.678  0.00  0.00    -0.441 OA
ATOM      9  C   UNL     1       5.195  -2.067  -4.236  0.00  0.00    +0.199 C 
ATOM     10  C   UNL     1       3.961  -2.618  -4.226  0.00  0.00    +0.098 C 
ENDROOT
BRANCH   1  14
ATOM     11  C   UNL     1       0.496  -0.490  -1.359  0.00  0.00    -0.042 A 
ATOM     12  C   UNL     1      -0.082  -1.343  -2.281  0.00  0.00    +0.004 A 
ATOM     13  C   UNL     1       0.650  -1.786  -3.366  0.00  0.00    +0.005 A 
ATOM     14  C   UNL     1       1.960  -1.376  -3.530  0.00  0.00    -0.035 A 
ATOM     15  C   UNL     1       2.538  -0.523  -2.609  0.00  0.00    +0.005 A 
ATOM     16  C   UNL     1       1.804  -0.076  -1.526  0.00  0.00    +0.004 A 
BRANCH  11  18
ATOM     17  C   UNL     1      -0.399   1.519  -0.214  0.00  0.00    +0.015 C 
ATOM     18  C   UNL     1      -0.302  -0.007  -0.175  0.00  0.00    -0.013 C 
ATOM     19  C   UNL     1       0.391  -0.441   1.118  0.00  0.00    +0.015 C 
ATOM     20  C   UNL     1      -1.707  -0.610  -0.228  0.00  0.00    +0.015 C 
ENDBRANCH  11  18
ENDBRANCH   1  14
BRANCH   9  21
ATOM     21  N   UNL     1       6.258  -2.806  -3.780  0.00  0.00    -0.328 N 
ATOM     22  H   UNL     1       7.150  -2.423  -3.780  0.00  0.00    +0.145 HD
ATOM     23  H   UNL     1       6.119  -3.710  -3.458  0.00  0.00    +0.145 HD
ENDBRANCH   9  21
BRANCH  10  24
ATOM     24  C   UNL     1       3.798  -3.955  -3.740  0.00  0.00    +0.101 C 
ATOM     25  N   UNL     1       3.669  -5.016  -3.355  0.00  0.00    -0.191 NA
ENDBRANCH  10  24
BRANCH   5  26
ATOM     26  O   UNL     1       4.334   2.568  -7.826  0.00  0.00    -0.423 OA
BRANCH  26  27
ATOM     27  C   UNL     1       5.177   2.353  -8.849  0.00  0.00    +0.357 C 
ATOM     28  O   UNL     1       5.497   1.225  -9.141  0.00  0.00    -0.246 OA
BRANCH  27  29
ATOM     29  C   UNL     1       5.724   3.519  -9.632  0.00  0.00    +0.319 C 
ATOM     30  C   UNL     1       6.625   4.371  -8.729  0.00  0.00    +0.285 C 
ATOM     31  O   UNL     1       7.138   5.459  -9.506  0.00  0.00    -0.484 OA
ATOM     32  C   UNL     1       7.629   5.152 -10.738  0.00  0.00    +0.162 A 
ATOM     33  C   UNL     1       8.454   6.059 -11.386  0.00  0.00    +0.049 A 
ATOM     34  C   UNL     1       8.958   5.763 -12.639  0.00  0.00    +0.004 A 
ATOM     35  C   UNL     1       8.640   4.564 -13.249  0.00  0.00    +0.004 A 
ATOM     36  C   UNL     1       7.819   3.656 -12.607  0.00  0.00    +0.049 A 
ATOM     37  C   UNL     1       7.312   3.946 -11.349  0.00  0.00    +0.163 A 
ATOM     38  O   UNL     1       6.511   3.038 -10.727  0.00  0.00    -0.470 OA
ENDBRANCH  27  29
ENDBRANCH  26  27
ENDBRANCH   5  26
TORSDOF 7
