REMARK  Name = ZINC12455922
REMARK  11 active torsions:
REMARK  status: ('A' for Active; 'I' for Inactive)
REMARK    1  A    between atoms: C_1  and  C_2
REMARK    2  A    between atoms: C_3  and  C_7
REMARK    3  A    between atoms: C_7  and  N_62
REMARK    4  A    between atoms: C_8  and  N_62
REMARK    5  A    between atoms: C_9  and  C_10
REMARK    6  A    between atoms: C_9  and  N_62
REMARK    7  A    between atoms: C_12  and  C_29
REMARK    8  A    between atoms: C_15  and  O_16
REMARK    9  A    between atoms: O_16  and  C_17
REMARK   10  A    between atoms: C_17  and  C_18
REMARK   11  A    between atoms: N_20  and  C_21
REMARK                            x       y       z     vdW  Elec       q    Type
REMARK                         _______ _______ _______ _____ _____    ______ ____
ROOT
ATOM      1  C   UNL     1      -0.017   1.384   0.010  0.00  0.00    -0.022 A 
ATOM      2  C   UNL     1       1.167   2.091   0.002  0.00  0.00    +0.013 A 
ATOM      3  C   UNL     1       2.384   1.411  -0.013  0.00  0.00    -0.017 A 
ATOM      4  C   UNL     1       2.399   0.017  -0.021  0.00  0.00    +0.012 A 
ATOM      5  C   UNL     1       1.212  -0.685  -0.014  0.00  0.00    +0.046 A 
ATOM      6  C   UNL     1       0.002  -0.004   0.002  0.00  0.00    +0.123 A 
ENDROOT
BRANCH   3   7
ATOM      7  C   UNL     1       3.659   2.168  -0.021  0.00  0.00    -0.018 A 
ATOM      8  C   UNL     1       3.644   3.562  -0.019  0.00  0.00    +0.011 A 
ATOM      9  C   UNL     1       4.833   4.263  -0.022  0.00  0.00    +0.039 A 
ATOM     10  C   UNL     1       6.040   3.583  -0.038  0.00  0.00    +0.123 A 
ATOM     11  C   UNL     1       6.059   2.198  -0.045  0.00  0.00    +0.039 A 
ATOM     12  C   UNL     1       4.876   1.489  -0.037  0.00  0.00    +0.011 A 
ATOM     13  F   UNL     1       7.201   4.273  -0.046  0.00  0.00    -0.205 F 
ENDBRANCH   3   7
BRANCH   1  14
ATOM     14  C   UNL     1      -1.332   2.119   0.020  0.00  0.00    -0.039 C 
BRANCH  14  16
ATOM     15  C   UNL     1      -2.223   0.786   1.835  0.00  0.00    -0.095 C 
ATOM     16  N   UNL     1      -1.850   2.150   1.404  0.00  0.00    +0.384 N 
ATOM     17  H   UNL     1      -1.116   2.508   2.027  0.00  0.00    -0.081 HD
BRANCH  16  18
ATOM     18  C   UNL     1      -3.025   3.044   1.484  0.00  0.00    -0.017 C 
BRANCH  18  21
ATOM     19  C   UNL     1      -1.882   5.285   3.381  0.00  0.00    +0.071 C 
ATOM     20  C   UNL     1      -2.885   4.233   3.781  0.00  0.00    +0.103 A 
ATOM     21  C   UNL     1      -3.396   3.231   2.932  0.00  0.00    +0.091 A 
ATOM     22  N   UNL     1      -4.241   2.497   3.592  0.00  0.00    -0.056 NA
ATOM     23  O   UNL     1      -4.300   3.003   4.916  0.00  0.00    -0.242 OA
ATOM     24  N   UNL     1      -3.413   4.110   4.962  0.00  0.00    -0.054 NA
ENDBRANCH  18  21
ENDBRANCH  16  18
ENDBRANCH  14  16
ENDBRANCH   1  14
BRANCH   6  25
ATOM     25  O   UNL     1      -1.166  -0.698   0.009  0.00  0.00    -0.483 OA
BRANCH  25  26
ATOM     26  C   UNL     1      -1.074  -2.124   0.001  0.00  0.00    +0.324 C 
BRANCH  26  27
ATOM     27  C   UNL     1      -2.459  -2.717   0.011  0.00  0.00    +0.251 C 
ATOM     28  O   UNL     1      -3.430  -1.991   0.024  0.00  0.00    -0.272 OA
ATOM     29  N   UNL     1      -2.619  -4.056   0.005  0.00  0.00    -0.308 N 
ATOM     30  H   UNL     1      -1.842  -4.637  -0.005  0.00  0.00    +0.149 HD
BRANCH  29  31
ATOM     31  C   UNL     1      -3.966  -4.632   0.015  0.00  0.00    +0.095 C 
ATOM     32  C   UNL     1      -4.466  -4.759   1.464  0.00  0.00    +0.046 C 
ATOM     33  C   UNL     1      -5.731  -5.649   1.509  0.00  0.00    +0.168 C 
ATOM     34  S   UNL     1      -5.498  -6.756   0.059  0.00  0.00    -0.029 S 
ATOM     35  O   UNL     1      -6.545  -6.524  -0.873  0.00  0.00    -0.174 OA
ATOM     36  O   UNL     1      -5.253  -8.078   0.521  0.00  0.00    -0.174 OA
ATOM     37  C   UNL     1      -3.932  -6.056  -0.612  0.00  0.00    +0.188 C 
ENDBRANCH  29  31
ENDBRANCH  26  27
ENDBRANCH  25  26
ENDBRANCH   6  25
TORSDOF 9
