REMARK  Name = ZINC41355125
REMARK  6 active torsions:
REMARK  status: ('A' for Active; 'I' for Inactive)
REMARK    1  A    between atoms: C_1  and  C_2
REMARK    2  A    between atoms: C_6  and  C_8
REMARK    3  A    between atoms: C_8  and  O_10
REMARK    4  A    between atoms: O_10  and  C_11
REMARK    5  A    between atoms: C_16  and  C_17
REMARK    6  A    between atoms: C_20  and  C_21
REMARK                            x       y       z     vdW  Elec       q    Type
REMARK                         _______ _______ _______ _____ _____    ______ ____
ROOT
ATOM      1  C   UNL     1       0.216  -4.917   3.602  0.00  0.00    +0.138 A 
ATOM      2  C   UNL     1       0.134  -4.281   4.838  0.00  0.00    +0.047 A 
ATOM      3  C   UNL     1       0.095  -5.018   5.987  0.00  0.00    +0.019 A 
ATOM      4  C   UNL     1       0.136  -6.411   5.922  0.00  0.00    +0.068 A 
ATOM      5  C   UNL     1       0.218  -7.064   4.682  0.00  0.00    +0.146 A 
ATOM      6  C   UNL     1       0.253  -6.300   3.522  0.00  0.00    +0.035 A 
ATOM      7  C   UNL     1       0.335  -6.975   2.177  0.00  0.00    +0.051 C 
ATOM      8  O   UNL     1       0.244  -8.401   4.871  0.00  0.00    -0.451 OA
ATOM      9  C   UNL     1       0.184  -8.725   6.184  0.00  0.00    +0.176 C 
ATOM     10  C   UNL     1       0.191  -9.979   6.701  0.00  0.00    +0.058 C 
ATOM     11  C   UNL     1       0.111  -7.470   6.949  0.00  0.00    +0.231 C 
ATOM     12  O   UNL     1       0.045  -7.335   8.158  0.00  0.00    -0.283 OA
ENDROOT
BRANCH  10  13
ATOM     13  C   UNL     1       0.388 -11.137   5.818  0.00  0.00    -0.020 A 
ATOM     14  C   UNL     1       0.435 -10.963   4.430  0.00  0.00    +0.008 A 
ATOM     15  C   UNL     1       0.621 -12.054   3.608  0.00  0.00    +0.002 A 
ATOM     16  C   UNL     1       0.760 -13.320   4.151  0.00  0.00    +0.020 A 
ATOM     17  C   UNL     1       0.714 -13.501   5.524  0.00  0.00    +0.042 A 
ATOM     18  C   UNL     1       0.535 -12.418   6.361  0.00  0.00    +0.028 A 
ATOM     19 CL   UNL     1       0.889 -15.093   6.193  0.00  0.00    -0.084 Cl
ENDBRANCH  10  13
BRANCH   1  20
ATOM     20  O   UNL     1       0.255  -4.176   2.465  0.00  0.00    -0.422 OA
BRANCH  20  21
ATOM     21  C   UNL     1       1.450  -3.997   1.867  0.00  0.00    +0.344 C 
ATOM     22  O   UNL     1       2.462  -4.408   2.398  0.00  0.00    -0.245 OA
BRANCH  21  28
ATOM     23  C   UNL     1       4.163  -2.255  -1.940  0.00  0.00    +0.044 C 
ATOM     24  C   UNL     1       2.830  -2.459  -1.268  0.00  0.00    -0.050 A 
ATOM     25  C   UNL     1       1.674  -1.993  -1.870  0.00  0.00    +0.003 A 
ATOM     26  C   UNL     1       0.446  -2.176  -1.260  0.00  0.00    +0.001 A 
ATOM     27  C   UNL     1       0.366  -2.826  -0.045  0.00  0.00    +0.015 A 
ATOM     28  C   UNL     1       1.528  -3.300   0.567  0.00  0.00    +0.060 A 
ATOM     29  C   UNL     1       2.763  -3.116  -0.057  0.00  0.00    +0.018 A 
ENDBRANCH  21  28
ENDBRANCH  20  21
ENDBRANCH   1  20
TORSDOF 4
