REMARK  Name = ZINC11910902
REMARK  11 active torsions:
REMARK  status: ('A' for Active; 'I' for Inactive)
REMARK    1  A    between atoms: C_1  and  C_2
REMARK    2  A    between atoms: C_4  and  C_32
REMARK    3  A    between atoms: C_6  and  C_8
REMARK    4  A    between atoms: N_10  and  C_11
REMARK    5  A    between atoms: C_11  and  C_13
REMARK    6  A    between atoms: C_11  and  C_17
REMARK    7  A    between atoms: C_13  and  C_14
REMARK    8  A    between atoms: C_14  and  C_15
REMARK    9  A    between atoms: C_14  and  C_16
REMARK   10  A    between atoms: C_26  and  C_27
REMARK   11  A    between atoms: C_26  and  N_65
REMARK                            x       y       z     vdW  Elec       q    Type
REMARK                         _______ _______ _______ _____ _____    ______ ____
ROOT
ATOM      1  C   UNL     1      -0.064   0.971   2.503  0.00  0.00    +0.142 C 
ENDROOT
BRANCH   1   2
ATOM      2  C   UNL     1      -0.688   1.551   3.746  0.00  0.00    +0.154 A 
ATOM      3  N   UNL     1      -1.866   1.259   4.232  0.00  0.00    -0.132 NA
ATOM      4  N   UNL     1      -2.071   1.933   5.310  0.00  0.00    -0.134 NA
ATOM      5  C   UNL     1      -1.039   2.685   5.555  0.00  0.00    +0.132 A 
ATOM      6  N   UNL     1      -0.139   2.475   4.563  0.00  0.00    -0.315 N 
ATOM      7  C   UNL     1       1.155   3.142   4.419  0.00  0.00    +0.106 C 
ATOM      8  C   UNL     1       1.665   3.553   5.804  0.00  0.00    -0.056 C 
ATOM      9  C   UNL     1      -0.288   4.950   6.200  0.00  0.00    -0.071 C 
ATOM     10  C   UNL     1      -0.833   3.617   6.722  0.00  0.00    +0.058 C 
ATOM     11  N   UNL     1       1.190   4.908   6.168  0.00  0.00    +0.384 N 
ATOM     12  H   UNL     1       1.547   5.144   7.102  0.00  0.00    -0.081 HD
BRANCH  11  13
ATOM     13  C   UNL     1       1.699   5.896   5.199  0.00  0.00    -0.042 C 
BRANCH  13  14
ATOM     14  C   UNL     1       1.415   7.278   5.729  0.00  0.00    -0.057 A 
ATOM     15  C   UNL     1       2.325   7.915   6.552  0.00  0.00    +0.009 A 
ATOM     16  C   UNL     1       2.038   9.157   7.011  0.00  0.00    +0.045 A 
ATOM     17  S   UNL     1       0.441   9.464   6.276  0.00  0.00    -0.105 S 
ATOM     18  C   UNL     1       0.265   7.917   5.401  0.00  0.00    +0.047 A 
ENDBRANCH  13  14
ENDBRANCH  11  13
ENDBRANCH   1   2
BRANCH   1  21
ATOM     19  C   UNL     1       0.601  -1.268   1.809  0.00  0.00    +0.245 C 
ATOM     20  O   UNL     1       1.527  -0.771   1.197  0.00  0.00    -0.270 OA
ATOM     21  N   UNL     1      -0.252  -0.481   2.495  0.00  0.00    -0.301 N 
ATOM     22  H   UNL     1      -0.991  -0.878   2.983  0.00  0.00    +0.150 HD
BRANCH  19  28
ATOM     23  C   UNL     1      -1.968  -5.297   3.245  0.00  0.00    +0.044 C 
ATOM     24  C   UNL     1      -0.822  -4.676   2.489  0.00  0.00    -0.049 A 
ATOM     25  C   UNL     1       0.055  -5.480   1.784  0.00  0.00    +0.006 A 
ATOM     26  C   UNL     1       1.110  -4.918   1.087  0.00  0.00    -0.049 A 
ATOM     27  C   UNL     1       1.293  -3.550   1.090  0.00  0.00    +0.016 A 
ATOM     28  C   UNL     1       0.411  -2.734   1.800  0.00  0.00    +0.037 A 
ATOM     29  C   UNL     1      -0.647  -3.308   2.506  0.00  0.00    +0.016 A 
ATOM     30  C   UNL     1       2.061  -5.801   0.321  0.00  0.00    +0.044 C 
ENDBRANCH  19  28
ENDBRANCH   1  21
BRANCH   1  31
ATOM     31  C   UNL     1      -0.729   1.579   1.267  0.00  0.00    +0.033 C 
BRANCH  31  32
ATOM     32  C   UNL     1      -0.013   1.086   0.008  0.00  0.00    -0.015 C 
ATOM     33  C   UNL     1       1.423   1.615  -0.003  0.00  0.00    +0.007 C 
ATOM     34  C   UNL     1      -0.753   1.593  -1.232  0.00  0.00    +0.007 C 
ENDBRANCH  31  32
ENDBRANCH   1  31
TORSDOF 7
