REMARK  Name = ZINC29898379
REMARK  7 active torsions:
REMARK  status: ('A' for Active; 'I' for Inactive)
REMARK    1  A    between atoms: C_3  and  C_6
REMARK    2  A    between atoms: C_6  and  C_8
REMARK    3  A    between atoms: C_6  and  N_29
REMARK    4  A    between atoms: C_8  and  N_9
REMARK    5  A    between atoms: C_10  and  C_12
REMARK    6  A    between atoms: C_12  and  C_13
REMARK    7  A    between atoms: C_20  and  C_25
REMARK                            x       y       z     vdW  Elec       q    Type
REMARK                         _______ _______ _______ _____ _____    ______ ____
ROOT
ATOM      1  N   UNL     1      -0.712   1.575  -1.179  0.00  0.00    -0.316 N 
ATOM      2  C   UNL     1      -0.240   1.285  -2.408  0.00  0.00    +0.215 C 
ATOM      3  O   UNL     1       0.785   0.648  -2.529  0.00  0.00    -0.276 OA
ATOM      4  H   UNL     1      -1.641   2.152  -1.069  0.00  0.00    +0.149 HD
ENDROOT
BRANCH   1   5
ATOM      5  C   UNL     1       0.014   1.121   0.010  0.00  0.00    +0.096 C 
BRANCH   5   6
ATOM      6  C   UNL     1      -0.729   1.579   1.267  0.00  0.00    +0.016 C 
BRANCH   6   7
ATOM      7  N   UNL     1      -0.921   3.035   1.218  0.00  0.00    +0.387 N 
ATOM      8  C   UNL     1       0.362   3.730   1.059  0.00  0.00    -0.078 C 
ATOM      9  C   UNL     1       0.112   5.228   0.867  0.00  0.00    -0.019 C 
ATOM     10  C   UNL     1      -0.639   5.775   2.084  0.00  0.00    -0.004 C 
ATOM     11  C   UNL     1      -1.950   5.002   2.255  0.00  0.00    -0.019 C 
ATOM     12  C   UNL     1      -1.639   3.511   2.407  0.00  0.00    -0.078 C 
ATOM     13  H   UNL     1      -1.539   3.267   0.338  0.00  0.00    -0.081 HD
ENDBRANCH   6   7
BRANCH   6  16
ATOM     14  C   UNL     1       0.804   0.256   4.346  0.00  0.00    +0.041 A 
ATOM     15  C   UNL     1      -0.215   0.246   3.367  0.00  0.00    +0.043 A 
ATOM     16  C   UNL     1       0.079   1.220   2.487  0.00  0.00    +0.093 A 
ATOM     17  O   UNL     1       1.212   1.822   2.884  0.00  0.00    -0.469 OA
ATOM     18  C   UNL     1       1.657   1.241   4.011  0.00  0.00    +0.195 A 
ENDBRANCH   6  16
ENDBRANCH   5   6
ENDBRANCH   1   5
BRANCH   2  19
ATOM     19  C   UNL     1      -0.986   1.752  -3.631  0.00  0.00    +0.119 C 
BRANCH  19  20
ATOM     20  C   UNL     1      -0.244   1.293  -4.887  0.00  0.00    +0.146 C 
ATOM     21  C   UNL     1      -0.918   1.861  -6.109  0.00  0.00    +0.231 C 
ATOM     22  O   UNL     1      -0.452   2.861  -6.613  0.00  0.00    -0.274 OA
ATOM     23  N   UNL     1      -1.998   1.319  -6.662  0.00  0.00    -0.284 N 
ATOM     24  C   UNL     1      -2.602   0.118  -6.302  0.00  0.00    +0.047 A 
ATOM     25  C   UNL     1      -3.900  -0.144  -6.730  0.00  0.00    +0.036 A 
ATOM     26  C   UNL     1      -4.525  -1.323  -6.378  0.00  0.00    +0.057 A 
ATOM     27  C   UNL     1      -3.870  -2.257  -5.596  0.00  0.00    +0.013 A 
ATOM     28  C   UNL     1      -2.579  -2.012  -5.166  0.00  0.00    +0.017 A 
ATOM     29  C   UNL     1      -1.946  -0.832  -5.521  0.00  0.00    +0.030 A 
ATOM     30  S   UNL     1      -0.288  -0.522  -4.996  0.00  0.00    -0.110 S 
ATOM     31  H   UNL     1      -2.506   1.831  -7.493  0.00  0.00    +0.155 HD
BRANCH  26  32
ATOM     32  C   UNL     1      -5.930  -1.595  -6.849  0.00  0.00    +0.417 C 
ATOM     33  F   UNL     1      -6.349  -2.842  -6.372  0.00  0.00    -0.166 F 
ATOM     34  F   UNL     1      -6.785  -0.599  -6.365  0.00  0.00    -0.166 F 
ATOM     35  F   UNL     1      -5.961  -1.598  -8.248  0.00  0.00    -0.166 F 
ENDBRANCH  26  32
ENDBRANCH  19  20
ENDBRANCH   2  19
TORSDOF 7
