REMARK  Name = ZINC55104244
REMARK  3 active torsions:
REMARK  status: ('A' for Active; 'I' for Inactive)
REMARK    1  A    between atoms: C_7  and  C_11
REMARK    2  A    between atoms: C_7  and  O_27
REMARK    3  A    between atoms: C_17  and  C_18
REMARK                            x       y       z     vdW  Elec       q    Type
REMARK                         _______ _______ _______ _____ _____    ______ ____
ROOT
ATOM      1  C   UNL     1       1.012  -2.793  -1.410  0.00  0.00    +0.105 C 
ATOM      2  C   UNL     1       1.509  -4.228  -1.597  0.00  0.00    +0.015 C 
ATOM      3  C   UNL     1       0.725  -4.878  -2.741  0.00  0.00    +0.006 C 
ATOM      4  C   UNL     1      -0.715  -5.114  -2.281  0.00  0.00    +0.039 C 
ATOM      5  C   UNL     1      -1.286  -3.849  -1.708  0.00  0.00    -0.004 C 
ATOM      6  C   UNL     1      -2.631  -3.740  -1.586  0.00  0.00    +0.015 C 
ATOM      7  C   UNL     1      -0.486  -2.781  -1.292  0.00  0.00    +0.166 C 
ATOM      8  O   UNL     1      -1.025  -1.802  -0.817  0.00  0.00    -0.292 OA
ENDROOT
BRANCH   1  15
ATOM      9  C   UNL     1       5.423  -2.057  -0.820  0.00  0.00    +0.000 A 
ATOM     10  C   UNL     1       5.804  -2.849   0.248  0.00  0.00    +0.002 A 
ATOM     11  C   UNL     1       4.854  -3.372   1.102  0.00  0.00    +0.024 A 
ATOM     12  C   UNL     1       3.503  -3.104   0.893  0.00  0.00    +0.040 A 
ATOM     13  C   UNL     1       3.134  -2.307  -0.183  0.00  0.00    +0.015 A 
ATOM     14  C   UNL     1       4.083  -1.787  -1.034  0.00  0.00    +0.009 A 
ATOM     15  C   UNL     1       1.626  -2.204  -0.139  0.00  0.00    +0.178 C 
ATOM     16  C   UNL     1       1.237  -3.028   1.070  0.00  0.00    +0.254 C 
ATOM     17  O   UNL     1       0.111  -3.219   1.479  0.00  0.00    -0.272 OA
ATOM     18  N   UNL     1       2.372  -3.509   1.604  0.00  0.00    -0.282 N 
ATOM     19  H   UNL     1       2.403  -4.072   2.393  0.00  0.00    +0.155 HD
BRANCH  15  20
ATOM     20  O   UNL     1       1.222  -0.844   0.031  0.00  0.00    -0.374 OA
ATOM     21  H   UNL     1       1.559  -0.431   0.838  0.00  0.00    +0.211 HD
ENDBRANCH  15  20
ENDBRANCH   1  15
BRANCH   6  22
ATOM     22  C   UNL     1      -3.490  -4.898  -1.869  0.00  0.00    -0.025 A 
ATOM     23  C   UNL     1      -3.098  -6.181  -1.468  0.00  0.00    +0.009 A 
ATOM     24  C   UNL     1      -3.909  -7.261  -1.736  0.00  0.00    +0.016 A 
ATOM     25  C   UNL     1      -5.111  -7.082  -2.402  0.00  0.00    +0.018 A 
ATOM     26  C   UNL     1      -5.506  -5.816  -2.802  0.00  0.00    +0.016 A 
ATOM     27  C   UNL     1      -4.708  -4.724  -2.535  0.00  0.00    +0.009 A 
ATOM     28 BR   UNL     1      -6.216  -8.572  -2.767  0.00  0.00    -0.050 Br
ENDBRANCH   6  22
TORSDOF 3
