REMARK  Name = ZINC10039403
REMARK  15 active torsions:
REMARK  status: ('A' for Active; 'I' for Inactive)
REMARK    1  A    between atoms: C_1  and  C_2
REMARK    2  A    between atoms: C_2  and  O_3
REMARK    3  A    between atoms: O_3  and  C_4
REMARK    4  A    between atoms: C_6  and  C_16
REMARK    5  A    between atoms: C_8  and  O_13
REMARK    6  A    between atoms: C_9  and  O_10
REMARK    7  A    between atoms: O_10  and  C_11
REMARK    8  A    between atoms: C_11  and  C_12
REMARK    9  A    between atoms: O_13  and  C_14
REMARK   10  A    between atoms: C_14  and  C_15
REMARK   11  A    between atoms: N_18  and  C_19
REMARK   12  A    between atoms: C_19  and  N_21
REMARK   13  A    between atoms: N_21  and  C_22
REMARK   14  A    between atoms: C_23  and  C_33
REMARK   15  A    between atoms: C_28  and  C_32
REMARK                            x       y       z     vdW  Elec       q    Type
REMARK                         _______ _______ _______ _____ _____    ______ ____
ROOT
ATOM      1  C   UNL     1       0.002  -0.004   0.002  0.00  0.00    +0.250 C 
ATOM      2  O   UNL     1       1.063  -0.598  -0.011  0.00  0.00    -0.270 OA
ATOM      3  N   UNL     1      -1.156  -0.694   0.009  0.00  0.00    -0.264 N 
ATOM      4  H   UNL     1      -2.002  -0.220   0.020  0.00  0.00    +0.157 HD
ENDROOT
BRANCH   1   7
ATOM      5  C   UNL     1       1.160   3.569   0.010  0.00  0.00    +0.166 A 
ATOM      6  C   UNL     1       1.182   2.187   0.003  0.00  0.00    +0.062 A 
ATOM      7  C   UNL     1      -0.018   1.471   0.010  0.00  0.00    +0.044 A 
ATOM      8  C   UNL     1      -1.237   2.155   0.020  0.00  0.00    +0.062 A 
ATOM      9  C   UNL     1      -1.253   3.537   0.032  0.00  0.00    +0.166 A 
ATOM     10  C   UNL     1      -0.056   4.248   0.024  0.00  0.00    +0.204 A 
BRANCH   5  11
ATOM     11  O   UNL     1       2.328   4.267   0.002  0.00  0.00    -0.488 OA
BRANCH  11  13
ATOM     12  C   UNL     1       4.737   4.457  -0.021  0.00  0.00    +0.048 C 
ATOM     13  C   UNL     1       3.538   3.507  -0.014  0.00  0.00    +0.226 C 
ENDBRANCH  11  13
ENDBRANCH   5  11
BRANCH  10  14
ATOM     14  O   UNL     1      -0.074   5.607   0.032  0.00  0.00    -0.485 OA
BRANCH  14  15
ATOM     15  C   UNL     1      -0.095   6.262  -1.238  0.00  0.00    +0.226 C 
ATOM     16  C   UNL     1      -0.113   7.778  -1.029  0.00  0.00    +0.048 C 
ENDBRANCH  14  15
ENDBRANCH  10  14
BRANCH   9  17
ATOM     17  O   UNL     1      -2.438   4.202   0.046  0.00  0.00    -0.488 OA
BRANCH  17  18
ATOM     18  C   UNL     1      -3.627   3.410   0.054  0.00  0.00    +0.226 C 
ATOM     19  C   UNL     1      -4.852   4.327   0.070  0.00  0.00    +0.048 C 
ENDBRANCH  17  18
ENDBRANCH   9  17
ENDBRANCH   1   7
BRANCH   3  20
ATOM     20  C   UNL     1      -1.137  -2.041   0.002  0.00  0.00    +0.141 C 
ATOM     21  S   UNL     1       0.356  -2.877  -0.017  0.00  0.00    -0.018 S 
BRANCH  20  22
ATOM     22  N   UNL     1      -2.295  -2.731   0.009  0.00  0.00    -0.291 N 
ATOM     23  H   UNL     1      -3.142  -2.258   0.020  0.00  0.00    +0.154 HD
BRANCH  22  24
ATOM     24  C   UNL     1      -2.277  -4.117   0.002  0.00  0.00    +0.084 A 
ATOM     25  C   UNL     1      -3.352  -4.994   0.007  0.00  0.00    +0.068 A 
ATOM     26  C   UNL     1      -3.058  -6.417  -0.004  0.00  0.00    -0.023 A 
ATOM     27  C   UNL     1      -1.745  -6.733  -0.018  0.00  0.00    -0.004 A 
ATOM     28  S   UNL     1      -0.905  -5.175  -0.025  0.00  0.00    -0.077 S 
ATOM     29  C   UNL     1      -1.147  -8.105  -0.032  0.00  0.00    +0.046 C 
ATOM     30  C   UNL     1      -2.240  -9.114   0.351  0.00  0.00    -0.009 C 
ATOM     31  C   UNL     1      -3.496  -8.815  -0.471  0.00  0.00    +0.008 C 
ATOM     32  C   UNL     1      -4.127  -7.503  -0.000  0.00  0.00    +0.037 C 
ATOM     33  C   UNL     1      -1.754 -10.534   0.055  0.00  0.00    +0.008 C 
BRANCH  25  34
ATOM     34  C   UNL     1      -4.734  -4.503   0.023  0.00  0.00    +0.244 C 
ATOM     35  O   UNL     1      -5.317  -4.293  -1.024  0.00  0.00    -0.270 OA
ATOM     36  N   UNL     1      -5.357  -4.284   1.198  0.00  0.00    -0.325 N 
ATOM     37  H   UNL     1      -4.892  -4.452   2.033  0.00  0.00    +0.145 HD
ATOM     38  H   UNL     1      -6.271  -3.960   1.208  0.00  0.00    +0.145 HD
ENDBRANCH  25  34
ENDBRANCH  22  24
ENDBRANCH  20  22
ENDBRANCH   3  20
TORSDOF 11
