REMARK  Name = ZINC48687505
REMARK  5 active torsions:
REMARK  status: ('A' for Active; 'I' for Inactive)
REMARK    1  A    between atoms: C_1  and  C_2
REMARK    2  A    between atoms: C_2  and  C_3
REMARK    3  A    between atoms: C_2  and  C_4
REMARK    4  A    between atoms: C_6  and  C_10
REMARK    5  A    between atoms: C_16  and  C_18
REMARK                            x       y       z     vdW  Elec       q    Type
REMARK                         _______ _______ _______ _____ _____    ______ ____
ROOT
ATOM      1  C   UNL     1       1.506  -2.702   4.020  0.00  0.00    +0.267 C 
ATOM      2  O   UNL     1       0.727  -3.635   4.036  0.00  0.00    -0.268 OA
ATOM      3  N   UNL     1       2.469  -2.613   4.959  0.00  0.00    -0.288 N 
ATOM      4  C   UNL     1       3.472  -1.537   5.061  0.00  0.00    +0.109 C 
ATOM      5  C   UNL     1       4.656  -2.170   5.833  0.00  0.00    +0.021 C 
ATOM      6  C   UNL     1       3.914  -3.075   6.853  0.00  0.00    +0.030 C 
ATOM      7  C   UNL     1       2.690  -3.569   6.053  0.00  0.00    +0.123 C 
ENDROOT
BRANCH   1  10
ATOM      8  C   UNL     1       0.731  -0.503   1.223  0.00  0.00    +0.039 A 
ATOM      9  C   UNL     1       0.445  -1.623   1.927  0.00  0.00    +0.057 A 
ATOM     10  C   UNL     1       1.397  -1.667   2.973  0.00  0.00    +0.147 A 
ATOM     11  N   UNL     1       2.168  -0.606   2.835  0.00  0.00    -0.169 NA
ATOM     12  N   UNL     1       1.795   0.080   1.815  0.00  0.00    -0.281 N 
ATOM     13  H   UNL     1       2.216   0.901   1.515  0.00  0.00    +0.189 HD
BRANCH   8  15
ATOM     14  C   UNL     1      -0.019   1.526   0.010  0.00  0.00    +0.014 C 
ATOM     15  C   UNL     1       0.002  -0.004   0.002  0.00  0.00    +0.031 C 
ATOM     16  C   UNL     1       0.718  -0.497  -1.257  0.00  0.00    +0.014 C 
ENDBRANCH   8  15
ENDBRANCH   1  10
BRANCH   7  17
ATOM     17  C   UNL     1       1.477  -3.616   6.946  0.00  0.00    +0.037 A 
ATOM     18  C   UNL     1       0.659  -2.581   7.223  0.00  0.00    +0.024 A 
ATOM     19  C   UNL     1      -0.343  -3.055   8.092  0.00  0.00    +0.019 A 
ATOM     20  C   UNL     1      -0.099  -4.363   8.314  0.00  0.00    +0.083 A 
ATOM     21  N   UNL     1       1.014  -4.714   7.608  0.00  0.00    -0.363 N 
ATOM     22  H   UNL     1       1.411  -5.599   7.583  0.00  0.00    +0.165 HD
ENDBRANCH   7  17
TORSDOF 3
