REMARK  Name = ZINC39700707
REMARK  3 active torsions:
REMARK  status: ('A' for Active; 'I' for Inactive)
REMARK    1  A    between atoms: C_1  and  C_2
REMARK    2  A    between atoms: N_16  and  N_17
REMARK    3  A    between atoms: C_18  and  C_19
REMARK                            x       y       z     vdW  Elec       q    Type
REMARK                         _______ _______ _______ _____ _____    ______ ____
ROOT
ATOM      1  C   UNL     1      -0.018   1.503   0.010  0.00  0.00    +0.044 C 
ATOM      2  C   UNL     1       0.002  -0.004   0.002  0.00  0.00    -0.050 A 
ATOM      3  C   UNL     1       0.005  -0.672  -1.230  0.00  0.00    +0.005 A 
ATOM      4  C   UNL     1       0.017  -2.022  -1.308  0.00  0.00    +0.026 A 
ATOM      5  C   UNL     1       0.027  -2.812  -0.071  0.00  0.00    +0.046 A 
ATOM      6  N   UNL     1       0.070  -4.106   0.139  0.00  0.00    -0.358 N 
ATOM      7  C   UNL     1      -0.067  -4.355   1.565  0.00  0.00    +0.253 C 
ATOM      8  C   UNL     1       0.064  -2.998   2.235  0.00  0.00    +0.115 C 
ATOM      9  C   UNL     1       0.036  -2.075   1.218  0.00  0.00    +0.025 A 
ATOM     10  C   UNL     1       0.022  -0.662   1.184  0.00  0.00    +0.015 A 
ATOM     11  N   UNL     1       0.301  -2.882   3.544  0.00  0.00    -0.171 NA
ATOM     12  N   UNL     1       0.929  -3.880   4.089  0.00  0.00    -0.247 N 
ATOM     13  C   UNL     1       1.373  -4.934   3.363  0.00  0.00    +0.227 C 
ATOM     14  N   UNL     1       0.970  -5.207   2.143  0.00  0.00    -0.220 NA
ATOM     15  N   UNL     1       2.301  -5.777   3.942  0.00  0.00    -0.206 N 
ATOM     16  H   UNL     1       2.616  -5.605   4.843  0.00  0.00    +0.177 HD
ATOM     17  H   UNL     1       1.087  -3.869   5.046  0.00  0.00    +0.192 HD
ATOM     18  H   UNL     1       0.177  -4.786  -0.544  0.00  0.00    +0.162 HD
ENDROOT
BRANCH  15  19
ATOM     19  N   UNL     1       2.787  -6.880   3.229  0.00  0.00    -0.188 NA
ATOM     20  C   UNL     1       3.659  -7.672   3.774  0.00  0.00    +0.138 C 
BRANCH  20  21
ATOM     21  C   UNL     1       4.171  -8.834   3.023  0.00  0.00    -0.004 A 
ATOM     22  C   UNL     1       3.723  -9.082   1.722  0.00  0.00    +0.009 A 
ATOM     23  C   UNL     1       4.205 -10.169   1.026  0.00  0.00    +0.002 A 
ATOM     24  C   UNL     1       5.131 -11.015   1.611  0.00  0.00    +0.014 A 
ATOM     25  C   UNL     1       5.579 -10.776   2.899  0.00  0.00    +0.014 A 
ATOM     26  C   UNL     1       5.110  -9.688   3.605  0.00  0.00    +0.023 A 
ATOM     27  I   UNL     1       6.980 -12.065   3.774  0.00  0.00    -0.044 I 
ENDBRANCH  20  21
ENDBRANCH  15  19
TORSDOF 2
