REMARK  Name = ZINC40129872
REMARK  11 active torsions:
REMARK  status: ('A' for Active; 'I' for Inactive)
REMARK    1  A    between atoms: C_1  and  C_2
REMARK    2  A    between atoms: C_5  and  N_8
REMARK    3  A    between atoms: N_8  and  C_9
REMARK    4  A    between atoms: N_8  and  S_25
REMARK    5  A    between atoms: C_9  and  C_10
REMARK    6  A    between atoms: C_10  and  C_11
REMARK    7  A    between atoms: N_13  and  S_14
REMARK    8  A    between atoms: S_14  and  C_17
REMARK    9  A    between atoms: C_20  and  C_23
REMARK   10  A    between atoms: S_25  and  C_28
REMARK   11  A    between atoms: C_31  and  C_34
REMARK                            x       y       z     vdW  Elec       q    Type
REMARK                         _______ _______ _______ _____ _____    ______ ____
ROOT
ATOM      1  N   UNL     1       0.096  -4.449   0.107  0.00  0.00    -0.203 N 
ENDROOT
BRANCH   1   6
ATOM      2  C   UNL     1       1.022   1.101   0.804  0.00  0.00    +0.044 C 
ATOM      3  C   UNL     1       0.776  -0.374   0.619  0.00  0.00    -0.050 A 
ATOM      4  C   UNL     1       0.663  -0.900  -0.655  0.00  0.00    +0.005 A 
ATOM      5  C   UNL     1       0.437  -2.251  -0.829  0.00  0.00    +0.025 A 
ATOM      6  C   UNL     1       0.324  -3.082   0.279  0.00  0.00    +0.051 A 
ATOM      7  C   UNL     1       0.438  -2.551   1.557  0.00  0.00    +0.025 A 
ATOM      8  C   UNL     1       0.669  -1.199   1.723  0.00  0.00    +0.005 A 
ENDBRANCH   1   6
BRANCH   1   9
ATOM      9  S   UNL     1      -0.654  -4.998  -1.264  0.00  0.00    +0.075 S 
ATOM     10  O   UNL     1      -1.264  -6.236  -0.926  0.00  0.00    -0.150 OA
ATOM     11  O   UNL     1      -1.393  -3.903  -1.788  0.00  0.00    -0.150 OA
BRANCH   9  12
ATOM     12  C   UNL     1       0.608  -5.362  -2.438  0.00  0.00    +0.109 A 
ATOM     13  C   UNL     1       0.954  -4.426  -3.394  0.00  0.00    +0.029 A 
ATOM     14  C   UNL     1       1.945  -4.712  -4.315  0.00  0.00    +0.005 A 
ATOM     15  C   UNL     1       2.590  -5.934  -4.279  0.00  0.00    -0.050 A 
ATOM     16  C   UNL     1       2.244  -6.870  -3.323  0.00  0.00    +0.005 A 
ATOM     17  C   UNL     1       1.257  -6.583  -2.399  0.00  0.00    +0.029 A 
ATOM     18  C   UNL     1       3.668  -6.246  -5.284  0.00  0.00    +0.044 C 
ENDBRANCH   9  12
ENDBRANCH   1   9
BRANCH   1  19
ATOM     19  C   UNL     1       0.519  -5.398   1.140  0.00  0.00    +0.141 C 
BRANCH  19  20
ATOM     20  C   UNL     1      -0.566  -5.501   2.214  0.00  0.00    +0.123 C 
BRANCH  20  21
ATOM     21  C   UNL     1      -0.130  -6.477   3.276  0.00  0.00    +0.266 C 
ATOM     22  O   UNL     1      -0.933  -6.730   4.330  0.00  0.00    -0.269 OA
ATOM     23  N   UNL     1       1.011  -7.071   3.178  0.00  0.00    -0.091 NA
BRANCH  23  24
ATOM     24  S   UNL     1       1.490  -8.144   4.345  0.00  0.00    +0.102 S 
ATOM     25  O   UNL     1       1.675  -7.391   5.536  0.00  0.00    -0.146 OA
ATOM     26  O   UNL     1       0.599  -9.248   4.272  0.00  0.00    -0.146 OA
BRANCH  24  27
ATOM     27  C   UNL     1       3.079  -8.746   3.879  0.00  0.00    +0.113 A 
ATOM     28  C   UNL     1       3.181  -9.873   3.082  0.00  0.00    +0.030 A 
ATOM     29  C   UNL     1       4.421 -10.351   2.714  0.00  0.00    +0.021 A 
ATOM     30  C   UNL     1       5.575  -9.694   3.145  0.00  0.00    +0.052 A 
ATOM     31  C   UNL     1       5.465  -8.557   3.948  0.00  0.00    +0.021 A 
ATOM     32  C   UNL     1       4.218  -8.088   4.306  0.00  0.00    +0.030 A 
BRANCH  30  33
ATOM     33  C   UNL     1       6.866 -10.184   2.767  0.00  0.00    +0.099 C 
ATOM     34  N   UNL     1       7.891 -10.573   2.466  0.00  0.00    -0.191 NA
ENDBRANCH  30  33
ENDBRANCH  24  27
ENDBRANCH  23  24
ENDBRANCH  20  21
ENDBRANCH  19  20
ENDBRANCH   1  19
TORSDOF 9
