REMARK  Name = ZINC39693333
REMARK  11 active torsions:
REMARK  status: ('A' for Active; 'I' for Inactive)
REMARK    1  A    between atoms: C_1  and  C_2
REMARK    2  A    between atoms: C_2  and  C_3
REMARK    3  A    between atoms: C_3  and  C_5
REMARK    4  A    between atoms: C_3  and  C_6
REMARK    5  A    between atoms: C_6  and  C_7
REMARK    6  A    between atoms: C_11  and  C_20
REMARK    7  A    between atoms: N_22  and  C_23
REMARK    8  A    between atoms: C_23  and  C_24
REMARK    9  A    between atoms: C_24  and  N_25
REMARK   10  A    between atoms: C_26  and  C_28
REMARK   11  A    between atoms: C_28  and  C_29
REMARK                            x       y       z     vdW  Elec       q    Type
REMARK                         _______ _______ _______ _____ _____    ______ ____
ROOT
ATOM      1  C   UNL     1      -2.220  -6.090   1.839  0.00  0.00    +0.218 C 
ATOM      2  O   UNL     1      -1.828  -5.047   2.318  0.00  0.00    -0.275 OA
ATOM      3  N   UNL     1      -2.223  -7.214   2.583  0.00  0.00    -0.314 N 
ATOM      4  H   UNL     1      -2.537  -8.048   2.200  0.00  0.00    +0.149 HD
ENDROOT
BRANCH   1   9
ATOM      5  C   UNL     1      -2.531  -2.590  -0.335  0.00  0.00    +0.216 C 
ATOM      6  O   UNL     1      -3.393  -1.737  -0.335  0.00  0.00    -0.276 OA
ATOM      7  N   UNL     1      -2.871  -3.891  -0.426  0.00  0.00    -0.300 N 
ATOM      8  C   UNL     1      -1.969  -5.067  -0.434  0.00  0.00    +0.121 C 
ATOM      9  C   UNL     1      -2.705  -6.129   0.413  0.00  0.00    +0.100 C 
ATOM     10  C   UNL     1      -4.189  -5.732   0.338  0.00  0.00    -0.004 C 
ATOM     11  C   UNL     1      -4.232  -4.469  -0.534  0.00  0.00    +0.115 C 
ATOM     12  C   UNL     1      -4.724  -5.422   1.732  0.00  0.00    -0.010 C 
ATOM     13  C   UNL     1      -6.215  -5.085   1.638  0.00  0.00    -0.082 C 
ATOM     14  N   UNL     1      -6.939  -6.222   1.056  0.00  0.00    +0.379 N 
ATOM     15  C   UNL     1      -6.482  -6.455  -0.319  0.00  0.00    -0.082 C 
ATOM     16  C   UNL     1      -5.003  -6.849  -0.308  0.00  0.00    -0.010 C 
ATOM     17  H   UNL     1      -6.768  -7.047   1.611  0.00  0.00    -0.086 HD
ATOM     18  H   UNL     1      -7.928  -6.022   1.051  0.00  0.00    -0.086 HD
BRANCH   5  19
ATOM     19  C   UNL     1      -1.080  -2.196  -0.231  0.00  0.00    +0.099 C 
BRANCH  19  20
ATOM     20  C   UNL     1      -0.971  -0.673  -0.140  0.00  0.00    -0.006 C 
ATOM     21  C   UNL     1      -1.614  -0.192   1.162  0.00  0.00    +0.008 C 
BRANCH  20  23
ATOM     22  C   UNL     1       0.611   1.261  -0.196  0.00  0.00    +0.004 C 
ATOM     23  C   UNL     1       0.504  -0.265  -0.161  0.00  0.00    +0.000 C 
ENDBRANCH  20  23
ENDBRANCH  19  20
ENDBRANCH   5  19
ENDBRANCH   1   9
BRANCH   3  24
ATOM     24  C   UNL     1      -1.752  -7.176   3.970  0.00  0.00    +0.123 C 
BRANCH  24  25
ATOM     25  C   UNL     1      -1.859  -8.573   4.583  0.00  0.00    +0.123 C 
BRANCH  25  26
ATOM     26  N   UNL     1      -1.388  -8.535   5.970  0.00  0.00    -0.314 N 
ATOM     27  C   UNL     1      -1.391  -9.659   6.714  0.00  0.00    +0.217 C 
ATOM     28  O   UNL     1      -1.783 -10.702   6.235  0.00  0.00    -0.275 OA
ATOM     29  H   UNL     1      -1.075  -7.701   6.353  0.00  0.00    +0.149 HD
BRANCH  27  30
ATOM     30  C   UNL     1      -0.906  -9.620   8.140  0.00  0.00    +0.131 C 
BRANCH  30  31
ATOM     31  C   UNL     1      -1.012 -10.996   8.745  0.00  0.00    -0.031 A 
ATOM     32  C   UNL     1      -2.113 -11.345   9.466  0.00  0.00    +0.005 A 
ATOM     33  C   UNL     1      -2.228 -12.612  10.032  0.00  0.00    +0.001 A 
ATOM     34  C   UNL     1      -1.242 -13.540   9.881  0.00  0.00    +0.008 A 
ATOM     35  C   UNL     1      -0.091 -13.216   9.144  0.00  0.00    -0.018 A 
ATOM     36  C   UNL     1       0.023 -11.929   8.562  0.00  0.00    -0.014 A 
ATOM     37  C   UNL     1       1.173 -11.608   7.820  0.00  0.00    +0.009 A 
ATOM     38  C   UNL     1       2.155 -12.537   7.664  0.00  0.00    +0.001 A 
ATOM     39  C   UNL     1       2.039 -13.805   8.230  0.00  0.00    +0.001 A 
ATOM     40  C   UNL     1       0.947 -14.147   8.967  0.00  0.00    +0.008 A 
ENDBRANCH  30  31
ENDBRANCH  27  30
ENDBRANCH  25  26
ENDBRANCH  24  25
ENDBRANCH   3  24
TORSDOF 9
