REMARK  Name = ZINC09907497
REMARK  13 active torsions:
REMARK  status: ('A' for Active; 'I' for Inactive)
REMARK    1  A    between atoms: C_1  and  C_2
REMARK    2  A    between atoms: C_2  and  C_3
REMARK    3  A    between atoms: C_3  and  N_4
REMARK    4  A    between atoms: C_8  and  C_9
REMARK    5  A    between atoms: C_11  and  C_28
REMARK    6  A    between atoms: C_12  and  O_18
REMARK    7  A    between atoms: C_13  and  O_15
REMARK    8  A    between atoms: O_15  and  C_16
REMARK    9  A    between atoms: C_16  and  C_17
REMARK   10  A    between atoms: O_18  and  C_19
REMARK   11  A    between atoms: C_19  and  C_20
REMARK   12  A    between atoms: C_23  and  C_26
REMARK   13  A    between atoms: C_28  and  C_29
REMARK                            x       y       z     vdW  Elec       q    Type
REMARK                         _______ _______ _______ _____ _____    ______ ____
ROOT
ATOM      1  C   UNL     1       2.051   6.099   0.164  0.00  0.00    -0.019 A 
ATOM      2  C   UNL     1       2.327   5.521   1.409  0.00  0.00    +0.015 A 
ATOM      3  C   UNL     1       2.389   4.151   1.533  0.00  0.00    +0.002 A 
ATOM      4  C   UNL     1       2.180   3.340   0.426  0.00  0.00    +0.166 A 
ATOM      5  C   UNL     1       1.909   3.908  -0.819  0.00  0.00    +0.163 A 
ATOM      6  C   UNL     1       1.839   5.280  -0.951  0.00  0.00    +0.057 A 
ENDROOT
BRANCH   1  11
ATOM      7  N   UNL     1       0.274   8.920   2.856  0.00  0.00    -0.221 N 
ATOM      8  C   UNL     1       0.659   7.822   2.175  0.00  0.00    +0.268 C 
ATOM      9  O   UNL     1       0.436   6.662   2.471  0.00  0.00    -0.268 OA
ATOM     10  C   UNL     1       1.404   8.306   1.003  0.00  0.00    +0.098 C 
ATOM     11  C   UNL     1       1.984   7.560   0.029  0.00  0.00    +0.036 C 
ATOM     12  N   UNL     1       1.391   9.703   1.111  0.00  0.00    -0.265 N 
ATOM     13  C   UNL     1       0.705  10.022   2.223  0.00  0.00    +0.313 C 
ATOM     14  O   UNL     1       0.505  11.159   2.607  0.00  0.00    -0.252 OA
ATOM     15  H   UNL     1       1.803  10.329   0.494  0.00  0.00    +0.157 HD
BRANCH   7  16
ATOM     16  C   UNL     1      -0.499   8.912   4.100  0.00  0.00    +0.118 C 
BRANCH  16  18
ATOM     17  C   UNL     1      -0.349   8.859   6.594  0.00  0.00    +0.005 C 
ATOM     18  C   UNL     1       0.458   8.867   5.294  0.00  0.00    +0.016 C 
ENDBRANCH  16  18
ENDBRANCH   7  16
ENDBRANCH   1  11
BRANCH   5  19
ATOM     19  O   UNL     1       1.710   3.109  -1.901  0.00  0.00    -0.489 OA
BRANCH  19  20
ATOM     20  C   UNL     1       1.437   3.758  -3.145  0.00  0.00    +0.226 C 
ATOM     21  C   UNL     1       1.243   2.705  -4.238  0.00  0.00    +0.048 C 
ENDBRANCH  19  20
ENDBRANCH   5  19
BRANCH   4  22
ATOM     22  O   UNL     1       2.244   1.989   0.554  0.00  0.00    -0.483 OA
BRANCH  22  23
ATOM     23  C   UNL     1       1.028   1.310   0.877  0.00  0.00    +0.264 C 
BRANCH  23  24
ATOM     24  C   UNL     1       1.292  -0.171   0.978  0.00  0.00    -0.010 A 
ATOM     25  C   UNL     1       1.165  -0.971  -0.144  0.00  0.00    +0.008 A 
ATOM     26  C   UNL     1       1.410  -2.326  -0.060  0.00  0.00    +0.015 A 
ATOM     27  C   UNL     1       1.775  -2.891   1.163  0.00  0.00    +0.063 A 
ATOM     28  C   UNL     1       1.896  -2.079   2.292  0.00  0.00    +0.015 A 
ATOM     29  C   UNL     1       1.654  -0.725   2.193  0.00  0.00    +0.008 A 
BRANCH  27  30
ATOM     30  C   UNL     1       2.034  -4.342   1.262  0.00  0.00    +0.387 C 
ATOM     31  O   UNL     1       2.352  -4.832   2.327  0.00  0.00    -0.241 OA
ATOM     32  O   UNL     1       1.916  -5.123   0.170  0.00  0.00    -0.241 OA
ENDBRANCH  27  30
ENDBRANCH  23  24
ENDBRANCH  22  23
ENDBRANCH   4  22
BRANCH   3  33
ATOM     33  C   UNL     1       2.687   3.530   2.874  0.00  0.00    +0.065 C 
BRANCH  33  34
ATOM     34  C   UNL     1       4.163   3.248   2.980  0.00  0.00    -0.030 C 
ATOM     35  C   UNL     1       4.851   3.730   3.986  0.00  0.00    +0.004 C 
ENDBRANCH  33  34
ENDBRANCH   3  33
TORSDOF 11
