REMARK  Name = ZINC36029982
REMARK  14 active torsions:
REMARK  status: ('A' for Active; 'I' for Inactive)
REMARK    1  A    between atoms: C_1  and  C_2
REMARK    2  A    between atoms: C_2  and  C_3
REMARK    3  A    between atoms: C_2  and  C_4
REMARK    4  A    between atoms: C_2  and  C_5
REMARK    5  A    between atoms: C_7  and  N_29
REMARK    6  A    between atoms: C_9  and  S_11
REMARK    7  A    between atoms: S_11  and  C_12
REMARK    8  A    between atoms: C_12  and  C_13
REMARK    9  A    between atoms: C_16  and  C_18
REMARK   10  A    between atoms: N_20  and  C_21
REMARK   11  A    between atoms: C_21  and  C_22
REMARK   12  A    between atoms: C_22  and  C_23
REMARK   13  A    between atoms: N_29  and  C_30
REMARK   14  A    between atoms: N_29  and  C_31
REMARK                            x       y       z     vdW  Elec       q    Type
REMARK                         _______ _______ _______ _____ _____    ______ ____
ROOT
ATOM      1  S   UNL     1      -0.344  -2.079  -4.663  0.00  0.00    -0.078 S 
ENDROOT
BRANCH   1   6
ATOM      2  C   UNL     1       0.707  -0.490  -1.238  0.00  0.00    +0.053 A 
ATOM      3  C   UNL     1       2.084  -0.418  -1.332  0.00  0.00    +0.067 A 
ATOM      4  C   UNL     1       2.697  -0.879  -2.498  0.00  0.00    +0.126 A 
ATOM      5  N   UNL     1       1.941  -1.370  -3.474  0.00  0.00    -0.207 NA
ATOM      6  C   UNL     1       0.623  -1.422  -3.345  0.00  0.00    +0.191 A 
ATOM      7  N   UNL     1       0.015  -0.996  -2.247  0.00  0.00    -0.226 NA
BRANCH   2   9
ATOM      8  C   UNL     1      -0.019   1.526   0.010  0.00  0.00    +0.017 C 
ATOM      9  C   UNL     1       0.002  -0.004   0.002  0.00  0.00    +0.005 C 
ATOM     10  C   UNL     1       0.742  -0.511   1.242  0.00  0.00    +0.017 C 
ATOM     11  C   UNL     1      -1.433  -0.534   0.013  0.00  0.00    +0.017 C 
ENDBRANCH   2   9
BRANCH   4  12
ATOM     12  N   UNL     1       4.075  -0.826  -2.636  0.00  0.00    -0.315 N 
ATOM     13  C   UNL     1       4.907  -0.385  -1.514  0.00  0.00    +0.131 C 
BRANCH  12  14
ATOM     14  C   UNL     1       4.700  -1.210  -3.904  0.00  0.00    +0.075 C 
ATOM     15  C   UNL     1       5.653  -2.383  -3.669  0.00  0.00    +0.022 C 
ATOM     16  C   UNL     1       6.306  -2.784  -4.993  0.00  0.00    +0.002 C 
ATOM     17  C   UNL     1       7.088  -1.596  -5.557  0.00  0.00    +0.000 C 
ATOM     18  C   UNL     1       6.134  -0.423  -5.792  0.00  0.00    +0.002 C 
ATOM     19  C   UNL     1       5.482  -0.022  -4.468  0.00  0.00    +0.022 C 
ENDBRANCH  12  14
ENDBRANCH   4  12
ENDBRANCH   1   6
BRANCH   1  20
ATOM     20  C   UNL     1       0.880  -2.531  -5.923  0.00  0.00    +0.151 C 
BRANCH  20  21
ATOM     21  C   UNL     1       0.177  -3.115  -7.121  0.00  0.00    +0.116 A 
ATOM     22  C   UNL     1      -0.269  -2.417  -8.189  0.00  0.00    +0.046 A 
ATOM     23  C   UNL     1      -0.858  -3.339  -9.068  0.00  0.00    +0.055 A 
ATOM     24  C   UNL     1      -0.741  -4.568  -8.485  0.00  0.00    +0.189 A 
ATOM     25  O   UNL     1      -0.105  -4.411  -7.305  0.00  0.00    -0.454 OA
BRANCH  24  26
ATOM     26  C   UNL     1      -1.218  -5.837  -9.044  0.00  0.00    +0.279 C 
ATOM     27  O   UNL     1      -1.777  -5.853 -10.125  0.00  0.00    -0.267 OA
ATOM     28  N   UNL     1      -1.038  -6.985  -8.361  0.00  0.00    -0.308 N 
ATOM     29  H   UNL     1      -0.593  -6.972  -7.500  0.00  0.00    +0.149 HD
BRANCH  28  30
ATOM     30  C   UNL     1      -1.515  -8.252  -8.920  0.00  0.00    +0.111 C 
BRANCH  30  31
ATOM     31  C   UNL     1      -1.188  -9.392  -7.953  0.00  0.00    +0.074 C 
BRANCH  31  32
ATOM     32  C   UNL     1      -1.678 -10.695  -8.528  0.00  0.00    +0.043 A 
ATOM     33  C   UNL     1      -0.798 -11.751  -8.675  0.00  0.00    +0.023 A 
ATOM     34  C   UNL     1      -1.260 -12.946  -9.205  0.00  0.00    +0.003 A 
ATOM     35  C   UNL     1      -2.595 -13.035  -9.569  0.00  0.00    +0.020 A 
ATOM     36  C   UNL     1      -3.415 -11.937  -9.393  0.00  0.00    +0.111 A 
ATOM     37  N   UNL     1      -2.943 -10.817  -8.880  0.00  0.00    -0.260 NA
ENDBRANCH  31  32
ENDBRANCH  30  31
ENDBRANCH  28  30
ENDBRANCH  24  26
ENDBRANCH  20  21
ENDBRANCH   1  20
TORSDOF 10
