REMARK  Name = ZINC63314330
REMARK  11 active torsions:
REMARK  status: ('A' for Active; 'I' for Inactive)
REMARK    1  A    between atoms: C_1  and  C_2
REMARK    2  A    between atoms: C_2  and  O_3
REMARK    3  A    between atoms: O_3  and  C_4
REMARK    4  A    between atoms: C_6  and  S_11
REMARK    5  A    between atoms: S_11  and  N_14
REMARK    6  A    between atoms: N_14  and  C_15
REMARK    7  A    between atoms: C_15  and  C_16
REMARK    8  A    between atoms: C_16  and  C_17
REMARK    9  A    between atoms: C_20  and  O_28
REMARK   10  A    between atoms: C_25  and  C_27
REMARK   11  A    between atoms: O_28  and  C_29
REMARK                            x       y       z     vdW  Elec       q    Type
REMARK                         _______ _______ _______ _____ _____    ______ ____
ROOT
ATOM      1  N   UNL     1       0.858  -5.394  -1.845  0.00  0.00    -0.190 NA
ATOM      2  H   UNL     1       0.736  -5.082  -2.755  0.00  0.00    +0.148 HD
ENDROOT
BRANCH   1   3
ATOM      3  S   UNL     1      -0.317  -5.119  -0.710  0.00  0.00    +0.059 S 
ATOM      4  O   UNL     1      -0.553  -6.361  -0.062  0.00  0.00    -0.153 OA
ATOM      5  O   UNL     1      -1.348  -4.391  -1.362  0.00  0.00    -0.153 OA
BRANCH   3   8
ATOM      6  C   UNL     1       0.802  -1.825   1.306  0.00  0.00    +0.141 A 
ATOM      7  C   UNL     1       0.260  -2.673   0.351  0.00  0.00    +0.075 A 
ATOM      8  C   UNL     1       0.372  -4.042   0.502  0.00  0.00    +0.109 A 
ATOM      9  C   UNL     1       1.024  -4.567   1.602  0.00  0.00    +0.030 A 
ATOM     10  C   UNL     1       1.565  -3.724   2.556  0.00  0.00    +0.025 A 
ATOM     11  C   UNL     1       1.461  -2.353   2.407  0.00  0.00    +0.083 A 
ATOM     12 CL   UNL     1       2.147  -1.296   3.600  0.00  0.00    -0.080 Cl
BRANCH   6  13
ATOM     13  O   UNL     1       0.693  -0.477   1.160  0.00  0.00    -0.491 OA
BRANCH  13  15
ATOM     14  C   UNL     1      -0.019   1.526   0.010  0.00  0.00    +0.048 C 
ATOM     15  C   UNL     1       0.002  -0.004   0.002  0.00  0.00    +0.226 C 
ENDBRANCH  13  15
ENDBRANCH   6  13
ENDBRANCH   3   8
ENDBRANCH   1   3
BRANCH   1  16
ATOM     16  C   UNL     1       2.082  -6.110  -1.474  0.00  0.00    +0.110 C 
BRANCH  16  17
ATOM     17  C   UNL     1       2.814  -6.557  -2.740  0.00  0.00    +0.050 C 
BRANCH  17  18
ATOM     18  C   UNL     1       4.073  -7.293  -2.359  0.00  0.00    -0.037 C 
ATOM     19  C   UNL     1       4.519  -7.547  -1.108  0.00  0.00    +0.003 A 
ATOM     20  C   UNL     1       3.989  -7.226   0.222  0.00  0.00    +0.055 A 
ATOM     21  C   UNL     1       4.671  -7.618   1.325  0.00  0.00    +0.121 A 
ATOM     22  C   UNL     1       5.881  -8.329   1.245  0.00  0.00    +0.047 A 
ATOM     23  C   UNL     1       6.448  -8.670   0.068  0.00  0.00    +0.029 A 
ATOM     24  C   UNL     1       5.794  -8.295  -1.190  0.00  0.00    +0.043 A 
ATOM     25  N   UNL     1       6.123  -8.497  -2.442  0.00  0.00    -0.378 N 
ATOM     26  C   UNL     1       5.089  -7.903  -3.298  0.00  0.00    +0.103 C 
ATOM     27  C   UNL     1       4.430  -8.982  -4.159  0.00  0.00    +0.035 C 
ATOM     28  H   UNL     1       6.915  -8.963  -2.751  0.00  0.00    +0.160 HD
BRANCH  21  29
ATOM     29  O   UNL     1       4.168  -7.314   2.550  0.00  0.00    -0.495 OA
ATOM     30  C   UNL     1       4.920  -7.747   3.686  0.00  0.00    +0.277 C 
ENDBRANCH  21  29
ENDBRANCH  17  18
ENDBRANCH  16  17
ENDBRANCH   1  16
TORSDOF 8
