REMARK  Name = ZINC28160098
REMARK  8 active torsions:
REMARK  status: ('A' for Active; 'I' for Inactive)
REMARK    1  A    between atoms: C_1  and  C_2
REMARK    2  A    between atoms: C_5  and  C_8
REMARK    3  A    between atoms: C_11  and  C_33
REMARK    4  A    between atoms: C_18  and  C_21
REMARK    5  A    between atoms: C_21  and  C_22
REMARK    6  A    between atoms: N_24  and  C_25
REMARK    7  A    between atoms: C_28  and  C_32
REMARK    8  A    between atoms: C_30  and  C_31
REMARK                            x       y       z     vdW  Elec       q    Type
REMARK                         _______ _______ _______ _____ _____    ______ ____
ROOT
ATOM      1  C   UNL     1      -7.367   2.552   3.607  0.00  0.00    +0.136 C 
ATOM      2  C   UNL     1      -7.644   3.219   4.969  0.00  0.00    +0.087 C 
ATOM      3  C   UNL     1      -6.364   3.960   5.280  0.00  0.00    +0.075 C 
ATOM      4  N   UNL     1      -5.515   3.772   4.325  0.00  0.00    -0.181 NA
ATOM      5  N   UNL     1      -5.989   2.963   3.295  0.00  0.00    -0.195 N 
ATOM      6  C   UNL     1      -5.291   2.613   2.177  0.00  0.00    +0.170 C 
ATOM      7  N   UNL     1      -5.690   1.849   1.167  0.00  0.00    -0.157 NA
ATOM      8  C   UNL     1      -4.956   1.561   0.128  0.00  0.00    +0.252 C 
ATOM      9  O   UNL     1      -5.359   0.856  -0.777  0.00  0.00    -0.272 OA
ATOM     10  C   UNL     1      -3.559   2.170   0.127  0.00  0.00    +0.150 C 
ATOM     11  S   UNL     1      -3.625   3.076   1.725  0.00  0.00    -0.078 S 
ENDROOT
BRANCH   1  16
ATOM     12  C   UNL     1     -11.030   4.507  -0.411  0.00  0.00    +0.044 C 
ATOM     13  C   UNL     1     -10.075   3.998   0.637  0.00  0.00    -0.050 A 
ATOM     14  C   UNL     1     -10.253   2.739   1.181  0.00  0.00    +0.004 A 
ATOM     15  C   UNL     1      -9.377   2.271   2.142  0.00  0.00    +0.006 A 
ATOM     16  C   UNL     1      -8.322   3.062   2.559  0.00  0.00    -0.025 A 
ATOM     17  C   UNL     1      -8.147   4.322   2.019  0.00  0.00    +0.006 A 
ATOM     18  C   UNL     1      -9.021   4.788   1.054  0.00  0.00    +0.004 A 
ENDBRANCH   1  16
BRANCH   3  19
ATOM     19  C   UNL     1      -6.123   4.766   6.481  0.00  0.00    +0.035 A 
ATOM     20  C   UNL     1      -4.987   5.468   6.847  0.00  0.00    +0.017 A 
ATOM     21  C   UNL     1      -5.003   6.163   8.035  0.00  0.00    +0.008 A 
ATOM     22  C   UNL     1      -6.118   6.129   8.810  0.00  0.00    +0.046 A 
ATOM     23  S   UNL     1      -7.214   5.093   7.856  0.00  0.00    -0.095 S 
ENDBRANCH   3  19
BRANCH  10  24
ATOM     24  C   UNL     1      -2.478   1.087   0.142  0.00  0.00    +0.120 C 
BRANCH  24  25
ATOM     25  C   UNL     1      -1.121   1.730   0.017  0.00  0.00    +0.219 C 
ATOM     26  O   UNL     1      -1.028   2.936  -0.076  0.00  0.00    -0.275 OA
ATOM     27  N   UNL     1      -0.011   0.966   0.007  0.00  0.00    -0.285 N 
ATOM     28  H   UNL     1      -0.098  -0.131   0.022  0.00  0.00    +0.155 HD
BRANCH  27  29
ATOM     29  C   UNL     1       1.252   1.567  -0.020  0.00  0.00    +0.036 A 
ATOM     30  C   UNL     1       1.445   2.750  -0.722  0.00  0.00    +0.024 A 
ATOM     31  C   UNL     1       2.692   3.341  -0.747  0.00  0.00    +0.005 A 
ATOM     32  C   UNL     1       3.750   2.755  -0.076  0.00  0.00    -0.050 A 
ATOM     33  C   UNL     1       3.562   1.577   0.623  0.00  0.00    +0.008 A 
ATOM     34  C   UNL     1       2.315   0.985   0.658  0.00  0.00    -0.029 A 
ATOM     35  C   UNL     1       2.109  -0.296   1.425  0.00  0.00    +0.045 C 
ATOM     36  C   UNL     1       5.111   3.402  -0.106  0.00  0.00    +0.044 C 
ENDBRANCH  27  29
ENDBRANCH  24  25
ENDBRANCH  10  24
TORSDOF 5
