REMARK  Name = ZINC39856223
REMARK  9 active torsions:
REMARK  status: ('A' for Active; 'I' for Inactive)
REMARK    1  A    between atoms: C_1  and  C_2
REMARK    2  A    between atoms: C_6  and  C_7
REMARK    3  A    between atoms: C_7  and  O_9
REMARK    4  A    between atoms: O_9  and  C_10
REMARK    5  A    between atoms: C_21  and  C_29
REMARK    6  A    between atoms: C_21  and  C_30
REMARK    7  A    between atoms: N_24  and  N_25
REMARK    8  A    between atoms: N_25  and  C_26
REMARK    9  A    between atoms: C_26  and  N_28
REMARK                            x       y       z     vdW  Elec       q    Type
REMARK                         _______ _______ _______ _____ _____    ______ ____
ROOT
ATOM      1  C   UNL     1      -0.303   1.509   0.033  0.00  0.00    +0.048 C 
ATOM      2  C   UNL     1      -0.175   0.007   0.014  0.00  0.00    +0.011 A 
ATOM      3  C   UNL     1      -0.136  -0.818  -1.116  0.00  0.00    +0.042 A 
ATOM      4  C   UNL     1      -0.014  -2.115  -0.676  0.00  0.00    +0.116 A 
ATOM      5  O   UNL     1       0.024  -2.096   0.654  0.00  0.00    -0.452 OA
ATOM      6  C   UNL     1      -0.068  -0.822   1.097  0.00  0.00    +0.215 A 
ATOM      7  C   UNL     1       0.056  -3.295  -1.612  0.00  0.00    +0.081 C 
ATOM      8  C   UNL     1      -0.530  -2.902  -2.970  0.00  0.00    -0.023 C 
ATOM      9  C   UNL     1       0.139  -1.630  -3.500  0.00  0.00    +0.064 C 
ATOM     10  C   UNL     1      -0.201  -0.485  -2.557  0.00  0.00    +0.070 C 
ATOM     11  N   UNL     1      -0.524   0.696  -2.985  0.00  0.00    -0.185 NA
ATOM     12  C   UNL     1      -0.305  -4.042  -3.966  0.00  0.00    +0.011 C 
ATOM     13  C   UNL     1      -2.033  -2.656  -2.820  0.00  0.00    +0.011 C 
ENDROOT
BRANCH   6  14
ATOM     14  C   UNL     1      -0.057  -0.400   2.500  0.00  0.00    +0.380 C 
ATOM     15  O   UNL     1      -0.148   0.780   2.781  0.00  0.00    -0.241 OA
BRANCH  14  16
ATOM     16  O   UNL     1       0.055  -1.320   3.480  0.00  0.00    -0.418 OA
BRANCH  16  17
ATOM     17  C   UNL     1       0.166  -0.878   4.760  0.00  0.00    +0.158 A 
ATOM     18  C   UNL     1       1.399  -0.715   5.325  0.00  0.00    +0.048 A 
ATOM     19  C   UNL     1       1.534  -0.263   6.635  0.00  0.00    +0.004 A 
ATOM     20  C   UNL     1       0.438   0.028   7.391  0.00  0.00    +0.010 A 
ATOM     21  C   UNL     1      -0.846  -0.128   6.845  0.00  0.00    +0.004 A 
ATOM     22  C   UNL     1      -0.990  -0.581   5.510  0.00  0.00    +0.113 A 
ATOM     23  N   UNL     1      -2.210  -0.725   4.985  0.00  0.00    -0.251 NA
ATOM     24  C   UNL     1      -3.288  -0.451   5.678  0.00  0.00    +0.111 A 
ATOM     25  C   UNL     1      -3.217   0.005   6.993  0.00  0.00    +0.020 A 
ATOM     26  C   UNL     1      -2.001   0.163   7.595  0.00  0.00    +0.011 A 
ENDBRANCH  16  17
ENDBRANCH  14  16
ENDBRANCH   6  14
BRANCH  11  27
ATOM     27  N   UNL     1      -0.570   0.955  -4.361  0.00  0.00    -0.218 N 
ATOM     28  H   UNL     1      -0.360   0.251  -4.994  0.00  0.00    +0.176 HD
BRANCH  27  29
ATOM     29  C   UNL     1      -0.906   2.182  -4.805  0.00  0.00    +0.147 C 
ATOM     30  S   UNL     1      -0.962   2.499  -6.486  0.00  0.00    -0.017 S 
BRANCH  29  31
ATOM     31  N   UNL     1      -1.198   3.161  -3.925  0.00  0.00    -0.339 N 
ATOM     32  H   UNL     1      -1.167   2.982  -2.972  0.00  0.00    +0.144 HD
ATOM     33  H   UNL     1      -1.440   4.044  -4.245  0.00  0.00    +0.144 HD
ENDBRANCH  29  31
ENDBRANCH  27  29
ENDBRANCH  11  27
TORSDOF 6
