REMARK  Name = ZINC39770043
REMARK  14 active torsions:
REMARK  status: ('A' for Active; 'I' for Inactive)
REMARK    1  A    between atoms: C_1  and  C_2
REMARK    2  A    between atoms: C_2  and  C_3
REMARK    3  A    between atoms: C_3  and  N_4
REMARK    4  A    between atoms: C_5  and  N_30
REMARK    5  A    between atoms: C_6  and  C_14
REMARK    6  A    between atoms: C_7  and  C_13
REMARK    7  A    between atoms: C_8  and  C_11
REMARK    8  A    between atoms: N_18  and  C_22
REMARK    9  A    between atoms: C_22  and  C_23
REMARK   10  A    between atoms: C_23  and  C_24
REMARK   11  A    between atoms: C_24  and  C_25
REMARK   12  A    between atoms: C_25  and  C_26
REMARK   13  A    between atoms: C_26  and  C_27
REMARK   14  A    between atoms: C_34  and  C_37
REMARK                            x       y       z     vdW  Elec       q    Type
REMARK                         _______ _______ _______ _____ _____    ______ ____
ROOT
ATOM      1  N   UNL     1      -1.343  -2.364   0.425  0.00  0.00    -0.295 N 
ATOM      2  C   UNL     1      -1.350  -2.857  -0.840  0.00  0.00    +0.112 A 
ATOM      3  C   UNL     1      -1.682  -4.201  -1.079  0.00  0.00    +0.019 A 
ATOM      4  C   UNL     1      -2.009  -5.035   0.003  0.00  0.00    -0.017 A 
ATOM      5  C   UNL     1      -1.993  -4.505   1.290  0.00  0.00    +0.120 A 
ATOM      6  C   UNL     1      -1.646  -3.143   1.478  0.00  0.00    +0.270 A 
ATOM      7  O   UNL     1      -1.626  -2.675   2.603  0.00  0.00    -0.266 OA
ATOM      8  C   UNL     1      -2.369  -6.481  -0.226  0.00  0.00    +0.046 C 
ENDROOT
BRANCH   3   9
ATOM      9  C   UNL     1      -1.690  -4.727  -2.446  0.00  0.00    +0.032 C 
ATOM     10  C   UNL     1      -0.786  -5.675  -2.814  0.00  0.00    +0.077 C 
ATOM     11  C   UNL     1       0.311  -6.220  -2.079  0.00  0.00    +0.258 C 
ATOM     12  O   UNL     1       0.555  -5.844  -0.947  0.00  0.00    -0.269 OA
ATOM     13  N   UNL     1       1.052  -7.144  -2.664  0.00  0.00    -0.255 N 
ATOM     14  C   UNL     1       0.780  -7.562  -3.921  0.00  0.00    +0.121 C 
ATOM     15  S   UNL     1       1.598  -8.734  -4.863  0.00  0.00    -0.027 S 
ATOM     16  S   UNL     1      -0.654  -6.585  -4.347  0.00  0.00    -0.061 S 
BRANCH  13  17
ATOM     17  C   UNL     1       2.185  -7.726  -1.941  0.00  0.00    +0.115 C 
BRANCH  17  18
ATOM     18  C   UNL     1       1.716  -8.955  -1.160  0.00  0.00    +0.019 C 
BRANCH  18  19
ATOM     19  C   UNL     1       2.900  -9.562  -0.404  0.00  0.00    +0.002 C 
BRANCH  19  20
ATOM     20  C   UNL     1       2.430 -10.791   0.376  0.00  0.00    +0.011 C 
BRANCH  20  21
ATOM     21  C   UNL     1       3.614 -11.398   1.132  0.00  0.00    +0.125 C 
BRANCH  21  22
ATOM     22  C   UNL     1       3.151 -12.609   1.901  0.00  0.00    +0.356 C 
ATOM     23  O   UNL     1       1.983 -12.954   1.849  0.00  0.00    -0.246 OA
ATOM     24  O   UNL     1       3.945 -13.243   2.575  0.00  0.00    -0.246 OA
ENDBRANCH  21  22
ENDBRANCH  20  21
ENDBRANCH  19  20
ENDBRANCH  18  19
ENDBRANCH  17  18
ENDBRANCH  13  17
ENDBRANCH   3   9
BRANCH   2  25
ATOM     25  N   UNL     1      -1.032  -2.041  -1.886  0.00  0.00    -0.316 N 
ATOM     26  C   UNL     1      -2.055  -1.190  -2.509  0.00  0.00    +0.106 C 
ATOM     27  C   UNL     1      -2.070  -1.460  -4.017  0.00  0.00    +0.019 C 
ATOM     28  C   UNL     1      -0.660  -1.263  -4.580  0.00  0.00    +0.006 C 
ATOM     29  C   UNL     1       0.298  -2.258  -3.921  0.00  0.00    +0.003 C 
ATOM     30  C   UNL     1       0.340  -1.993  -2.408  0.00  0.00    +0.109 C 
ATOM     31  C   UNL     1       1.699  -2.083  -4.508  0.00  0.00    +0.009 C 
ENDBRANCH   2  25
BRANCH   5  32
ATOM     32  C   UNL     1      -2.321  -5.330   2.414  0.00  0.00    +0.105 C 
ATOM     33  N   UNL     1      -2.581  -5.983   3.306  0.00  0.00    -0.191 NA
ENDBRANCH   5  32
BRANCH   1  34
ATOM     34  C   UNL     1      -0.993  -0.958   0.647  0.00  0.00    +0.126 C 
BRANCH  34  36
ATOM     35  C   UNL     1       0.863   0.617   1.210  0.00  0.00    +0.005 C 
ATOM     36  C   UNL     1       0.497  -0.850   0.978  0.00  0.00    +0.018 C 
ENDBRANCH  34  36
ENDBRANCH   1  34
TORSDOF 11
