REMARK  Name = ZINC14161520
REMARK  8 active torsions:
REMARK  status: ('A' for Active; 'I' for Inactive)
REMARK    1  A    between atoms: C_1  and  C_2
REMARK    2  A    between atoms: C_2  and  C_4
REMARK    3  A    between atoms: C_2  and  N_14
REMARK    4  A    between atoms: C_7  and  S_10
REMARK    5  A    between atoms: S_10  and  N_13
REMARK    6  A    between atoms: C_15  and  C_17
REMARK    7  A    between atoms: C_17  and  N_58
REMARK    8  A    between atoms: C_21  and  C_23
REMARK                            x       y       z     vdW  Elec       q    Type
REMARK                         _______ _______ _______ _____ _____    ______ ____
ROOT
ATOM      1  N   UNL     1       4.792   3.714  -4.287  0.00  0.00    -0.310 N 
ATOM      2  C   UNL     1       4.601   3.316  -3.013  0.00  0.00    +0.197 C 
ATOM      3  O   UNL     1       5.373   2.533  -2.500  0.00  0.00    -0.278 OA
ATOM      4  H   UNL     1       4.175   4.340  -4.697  0.00  0.00    +0.149 HD
ENDROOT
BRANCH   1   6
ATOM      5  C   UNL     1       7.168   4.051  -4.755  0.00  0.00    +0.033 C 
ATOM      6  C   UNL     1       5.931   3.201  -5.051  0.00  0.00    +0.100 C 
BRANCH   6   7
ATOM      7  C   UNL     1       5.618   3.266  -6.524  0.00  0.00    -0.027 A 
ATOM      8  C   UNL     1       4.943   4.356  -7.039  0.00  0.00    +0.007 A 
ATOM      9  C   UNL     1       4.660   4.418  -8.391  0.00  0.00    +0.029 A 
ATOM     10  C   UNL     1       5.042   3.385  -9.225  0.00  0.00    +0.105 A 
ATOM     11  C   UNL     1       5.713   2.292  -8.709  0.00  0.00    +0.029 A 
ATOM     12  C   UNL     1       6.000   2.232  -7.358  0.00  0.00    +0.007 A 
BRANCH  10  13
ATOM     13  S   UNL     1       4.675   3.460 -10.947  0.00  0.00    +0.056 S 
ATOM     14  O   UNL     1       4.524   4.836 -11.270  0.00  0.00    -0.153 OA
ATOM     15  O   UNL     1       5.619   2.623 -11.601  0.00  0.00    -0.153 OA
BRANCH  13  16
ATOM     16  N   UNL     1       3.191   2.758 -11.162  0.00  0.00    -0.204 NA
ATOM     17  H   UNL     1       2.615   3.054 -11.884  0.00  0.00    +0.144 HD
ATOM     18  H   UNL     1       2.898   2.051 -10.566  0.00  0.00    +0.144 HD
ENDBRANCH  13  16
ENDBRANCH  10  13
ENDBRANCH   6   7
ENDBRANCH   1   6
BRANCH   2  19
ATOM     19  C   UNL     1       3.429   3.844  -2.226  0.00  0.00    +0.019 C 
BRANCH  19  24
ATOM     20  C   UNL     1       4.778   3.389  -0.262  0.00  0.00    -0.077 C 
ATOM     21  C   UNL     1       4.599   4.151   1.068  0.00  0.00    -0.020 C 
ATOM     22  C   UNL     1       3.101   3.918   1.407  0.00  0.00    -0.013 C 
ATOM     23  C   UNL     1       2.457   3.931  -0.002  0.00  0.00    -0.037 C 
ATOM     24  N   UNL     1       3.442   3.249  -0.864  0.00  0.00    +0.390 N 
ATOM     25  H   UNL     1       3.203   2.253  -0.931  0.00  0.00    -0.080 HD
BRANCH  23  26
ATOM     26  C   UNL     1       1.160   3.165   0.007  0.00  0.00    -0.057 A 
ATOM     27  C   UNL     1       1.175   1.782   0.000  0.00  0.00    +0.006 A 
ATOM     28  C   UNL     1      -0.013   1.076   0.008  0.00  0.00    +0.049 A 
ATOM     29  C   UNL     1      -1.223   1.752   0.017  0.00  0.00    +0.162 A 
ATOM     30  C   UNL     1      -1.239   3.142   0.033  0.00  0.00    +0.162 A 
ATOM     31  C   UNL     1      -0.043   3.845   0.024  0.00  0.00    +0.051 A 
ATOM     32  O   UNL     1      -2.416   3.825   0.057  0.00  0.00    -0.485 OA
ATOM     33  C   UNL     1      -3.590   3.095  -0.328  0.00  0.00    +0.270 C 
ATOM     34  C   UNL     1      -3.570   1.746   0.404  0.00  0.00    +0.270 C 
ATOM     35  O   UNL     1      -2.385   1.043   0.014  0.00  0.00    -0.485 OA
ENDBRANCH  23  26
ENDBRANCH  19  24
ENDBRANCH   2  19
TORSDOF 7
