REMARK  Name = ZINC39694101
REMARK  8 active torsions:
REMARK  status: ('A' for Active; 'I' for Inactive)
REMARK    1  A    between atoms: C_1  and  C_2
REMARK    2  A    between atoms: C_2  and  C_4
REMARK    3  A    between atoms: C_2  and  O_32
REMARK    4  A    between atoms: C_8  and  C_17
REMARK    5  A    between atoms: N_19  and  C_20
REMARK    6  A    between atoms: C_20  and  C_21
REMARK    7  A    between atoms: C_25  and  N_27
REMARK    8  A    between atoms: O_32  and  C_33
REMARK                            x       y       z     vdW  Elec       q    Type
REMARK                         _______ _______ _______ _____ _____    ______ ____
ROOT
ATOM      1  C   UNL     1       0.619  -0.372  -1.200  0.00  0.00    +0.256 C 
ATOM      2  O   UNL     1      -0.106  -0.808  -2.069  0.00  0.00    -0.272 OA
ATOM      3  N   UNL     1       1.895  -0.047  -1.487  0.00  0.00    -0.297 N 
ATOM      4  C   UNL     1       2.925   0.489  -0.567  0.00  0.00    +0.121 C 
ATOM      5  C   UNL     1       4.231  -0.224  -0.984  0.00  0.00    +0.100 C 
ATOM      6  C   UNL     1       4.002  -0.635  -2.448  0.00  0.00    -0.004 C 
ATOM      7  C   UNL     1       2.587  -0.150  -2.795  0.00  0.00    +0.115 C 
ATOM      8  C   UNL     1       5.029   0.039  -3.353  0.00  0.00    -0.010 C 
ATOM      9  C   UNL     1       4.818  -0.431  -4.795  0.00  0.00    -0.082 C 
ATOM     10  N   UNL     1       4.961  -1.890  -4.862  0.00  0.00    +0.379 N 
ATOM     11  C   UNL     1       3.911  -2.533  -4.063  0.00  0.00    -0.082 C 
ATOM     12  C   UNL     1       4.083  -2.152  -2.589  0.00  0.00    -0.010 C 
ATOM     13  H   UNL     1       4.882  -2.191  -5.822  0.00  0.00    -0.086 HD
ATOM     14  H   UNL     1       5.865  -2.156  -4.503  0.00  0.00    -0.086 HD
ENDROOT
BRANCH   5  15
ATOM     15  C   UNL     1       5.401   0.720  -0.878  0.00  0.00    +0.218 C 
ATOM     16  O   UNL     1       5.240   1.908  -1.058  0.00  0.00    -0.275 OA
ATOM     17  N   UNL     1       6.627   0.243  -0.584  0.00  0.00    -0.311 N 
ATOM     18  H   UNL     1       6.756  -0.708  -0.440  0.00  0.00    +0.149 HD
BRANCH  17  19
ATOM     19  C   UNL     1       7.764   1.160  -0.481  0.00  0.00    +0.139 C 
BRANCH  19  20
ATOM     20  C   UNL     1       9.010   0.381  -0.145  0.00  0.00    -0.028 A 
ATOM     21  C   UNL     1       9.354   0.165   1.177  0.00  0.00    +0.005 A 
ATOM     22  C   UNL     1      10.495  -0.550   1.489  0.00  0.00    +0.002 A 
ATOM     23  C   UNL     1      11.296  -1.051   0.480  0.00  0.00    +0.026 A 
ATOM     24  C   UNL     1      10.953  -0.836  -0.847  0.00  0.00    +0.046 A 
ATOM     25  C   UNL     1       9.803  -0.122  -1.158  0.00  0.00    +0.031 A 
BRANCH  24  26
ATOM     26  N   UNL     1      11.763  -1.342  -1.873  0.00  0.00    -0.323 N 
ATOM     27  C   UNL     1      11.539  -1.194  -3.212  0.00  0.00    +0.091 A 
ATOM     28  C   UNL     1      12.533  -1.817  -3.877  0.00  0.00    +0.019 A 
ATOM     29  C   UNL     1      13.403  -2.370  -2.916  0.00  0.00    +0.019 A 
ATOM     30  C   UNL     1      12.912  -2.060  -1.699  0.00  0.00    +0.091 A 
ENDBRANCH  24  26
ENDBRANCH  19  20
ENDBRANCH  17  19
ENDBRANCH   5  15
BRANCH   1  32
ATOM     31  C   UNL     1       0.083   1.294   0.557  0.00  0.00    +0.062 C 
ATOM     32  C   UNL     1       0.093  -0.194   0.201  0.00  0.00    +0.256 C 
BRANCH  32  33
ATOM     33  O   UNL     1      -1.236  -0.712   0.280  0.00  0.00    -0.480 OA
BRANCH  33  34
ATOM     34  C   UNL     1      -1.668  -1.117   1.503  0.00  0.00    +0.122 A 
ATOM     35  C   UNL     1      -2.903  -1.735   1.634  0.00  0.00    +0.045 A 
ATOM     36  C   UNL     1      -3.340  -2.147   2.879  0.00  0.00    +0.004 A 
ATOM     37  C   UNL     1      -2.548  -1.942   3.993  0.00  0.00    +0.000 A 
ATOM     38  C   UNL     1      -1.317  -1.326   3.865  0.00  0.00    +0.004 A 
ATOM     39  C   UNL     1      -0.873  -0.919   2.623  0.00  0.00    +0.045 A 
ENDBRANCH  33  34
ENDBRANCH  32  33
ENDBRANCH   1  32
TORSDOF 7
