REMARK  Name = ZINC63627878
REMARK  5 active torsions:
REMARK  status: ('A' for Active; 'I' for Inactive)
REMARK    1  A    between atoms: C_1  and  O_2
REMARK    2  A    between atoms: O_2  and  C_3
REMARK    3  A    between atoms: C_8  and  C_13
REMARK    4  A    between atoms: N_15  and  C_16
REMARK    5  A    between atoms: C_19  and  C_22
REMARK                            x       y       z     vdW  Elec       q    Type
REMARK                         _______ _______ _______ _____ _____    ______ ____
ROOT
ATOM      1  C   UNL     1       2.614  -3.992  -6.395  0.00  0.00    +0.244 C 
ATOM      2  O   UNL     1       2.701  -3.718  -7.574  0.00  0.00    -0.273 OA
ATOM      3  N   UNL     1       1.757  -4.949  -5.987  0.00  0.00    -0.284 N 
ATOM      4  H   UNL     1       1.735  -5.215  -5.055  0.00  0.00    +0.155 HD
ENDROOT
BRANCH   1  10
ATOM      5  C   UNL     1       7.998  -2.593  -5.807  0.00  0.00    +0.122 A 
ATOM      6  C   UNL     1       8.066  -3.732  -4.982  0.00  0.00    +0.046 A 
ATOM      7  C   UNL     1       6.951  -4.357  -4.546  0.00  0.00    +0.013 A 
ATOM      8  C   UNL     1       5.637  -3.834  -4.943  0.00  0.00    -0.003 A 
ATOM      9  C   UNL     1       4.375  -4.233  -4.672  0.00  0.00    +0.016 C 
ATOM     10  C   UNL     1       3.463  -3.261  -5.387  0.00  0.00    +0.190 C 
ATOM     11  N   UNL     1       4.346  -2.306  -6.065  0.00  0.00    -0.370 N 
ATOM     12  C   UNL     1       5.592  -2.634  -5.810  0.00  0.00    +0.047 A 
ATOM     13  C   UNL     1       6.820  -2.051  -6.209  0.00  0.00    +0.071 A 
ATOM     14  H   UNL     1       4.058  -1.557  -6.610  0.00  0.00    +0.161 HD
BRANCH   5  16
ATOM     15  C   UNL     1      10.373  -2.611  -5.767  0.00  0.00    +0.277 C 
ATOM     16  O   UNL     1       9.155  -2.011  -6.211  0.00  0.00    -0.495 OA
ENDBRANCH   5  16
ENDBRANCH   1  10
BRANCH   3  17
ATOM     17  C   UNL     1       0.900  -5.559  -6.909  0.00  0.00    +0.033 A 
ATOM     18  C   UNL     1      -0.381  -5.935  -6.525  0.00  0.00    +0.023 A 
ATOM     19  C   UNL     1      -1.225  -6.537  -7.438  0.00  0.00    +0.008 A 
ATOM     20  C   UNL     1      -0.796  -6.767  -8.732  0.00  0.00    -0.021 A 
ATOM     21  C   UNL     1       0.479  -6.395  -9.117  0.00  0.00    +0.008 A 
ATOM     22  C   UNL     1       1.326  -5.786  -8.211  0.00  0.00    +0.023 A 
BRANCH  20  23
ATOM     23  C   UNL     1      -1.720  -7.424  -9.725  0.00  0.00    +0.133 C 
ATOM     24  C   UNL     1      -2.300  -6.388 -10.662  0.00  0.00    +0.012 C 
ATOM     25  C   UNL     1      -1.895  -6.738 -11.904  0.00  0.00    -0.004 A 
ATOM     26  C   UNL     1      -2.123  -6.145 -13.227  0.00  0.00    +0.010 A 
ATOM     27  C   UNL     1      -1.575  -6.736 -14.314  0.00  0.00    +0.001 A 
ATOM     28  C   UNL     1      -0.797  -7.897 -14.207  0.00  0.00    +0.002 A 
ATOM     29  C   UNL     1      -0.544  -8.500 -13.027  0.00  0.00    +0.026 A 
ATOM     30  C   UNL     1      -1.070  -7.964 -11.819  0.00  0.00    +0.043 A 
ATOM     31  N   UNL     1      -0.970  -8.359 -10.571  0.00  0.00    -0.374 N 
ATOM     32  H   UNL     1      -0.481  -9.137 -10.260  0.00  0.00    +0.161 HD
ENDBRANCH  20  23
ENDBRANCH   3  17
TORSDOF 4
