REMARK  Name = ZINC15585952
REMARK  7 active torsions:
REMARK  status: ('A' for Active; 'I' for Inactive)
REMARK    1  A    between atoms: C_1  and  C_2
REMARK    2  A    between atoms: C_7  and  C_8
REMARK    3  A    between atoms: N_10  and  C_11
REMARK    4  A    between atoms: C_11  and  C_12
REMARK    5  A    between atoms: C_12  and  C_13
REMARK    6  A    between atoms: C_13  and  N_15
REMARK    7  A    between atoms: N_17  and  C_25
REMARK                            x       y       z     vdW  Elec       q    Type
REMARK                         _______ _______ _______ _____ _____    ______ ____
ROOT
ATOM      1  C   UNL     1       5.918   3.349  -0.971  0.00  0.00    +0.116 C 
ENDROOT
BRANCH   1   2
ATOM      2  C   UNL     1       7.149   4.184  -1.218  0.00  0.00    +0.240 C 
ATOM      3  O   UNL     1       7.059   5.394  -1.285  0.00  0.00    -0.274 OA
BRANCH   2   4
ATOM      4  N   UNL     1       8.332   3.596  -1.362  0.00  0.00    -0.156 NA
ATOM      5  C   UNL     1       9.419   4.333  -1.581  0.00  0.00    +0.166 A 
ATOM      6  N   UNL     1      10.700   3.915  -1.752  0.00  0.00    -0.324 N 
ATOM      7  C   UNL     1      11.707   4.837  -1.971  0.00  0.00    +0.057 A 
ATOM      8  C   UNL     1      13.077   4.600  -2.169  0.00  0.00    +0.027 A 
ATOM      9  C   UNL     1      13.948   5.643  -2.376  0.00  0.00    +0.002 A 
ATOM     10  C   UNL     1      13.505   6.955  -2.395  0.00  0.00    +0.001 A 
ATOM     11  C   UNL     1      12.160   7.217  -2.202  0.00  0.00    +0.017 A 
ATOM     12  C   UNL     1      11.288   6.175  -1.996  0.00  0.00    +0.039 A 
ATOM     13  S   UNL     1       9.538   6.058  -1.722  0.00  0.00    -0.052 S 
ATOM     14  C   UNL     1      11.015   2.485  -1.705  0.00  0.00    +0.151 C 
ENDBRANCH   2   4
ENDBRANCH   1   2
BRANCH   1  15
ATOM     15  C   UNL     1       4.699   4.264  -0.842  0.00  0.00    +0.114 C 
BRANCH  15  18
ATOM     16  C   UNL     1       2.303   4.048  -0.455  0.00  0.00    +0.244 C 
ATOM     17  O   UNL     1       2.213   5.259  -0.522  0.00  0.00    -0.270 OA
ATOM     18  N   UNL     1       3.503   3.453  -0.602  0.00  0.00    -0.311 N 
ATOM     19  H   UNL     1       3.575   2.487  -0.549  0.00  0.00    +0.149 HD
BRANCH  16  26
ATOM     20  C   UNL     1      -0.215   5.349   0.128  0.00  0.00    +0.044 C 
ATOM     21  C   UNL     1      -0.124   3.846   0.069  0.00  0.00    -0.038 A 
ATOM     22  C   UNL     1      -1.246   3.076   0.295  0.00  0.00    +0.004 A 
ATOM     23  C   UNL     1      -1.166   1.697   0.236  0.00  0.00    +0.000 A 
ATOM     24  C   UNL     1       0.042   1.079  -0.037  0.00  0.00    +0.001 A 
ATOM     25  C   UNL     1       1.172   1.837  -0.265  0.00  0.00    +0.013 A 
ATOM     26  C   UNL     1       1.096   3.230  -0.213  0.00  0.00    +0.040 A 
ENDBRANCH  16  26
ENDBRANCH  15  18
ENDBRANCH   1  15
TORSDOF 5
