REMARK  Name = ZINC23371625
REMARK  8 active torsions:
REMARK  status: ('A' for Active; 'I' for Inactive)
REMARK    1  A    between atoms: C_1  and  C_2
REMARK    2  A    between atoms: C_5  and  C_38
REMARK    3  A    between atoms: C_10  and  C_12
REMARK    4  A    between atoms: C_12  and  N_13
REMARK    5  A    between atoms: N_16  and  C_19
REMARK    6  A    between atoms: C_19  and  C_21
REMARK    7  A    between atoms: C_19  and  C_22
REMARK    8  A    between atoms: N_27  and  C_28
REMARK                            x       y       z     vdW  Elec       q    Type
REMARK                         _______ _______ _______ _____ _____    ______ ____
ROOT
ATOM      1  C   UNL     1      -9.035   1.447   1.839  0.00  0.00    +0.140 C 
ATOM      2  C   UNL     1      -9.363  -0.022   1.567  0.00  0.00    +0.034 C 
ENDROOT
BRANCH   1   3
ATOM      3  C   UNL     1      -9.711   2.312   0.806  0.00  0.00    +0.237 C 
ATOM      4  O   UNL     1     -10.678   2.977   1.111  0.00  0.00    -0.274 OA
ATOM      5  N   UNL     1      -9.240   2.346  -0.457  0.00  0.00    -0.239 N 
ATOM      6  C   UNL     1      -9.845   3.119  -1.380  0.00  0.00    +0.306 C 
ATOM      7  O   UNL     1     -10.814   3.786  -1.075  0.00  0.00    -0.252 OA
ATOM      8  N   UNL     1      -9.374   3.154  -2.643  0.00  0.00    -0.294 N 
ATOM      9  H   UNL     1      -8.363   1.743  -0.733  0.00  0.00    +0.159 HD
ATOM     10  H   UNL     1      -8.497   2.550  -2.919  0.00  0.00    +0.151 HD
BRANCH   8  11
ATOM     11  C   UNL     1     -10.031   3.994  -3.647  0.00  0.00    +0.037 C 
ATOM     12  C   UNL     1      -9.305   3.851  -4.986  0.00  0.00    +0.029 C 
ATOM     13  C   UNL     1      -9.991   4.729  -6.034  0.00  0.00    -0.008 C 
ATOM     14  C   UNL     1      -9.947   6.191  -5.584  0.00  0.00    +0.007 C 
ATOM     15  C   UNL     1     -10.673   6.333  -4.245  0.00  0.00    -0.008 C 
ATOM     16  C   UNL     1      -9.987   5.456  -3.196  0.00  0.00    +0.029 C 
ATOM     17  C   UNL     1     -12.130   5.893  -4.405  0.00  0.00    +0.007 C 
ATOM     18  C   UNL     1     -12.174   4.431  -4.855  0.00  0.00    -0.008 C 
ATOM     19  C   UNL     1     -11.447   4.288  -6.194  0.00  0.00    +0.007 C 
ATOM     20  C   UNL     1     -11.488   3.554  -3.807  0.00  0.00    +0.029 C 
ENDBRANCH   8  11
ENDBRANCH   1   3
BRANCH   1  24
ATOM     21  N   UNL     1     -10.505   1.304   5.796  0.00  0.00    +0.387 N 
ATOM     22  C   UNL     1     -11.389   1.841   4.753  0.00  0.00    -0.063 C 
ATOM     23  C   UNL     1     -10.900   1.369   3.381  0.00  0.00    +0.066 C 
ATOM     24  N   UNL     1      -9.516   1.817   3.177  0.00  0.00    -0.295 NA
ATOM     25  C   UNL     1      -8.632   1.279   4.221  0.00  0.00    +0.066 C 
ATOM     26  C   UNL     1      -9.121   1.751   5.592  0.00  0.00    -0.063 C 
ATOM     27  H   UNL     1     -10.522   0.206   5.724  0.00  0.00    -0.081 HD
BRANCH  21  28
ATOM     28  C   UNL     1     -10.986   1.673   7.135  0.00  0.00    +0.019 C 
BRANCH  28  36
ATOM     29  C   UNL     1     -13.794   4.107   8.493  0.00  0.00    +0.009 C 
ATOM     30  C   UNL     1     -13.544   3.300   9.768  0.00  0.00    +0.004 C 
ATOM     31  C   UNL     1     -14.840   2.610  10.199  0.00  0.00    +0.009 C 
ATOM     32  C   UNL     1     -15.332   1.698   9.073  0.00  0.00    +0.004 C 
ATOM     33  C   UNL     1     -14.280   0.620   8.797  0.00  0.00    +0.111 C 
ATOM     34  N   UNL     1     -12.993   1.274   8.524  0.00  0.00    -0.303 N 
ATOM     35  C   UNL     1     -12.468   2.236   9.503  0.00  0.00    +0.111 C 
ATOM     36  C   UNL     1     -12.304   0.993   7.400  0.00  0.00    +0.199 C 
ATOM     37  O   UNL     1     -12.746   0.194   6.603  0.00  0.00    -0.278 OA
ATOM     38  C   UNL     1     -16.646   1.034   9.491  0.00  0.00    +0.009 C 
ENDBRANCH  28  36
ENDBRANCH  21  28
ENDBRANCH   1  24
TORSDOF 5
