REMARK  Name = ZINC12497829
REMARK  8 active torsions:
REMARK  status: ('A' for Active; 'I' for Inactive)
REMARK    1  A    between atoms: C_1  and  C_2
REMARK    2  A    between atoms: C_2  and  C_4
REMARK    3  A    between atoms: C_2  and  O_22
REMARK    4  A    between atoms: N_6  and  C_7
REMARK    5  A    between atoms: C_7  and  N_9
REMARK    6  A    between atoms: N_9  and  C_10
REMARK    7  A    between atoms: C_11  and  C_19
REMARK    8  A    between atoms: O_22  and  C_23
REMARK                            x       y       z     vdW  Elec       q    Type
REMARK                         _______ _______ _______ _____ _____    ______ ____
ROOT
ATOM      1  C   UNL     1       3.330  -5.823  -1.934  0.00  0.00    +0.141 C 
ATOM      2  S   UNL     1       1.797  -6.288  -2.537  0.00  0.00    -0.018 S 
ENDROOT
BRANCH   1   5
ATOM      3  C   UNL     1       2.373  -3.931  -0.959  0.00  0.00    +0.259 C 
ATOM      4  O   UNL     1       1.287  -4.260  -1.386  0.00  0.00    -0.271 OA
ATOM      5  N   UNL     1       3.455  -4.694  -1.209  0.00  0.00    -0.265 N 
ATOM      6  H   UNL     1       4.324  -4.430  -0.867  0.00  0.00    +0.157 HD
BRANCH   3   8
ATOM      7  C   UNL     1       3.052  -3.011   1.242  0.00  0.00    +0.062 C 
ATOM      8  C   UNL     1       2.512  -2.668  -0.148  0.00  0.00    +0.256 C 
BRANCH   8   9
ATOM      9  O   UNL     1       1.235  -2.040  -0.021  0.00  0.00    -0.478 OA
BRANCH   9  10
ATOM     10  C   UNL     1       1.226  -0.698   0.200  0.00  0.00    +0.140 A 
ATOM     11  C   UNL     1       2.419  -0.021   0.405  0.00  0.00    +0.048 A 
ATOM     12  C   UNL     1       2.408   1.343   0.629  0.00  0.00    +0.023 A 
ATOM     13  C   UNL     1       1.209   2.033   0.650  0.00  0.00    +0.043 A 
ATOM     14  C   UNL     1       0.018   1.359   0.446  0.00  0.00    +0.043 A 
ATOM     15  C   UNL     1       0.024  -0.005   0.221  0.00  0.00    +0.084 A 
ATOM     16 CL   UNL     1      -1.470  -0.850  -0.036  0.00  0.00    -0.080 Cl
ATOM     17 CL   UNL     1       1.199   3.745   0.931  0.00  0.00    -0.083 Cl
ENDBRANCH   9  10
ENDBRANCH   8   9
ENDBRANCH   3   8
ENDBRANCH   1   5
BRANCH   1  18
ATOM     18  N   UNL     1       4.413  -6.586  -2.184  0.00  0.00    -0.291 N 
ATOM     19  H   UNL     1       5.282  -6.323  -1.842  0.00  0.00    +0.154 HD
BRANCH  18  20
ATOM     20  C   UNL     1       4.285  -7.747  -2.929  0.00  0.00    +0.084 A 
ATOM     21  C   UNL     1       5.272  -8.652  -3.293  0.00  0.00    +0.068 A 
ATOM     22  C   UNL     1       4.870  -9.803  -4.084  0.00  0.00    -0.023 A 
ATOM     23  C   UNL     1       3.556  -9.860  -4.389  0.00  0.00    -0.004 A 
ATOM     24  S   UNL     1       2.854  -8.418  -3.640  0.00  0.00    -0.077 S 
ATOM     25  C   UNL     1       2.859 -10.917  -5.189  0.00  0.00    +0.043 C 
ATOM     26  C   UNL     1       3.922 -11.740  -5.933  0.00  0.00    +0.005 C 
ATOM     27  C   UNL     1       5.027 -12.126  -4.945  0.00  0.00    +0.005 C 
ATOM     28  C   UNL     1       5.833 -10.886  -4.556  0.00  0.00    +0.037 C 
BRANCH  21  29
ATOM     29  C   UNL     1       6.668  -8.456  -2.892  0.00  0.00    +0.244 C 
ATOM     30  O   UNL     1       7.072  -8.922  -1.843  0.00  0.00    -0.270 OA
ATOM     31  N   UNL     1       7.505  -7.758  -3.686  0.00  0.00    -0.325 N 
ATOM     32  H   UNL     1       7.184  -7.386  -4.522  0.00  0.00    +0.145 HD
ATOM     33  H   UNL     1       8.429  -7.628  -3.420  0.00  0.00    +0.145 HD
ENDBRANCH  21  29
ENDBRANCH  18  20
ENDBRANCH   1  18
TORSDOF 7
