REMARK  Name = ZINC01913309
REMARK  11 active torsions:
REMARK  status: ('A' for Active; 'I' for Inactive)
REMARK    1  A    between atoms: C_1  and  C_2
REMARK    2  A    between atoms: C_2  and  N_59
REMARK    3  A    between atoms: C_3  and  C_4
REMARK    4  A    between atoms: C_3  and  N_59
REMARK    5  A    between atoms: C_10  and  C_11
REMARK    6  A    between atoms: C_10  and  N_59
REMARK    7  A    between atoms: C_12  and  O_34
REMARK    8  A    between atoms: C_18  and  C_30
REMARK    9  A    between atoms: C_19  and  O_22
REMARK   10  A    between atoms: O_22  and  C_23
REMARK   11  A    between atoms: C_26  and  C_29
REMARK                            x       y       z     vdW  Elec       q    Type
REMARK                         _______ _______ _______ _____ _____    ______ ____
ROOT
ATOM      1  C   UNL     1      -1.060   7.438  -0.164  0.00  0.00    +0.020 A 
ATOM      2  C   UNL     1      -1.031   8.143   1.028  0.00  0.00    +0.122 A 
ATOM      3  C   UNL     1      -1.079   7.474   2.249  0.00  0.00    +0.046 A 
ATOM      4  C   UNL     1      -1.156   6.111   2.287  0.00  0.00    +0.019 A 
ATOM      5  C   UNL     1      -1.186   5.386   1.095  0.00  0.00    +0.068 A 
ATOM      6  C   UNL     1      -1.138   6.053  -0.142  0.00  0.00    +0.144 A 
ATOM      7  O   UNL     1      -1.168   5.342  -1.287  0.00  0.00    -0.447 OA
ATOM      8  C   UNL     1      -1.243   4.004  -1.300  0.00  0.00    +0.254 A 
ATOM      9  C   UNL     1      -1.294   3.266  -0.173  0.00  0.00    +0.222 A 
ATOM     10  C   UNL     1      -1.274   3.916   1.093  0.00  0.00    +0.235 A 
ATOM     11  O   UNL     1      -1.323   3.281   2.134  0.00  0.00    -0.283 OA
ENDROOT
BRANCH   8  12
ATOM     12  C   UNL     1      -1.272   3.296  -2.630  0.00  0.00    +0.454 C 
ATOM     13  F   UNL     1      -2.597   3.150  -3.052  0.00  0.00    -0.163 F 
ATOM     14  F   UNL     1      -0.561   4.046  -3.573  0.00  0.00    -0.163 F 
ATOM     15  F   UNL     1      -0.683   2.034  -2.498  0.00  0.00    -0.163 F 
ENDBRANCH   8  12
BRANCH   2  16
ATOM     16  O   UNL     1      -0.955   9.498   1.006  0.00  0.00    -0.506 OA
ATOM     17  H   UNL     1      -1.811   9.942   1.078  0.00  0.00    +0.292 HD
ENDBRANCH   2  16
BRANCH   1  18
ATOM     18  C   UNL     1      -1.008   8.172  -1.479  0.00  0.00    -0.035 C 
BRANCH  18  19
ATOM     19  N   UNL     1      -2.385   8.310  -1.999  0.00  0.00    +0.385 N 
ATOM     20  H   UNL     1      -2.886   7.425  -1.854  0.00  0.00    -0.081 HD
BRANCH  19  22
ATOM     21  C   UNL     1      -2.422  10.738  -1.535  0.00  0.00    -0.017 C 
ATOM     22  C   UNL     1      -3.093   9.387  -1.276  0.00  0.00    -0.081 C 
ENDBRANCH  19  22
BRANCH  19  23
ATOM     23  C   UNL     1      -2.350   8.611  -3.446  0.00  0.00    -0.043 C 
BRANCH  23  24
ATOM     24  C   UNL     1      -3.725   8.386  -4.020  0.00  0.00    -0.064 A 
ATOM     25  C   UNL     1      -4.121   7.114  -4.389  0.00  0.00    +0.002 A 
ATOM     26  C   UNL     1      -5.385   6.908  -4.911  0.00  0.00    +0.000 A 
ATOM     27  C   UNL     1      -6.248   7.975  -5.074  0.00  0.00    +0.000 A 
ATOM     28  C   UNL     1      -5.850   9.248  -4.711  0.00  0.00    +0.000 A 
ATOM     29  C   UNL     1      -4.588   9.453  -4.184  0.00  0.00    +0.002 A 
ENDBRANCH  23  24
ENDBRANCH  19  23
ENDBRANCH  18  19
ENDBRANCH   1  18
BRANCH   9  30
ATOM     30  O   UNL     1      -1.370   1.909  -0.247  0.00  0.00    -0.448 OA
BRANCH  30  31
ATOM     31  C   UNL     1      -0.207   1.206  -0.271  0.00  0.00    +0.129 A 
ATOM     32  C   UNL     1       1.009   1.872  -0.228  0.00  0.00    +0.046 A 
ATOM     33  C   UNL     1       2.189   1.155  -0.259  0.00  0.00    +0.007 A 
ATOM     34  C   UNL     1       2.159  -0.226  -0.332  0.00  0.00    -0.050 A 
ATOM     35  C   UNL     1       0.948  -0.892  -0.375  0.00  0.00    +0.007 A 
ATOM     36  C   UNL     1      -0.235  -0.180  -0.345  0.00  0.00    +0.046 A 
ATOM     37  C   UNL     1       3.448  -1.006  -0.365  0.00  0.00    +0.044 C 
ENDBRANCH  30  31
ENDBRANCH   9  30
TORSDOF 9
