REMARK  Name = ZINC39623472
REMARK  12 active torsions:
REMARK  status: ('A' for Active; 'I' for Inactive)
REMARK    1  A    between atoms: C_1  and  C_2
REMARK    2  A    between atoms: C_2  and  C_3
REMARK    3  A    between atoms: C_3  and  C_4
REMARK    4  A    between atoms: C_4  and  C_5
REMARK    5  A    between atoms: C_5  and  N_6
REMARK    6  A    between atoms: C_7  and  C_9
REMARK    7  A    between atoms: C_20  and  C_22
REMARK    8  A    between atoms: C_24  and  C_31
REMARK    9  A    between atoms: N_26  and  C_27
REMARK   10  A    between atoms: C_27  and  C_28
REMARK   11  A    between atoms: C_27  and  C_29
REMARK   12  A    between atoms: C_27  and  C_30
REMARK                            x       y       z     vdW  Elec       q    Type
REMARK                         _______ _______ _______ _____ _____    ______ ____
ROOT
ATOM      1  C   UNL     1      -4.000  -6.549   0.284  0.00  0.00    +0.100 C 
ATOM      2  C   UNL     1      -3.138  -6.869  -0.958  0.00  0.00    +0.121 C 
ATOM      3  N   UNL     1      -3.808  -8.029  -1.590  0.00  0.00    -0.295 N 
ATOM      4  C   UNL     1      -5.256  -7.742  -1.447  0.00  0.00    +0.115 C 
ATOM      5  C   UNL     1      -5.389  -7.123  -0.041  0.00  0.00    -0.004 C 
ATOM      6  C   UNL     1      -5.768  -8.197   0.974  0.00  0.00    -0.010 C 
ATOM      7  C   UNL     1      -7.176  -8.713   0.663  0.00  0.00    -0.082 C 
ATOM      8  N   UNL     1      -8.130  -7.599   0.720  0.00  0.00    +0.379 N 
ATOM      9  C   UNL     1      -7.814  -6.614  -0.321  0.00  0.00    -0.082 C 
ATOM     10  C   UNL     1      -6.433  -6.010  -0.052  0.00  0.00    -0.010 C 
ATOM     11  C   UNL     1      -3.232  -9.103  -2.166  0.00  0.00    +0.265 C 
ATOM     12  O   UNL     1      -3.925  -9.985  -2.638  0.00  0.00    -0.268 OA
ATOM     13  H   UNL     1      -9.065  -7.951   0.575  0.00  0.00    -0.086 HD
ATOM     14  H   UNL     1      -8.077  -7.157   1.626  0.00  0.00    -0.086 HD
ENDROOT
BRANCH  11  15
ATOM     15  C   UNL     1      -1.766  -9.208  -2.224  0.00  0.00    +0.124 A 
ATOM     16  C   UNL     1      -0.849  -8.213  -1.932  0.00  0.00    +0.057 A 
ATOM     17  C   UNL     1       0.405  -8.794  -2.134  0.00  0.00    +0.061 A 
ATOM     18  N   UNL     1       0.217 -10.032  -2.514  0.00  0.00    -0.175 NA
ATOM     19  N   UNL     1      -1.036 -10.309  -2.572  0.00  0.00    -0.254 N 
ATOM     20  C   UNL     1       1.738  -8.116  -1.947  0.00  0.00    +0.067 C 
BRANCH  19  21
ATOM     21  C   UNL     1      -1.597 -11.607  -2.957  0.00  0.00    +0.056 C 
ATOM     22  C   UNL     1      -2.399 -11.453  -4.250  0.00  0.00    +0.036 C 
ATOM     23  C   UNL     1      -0.461 -12.608  -3.177  0.00  0.00    +0.036 C 
ATOM     24  C   UNL     1      -2.516 -12.115  -1.844  0.00  0.00    +0.036 C 
ENDBRANCH  19  21
ENDBRANCH  11  15
BRANCH   1  26
ATOM     25  N   UNL     1      -4.218  -4.561   1.740  0.00  0.00    -0.315 N 
ATOM     26  C   UNL     1      -4.085  -5.059   0.495  0.00  0.00    +0.218 C 
ATOM     27  O   UNL     1      -4.033  -4.308  -0.456  0.00  0.00    -0.275 OA
ATOM     28  H   UNL     1      -4.333  -5.162   2.493  0.00  0.00    +0.149 HD
BRANCH  25  29
ATOM     29  C   UNL     1      -4.190  -3.113   1.957  0.00  0.00    +0.104 C 
BRANCH  29  30
ATOM     30  C   UNL     1      -4.361  -2.817   3.448  0.00  0.00    +0.019 C 
BRANCH  30  31
ATOM     31  C   UNL     1      -4.331  -1.304   3.675  0.00  0.00    +0.001 C 
BRANCH  31  33
ATOM     32  C   UNL     1      -4.473   0.505   5.392  0.00  0.00    +0.004 C 
ATOM     33  C   UNL     1      -4.502  -1.008   5.166  0.00  0.00    -0.003 C 
ENDBRANCH  31  33
ENDBRANCH  30  31
ENDBRANCH  29  30
ENDBRANCH  25  29
ENDBRANCH   1  26
TORSDOF 7
