REMARK  Name = ZINC35545460
REMARK  8 active torsions:
REMARK  status: ('A' for Active; 'I' for Inactive)
REMARK    1  A    between atoms: C_1  and  C_2
REMARK    2  A    between atoms: C_2  and  O_3
REMARK    3  A    between atoms: O_3  and  C_4
REMARK    4  A    between atoms: C_4  and  C_6
REMARK    5  A    between atoms: C_13  and  C_15
REMARK    6  A    between atoms: C_20  and  C_38
REMARK    7  A    between atoms: N_28  and  C_31
REMARK    8  A    between atoms: C_31  and  C_32
REMARK                            x       y       z     vdW  Elec       q    Type
REMARK                         _______ _______ _______ _____ _____    ______ ____
ROOT
ATOM      1  C   UNL     1       2.672  -5.988   5.425  0.00  0.00    +0.098 C 
ATOM      2  C   UNL     1       3.896  -6.617   4.760  0.00  0.00    +0.051 C 
ATOM      3  C   UNL     1       3.459  -7.764   3.887  0.00  0.00    -0.025 A 
ATOM      4  C   UNL     1       4.248  -8.135   2.813  0.00  0.00    +0.017 A 
ATOM      5  C   UNL     1       3.862  -9.181   1.997  0.00  0.00    +0.055 A 
ATOM      6  C   UNL     1       2.686  -9.862   2.251  0.00  0.00    +0.014 A 
ATOM      7  C   UNL     1       1.896  -9.498   3.323  0.00  0.00    +0.024 A 
ATOM      8  C   UNL     1       2.283  -8.446   4.147  0.00  0.00    +0.033 A 
ATOM      9  N   UNL     1       1.465  -8.108   5.237  0.00  0.00    -0.329 N 
ATOM     10  C   UNL     1       1.882  -7.071   6.168  0.00  0.00    +0.069 C 
ATOM     11  C   UNL     1       0.724  -6.418   6.906  0.00  0.00    -0.055 C 
ATOM     12  N   UNL     1      -0.311  -7.387   7.265  0.00  0.00    +0.385 N 
ATOM     13  C   UNL     1      -0.858  -7.977   6.035  0.00  0.00    -0.059 C 
ATOM     14  C   UNL     1       0.216  -8.857   5.401  0.00  0.00    +0.087 C 
ATOM     15  H   UNL     1       0.091  -8.113   7.839  0.00  0.00    -0.081 HD
ENDROOT
BRANCH   1  22
ATOM     16  C   UNL     1       0.787  -2.173   3.238  0.00  0.00    +0.115 C 
ATOM     17  C   UNL     1       1.969  -1.313   3.693  0.00  0.00    +0.018 C 
ATOM     18  C   UNL     1       2.653  -1.976   4.891  0.00  0.00    +0.020 C 
ATOM     19  C   UNL     1       3.187  -3.350   4.473  0.00  0.00    +0.108 C 
ATOM     20  N   UNL     1       2.083  -4.132   3.900  0.00  0.00    -0.300 N 
ATOM     21  C   UNL     1       1.299  -3.549   2.802  0.00  0.00    +0.122 C 
ATOM     22  C   UNL     1       1.795  -5.361   4.372  0.00  0.00    +0.221 C 
ATOM     23  O   UNL     1       0.830  -5.962   3.949  0.00  0.00    -0.275 OA
BRANCH  16  24
ATOM     24  C   UNL     1       0.095  -1.504   2.079  0.00  0.00    +0.312 C 
ATOM     25  O   UNL     1       0.017  -2.068   1.014  0.00  0.00    -0.250 OA
BRANCH  24  26
ATOM     26  O   UNL     1      -0.436  -0.280   2.231  0.00  0.00    -0.465 OA
BRANCH  26  28
ATOM     27  C   UNL     1      -1.617   1.680   1.453  0.00  0.00    +0.048 C 
ATOM     28  C   UNL     1      -1.078   0.295   1.091  0.00  0.00    +0.229 C 
ENDBRANCH  26  28
ENDBRANCH  24  26
ENDBRANCH  16  24
ENDBRANCH   1  22
BRANCH   5  29
ATOM     29  C   UNL     1       4.725  -9.581   0.827  0.00  0.00    +0.417 C 
ATOM     30  F   UNL     1       5.648 -10.549   1.238  0.00  0.00    -0.166 F 
ATOM     31  F   UNL     1       3.919 -10.106  -0.189  0.00  0.00    -0.166 F 
ATOM     32  F   UNL     1       5.409  -8.459   0.347  0.00  0.00    -0.166 F 
ENDBRANCH   5  29
BRANCH  12  33
ATOM     33  C   UNL     1      -1.383  -6.709   8.005  0.00  0.00    -0.043 C 
BRANCH  33  34
ATOM     34  C   UNL     1      -2.387  -7.728   8.481  0.00  0.00    -0.064 A 
ATOM     35  C   UNL     1      -3.461  -8.066   7.680  0.00  0.00    +0.002 A 
ATOM     36  C   UNL     1      -4.382  -9.001   8.116  0.00  0.00    +0.000 A 
ATOM     37  C   UNL     1      -4.227  -9.597   9.353  0.00  0.00    +0.000 A 
ATOM     38  C   UNL     1      -3.152  -9.260  10.154  0.00  0.00    +0.000 A 
ATOM     39  C   UNL     1      -2.229  -8.329   9.716  0.00  0.00    +0.002 A 
ENDBRANCH  33  34
ENDBRANCH  12  33
TORSDOF 7
