REMARK  Name = ZINC38576693
REMARK  3 active torsions:
REMARK  status: ('A' for Active; 'I' for Inactive)
REMARK    1  A    between atoms: C_1  and  C_2
REMARK    2  A    between atoms: C_4  and  C_9
REMARK    3  A    between atoms: C_9  and  N_11
REMARK                            x       y       z     vdW  Elec       q    Type
REMARK                         _______ _______ _______ _____ _____    ______ ____
ROOT
ATOM      1  N   UNL     1      -3.832   0.286  -0.389  0.00  0.00    -0.156 NA
ATOM      2  C   UNL     1      -4.755   1.237  -0.257  0.00  0.00    +0.164 A 
ATOM      3  N   UNL     1      -6.057   1.192  -0.636  0.00  0.00    -0.335 N 
ATOM      4  H   UNL     1      -6.412   0.395  -1.060  0.00  0.00    +0.168 HD
ATOM      5  C   UNL     1      -6.875   2.284  -0.417  0.00  0.00    +0.055 A 
ATOM      6  C   UNL     1      -8.232   2.450  -0.726  0.00  0.00    +0.027 A 
ATOM      7  C   UNL     1      -8.880   3.625  -0.426  0.00  0.00    +0.002 A 
ATOM      8  C   UNL     1      -8.215   4.675   0.186  0.00  0.00    +0.001 A 
ATOM      9  C   UNL     1      -6.875   4.536   0.501  0.00  0.00    +0.017 A 
ATOM     10  C   UNL     1      -6.226   3.362   0.203  0.00  0.00    +0.039 A 
ATOM     11  S   UNL     1      -4.572   2.763   0.424  0.00  0.00    -0.052 S 
ENDROOT
BRANCH   1  12
ATOM     12  C   UNL     1      -2.595   0.496   0.047  0.00  0.00    +0.254 C 
ATOM     13  O   UNL     1      -2.304   1.557   0.566  0.00  0.00    -0.272 OA
BRANCH  12  16
ATOM     14  C   UNL     1      -2.468  -0.943   2.197  0.00  0.00    +0.027 C 
ATOM     15  C   UNL     1      -1.546  -1.523   1.123  0.00  0.00    +0.090 C 
ATOM     16  C   UNL     1      -1.550  -0.581  -0.103  0.00  0.00    +0.169 C 
ATOM     17  S   UNL     1      -1.992  -1.747  -1.460  0.00  0.00    -0.051 S 
ATOM     18  N   UNL     1      -1.636  -3.276  -0.581  0.00  0.00    -0.199 NA
ATOM     19  N   UNL     1      -2.000  -2.877   0.790  0.00  0.00    -0.243 NA
ATOM     20  H   UNL     1      -2.227  -4.026  -0.908  0.00  0.00    +0.154 HD
ATOM     21  H   UNL     1      -2.992  -2.974   0.945  0.00  0.00    +0.142 HD
ENDBRANCH  12  16
ENDBRANCH   1  12
TORSDOF 2
