REMARK  Name = ZINC60302635
REMARK  9 active torsions:
REMARK  status: ('A' for Active; 'I' for Inactive)
REMARK    1  A    between atoms: C_1  and  C_2
REMARK    2  A    between atoms: C_3  and  C_15
REMARK    3  A    between atoms: C_4  and  S_13
REMARK    4  A    between atoms: C_6  and  C_8
REMARK    5  A    between atoms: S_13  and  C_14
REMARK    6  A    between atoms: N_17  and  C_18
REMARK    7  A    between atoms: C_18  and  C_19
REMARK    8  A    between atoms: N_25  and  C_26
REMARK    9  A    between atoms: C_26  and  C_27
REMARK                            x       y       z     vdW  Elec       q    Type
REMARK                         _______ _______ _______ _____ _____    ______ ____
ROOT
ATOM      1  C   UNL     1       0.722   2.723  -3.710  0.00  0.00    +0.248 C 
ATOM      2  O   UNL     1       1.480   1.772  -3.731  0.00  0.00    -0.270 OA
ATOM      3  N   UNL     1      -0.589   2.545  -3.968  0.00  0.00    -0.313 N 
ATOM      4  H   UNL     1      -1.194   3.303  -3.951  0.00  0.00    +0.149 HD
ENDROOT
BRANCH   1   7
ATOM      5  C   UNL     1       1.664   4.460  -5.857  0.00  0.00    +0.066 C 
ATOM      6  C   UNL     1       1.691   4.913  -4.420  0.00  0.00    +0.055 A 
ATOM      7  C   UNL     1       1.235   4.067  -3.402  0.00  0.00    +0.089 A 
ATOM      8  C   UNL     1       1.281   4.539  -2.071  0.00  0.00    +0.113 A 
ATOM      9  N   UNL     1       1.752   5.758  -1.840  0.00  0.00    -0.218 NA
ATOM     10  C   UNL     1       2.173   6.524  -2.840  0.00  0.00    +0.197 A 
ATOM     11  N   UNL     1       2.148   6.109  -4.105  0.00  0.00    -0.229 NA
BRANCH  10  12
ATOM     12  C   UNL     1       2.689   7.871  -2.541  0.00  0.00    +0.172 A 
ATOM     13  C   UNL     1       2.788   8.433  -1.303  0.00  0.00    +0.053 A 
ATOM     14  C   UNL     1       3.329   9.719  -1.485  0.00  0.00    +0.042 A 
ATOM     15  C   UNL     1       3.532   9.880  -2.809  0.00  0.00    +0.196 A 
ATOM     16  O   UNL     1       3.150   8.761  -3.442  0.00  0.00    -0.460 OA
ENDBRANCH  10  12
BRANCH   8  17
ATOM     17  S   UNL     1       0.723   3.526  -0.741  0.00  0.00    -0.108 S 
ATOM     18  C   UNL     1       0.981   4.555   0.731  0.00  0.00    +0.091 C 
ENDBRANCH   8  17
ENDBRANCH   1   7
BRANCH   3  19
ATOM     19  C   UNL     1      -1.101   1.207  -4.274  0.00  0.00    +0.089 C 
BRANCH  19  20
ATOM     20  C   UNL     1      -2.579   1.301  -4.658  0.00  0.00    -0.051 C 
ATOM     21  C   UNL     1      -2.717   2.092  -5.961  0.00  0.00    -0.014 C 
ATOM     22  C   UNL     1      -4.198   2.184  -6.341  0.00  0.00    -0.003 C 
ATOM     23  C   UNL     1      -4.973   2.826  -5.186  0.00  0.00    -0.019 C 
ATOM     24  C   UNL     1      -4.750   2.008  -3.913  0.00  0.00    -0.078 C 
ATOM     25  N   UNL     1      -3.319   1.980  -3.588  0.00  0.00    +0.385 N 
ATOM     26  H   UNL     1      -2.979   2.925  -3.493  0.00  0.00    -0.081 HD
BRANCH  25  27
ATOM     27  C   UNL     1      -3.119   1.261  -2.323  0.00  0.00    -0.043 C 
BRANCH  27  28
ATOM     28  C   UNL     1      -3.771   2.027  -1.201  0.00  0.00    -0.064 A 
ATOM     29  C   UNL     1      -3.053   2.984  -0.509  0.00  0.00    +0.002 A 
ATOM     30  C   UNL     1      -3.651   3.686   0.520  0.00  0.00    +0.000 A 
ATOM     31  C   UNL     1      -4.967   3.433   0.857  0.00  0.00    +0.000 A 
ATOM     32  C   UNL     1      -5.686   2.476   0.164  0.00  0.00    +0.000 A 
ATOM     33  C   UNL     1      -5.089   1.777  -0.868  0.00  0.00    +0.002 A 
ENDBRANCH  27  28
ENDBRANCH  25  27
ENDBRANCH  19  20
ENDBRANCH   3  19
TORSDOF 7
