REMARK  Name = ZINC28382210
REMARK  9 active torsions:
REMARK  status: ('A' for Active; 'I' for Inactive)
REMARK    1  A    between atoms: C_1  and  C_2
REMARK    2  A    between atoms: C_2  and  N_3
REMARK    3  A    between atoms: N_3  and  C_4
REMARK    4  A    between atoms: N_3  and  C_6
REMARK    5  A    between atoms: C_4  and  C_5
REMARK    6  A    between atoms: C_9  and  C_13
REMARK    7  A    between atoms: C_10  and  O_12
REMARK    8  A    between atoms: N_14  and  N_15
REMARK    9  A    between atoms: C_16  and  C_21
REMARK                            x       y       z     vdW  Elec       q    Type
REMARK                         _______ _______ _______ _____ _____    ______ ____
ROOT
ATOM      1  C   UNL     1      -2.465   3.949   0.021  0.00  0.00    +0.145 C 
ATOM      2  N   UNL     1      -3.588   3.298   0.052  0.00  0.00    -0.170 NA
ENDROOT
BRANCH   1   6
ATOM      3  C   UNL     1       1.217   1.833  -0.027  0.00  0.00    +0.033 A 
ATOM      4  C   UNL     1       1.213   3.225  -0.045  0.00  0.00    +0.024 A 
ATOM      5  C   UNL     1       0.021   3.914  -0.029  0.00  0.00    +0.015 A 
ATOM      6  C   UNL     1      -1.189   3.215   0.005  0.00  0.00    +0.036 A 
ATOM      7  C   UNL     1      -1.183   1.812   0.017  0.00  0.00    +0.127 A 
ATOM      8  C   UNL     1       0.019   1.130   0.007  0.00  0.00    +0.069 A 
BRANCH   7   9
ATOM      9  O   UNL     1      -2.355   1.127   0.044  0.00  0.00    -0.506 OA
ATOM     10  H   UNL     1      -2.349   0.027   0.054  0.00  0.00    +0.292 HD
ENDBRANCH   7   9
BRANCH   3  11
ATOM     11  N   UNL     1       2.428   1.142  -0.043  0.00  0.00    -0.330 N 
BRANCH  11  13
ATOM     12  C   UNL     1       4.162   2.156   1.351  0.00  0.00    +0.024 C 
ATOM     13  C   UNL     1       3.692   1.880  -0.079  0.00  0.00    +0.102 C 
ENDBRANCH  11  13
BRANCH  11  14
ATOM     14  C   UNL     1       2.435  -0.323  -0.025  0.00  0.00    +0.102 C 
ATOM     15  C   UNL     1       2.408  -0.852  -1.460  0.00  0.00    +0.024 C 
ENDBRANCH  11  14
ENDBRANCH   3  11
ENDBRANCH   1   6
BRANCH   2  16
ATOM     16  N   UNL     1      -4.803   3.996   0.068  0.00  0.00    -0.185 N 
ATOM     17  C   UNL     1      -5.547   4.396  -1.020  0.00  0.00    +0.204 A 
ATOM     18  N   UNL     1      -6.607   5.017  -0.554  0.00  0.00    -0.125 NA
ATOM     19  N   UNL     1      -6.578   5.032   0.731  0.00  0.00    -0.119 NA
ATOM     20  C   UNL     1      -5.501   4.418   1.167  0.00  0.00    +0.223 A 
ATOM     21  S   UNL     1      -5.040   4.185   2.851  0.00  0.00    -0.007 SA
BRANCH  17  22
ATOM     22  C   UNL     1      -5.215   4.170  -2.443  0.00  0.00    +0.108 A 
ATOM     23  C   UNL     1      -5.981   4.594  -3.553  0.00  0.00    +0.004 A 
ATOM     24  C   UNL     1      -5.335   4.208  -4.671  0.00  0.00    +0.067 A 
ATOM     25  N   UNL     1      -4.215   3.543  -4.299  0.00  0.00    -0.178 NA
ATOM     26  H   UNL     1      -3.446   3.073  -2.198  0.00  0.00    +0.189 HD
ATOM     27  N   UNL     1      -4.167   3.518  -2.901  0.00  0.00    -0.273 N 
ATOM     28  C   UNL     1      -6.095   4.660  -5.900  0.00  0.00    +0.058 C 
ATOM     29  C   UNL     1      -7.530   4.957  -5.384  0.00  0.00    +0.011 C 
ATOM     30  C   UNL     1      -7.259   5.322  -3.909  0.00  0.00    +0.039 C 
ENDBRANCH  17  22
ENDBRANCH   2  16
TORSDOF 7
