REMARK  Name = ZINC08400518
REMARK  10 active torsions:
REMARK  status: ('A' for Active; 'I' for Inactive)
REMARK    1  A    between atoms: C_1  and  C_2
REMARK    2  A    between atoms: C_5  and  O_21
REMARK    3  A    between atoms: C_6  and  C_8
REMARK    4  A    between atoms: N_9  and  N_10
REMARK    5  A    between atoms: C_15  and  C_18
REMARK    6  A    between atoms: C_18  and  C_19
REMARK    7  A    between atoms: C_18  and  C_20
REMARK    8  A    between atoms: O_21  and  S_22
REMARK    9  A    between atoms: S_22  and  C_25
REMARK   10  A    between atoms: C_28  and  C_32
REMARK                            x       y       z     vdW  Elec       q    Type
REMARK                         _______ _______ _______ _____ _____    ______ ____
ROOT
ATOM      1  C   UNL     1      -0.257   0.461  -1.781  0.00  0.00    +0.044 C 
ATOM      2  C   UNL     1      -0.267  -0.893  -1.119  0.00  0.00    -0.050 A 
ATOM      3  C   UNL     1      -0.713  -2.000  -1.820  0.00  0.00    +0.007 A 
ATOM      4  C   UNL     1      -0.727  -3.247  -1.223  0.00  0.00    +0.049 A 
ATOM      5  C   UNL     1      -0.294  -3.397   0.083  0.00  0.00    +0.165 A 
ATOM      6  C   UNL     1       0.159  -2.278   0.798  0.00  0.00    +0.040 A 
ATOM      7  C   UNL     1       0.173  -1.024   0.181  0.00  0.00    +0.016 A 
ENDROOT
BRANCH   6   8
ATOM      8  C   UNL     1       0.621  -2.425   2.187  0.00  0.00    +0.146 C 
ATOM      9  N   UNL     1       0.684  -3.610   2.732  0.00  0.00    -0.155 NA
BRANCH   9  10
ATOM     10  N   UNL     1       0.989  -3.730   3.980  0.00  0.00    -0.127 NA
ATOM     11  C   UNL     1       1.161  -4.926   4.503  0.00  0.00    +0.183 C 
ATOM     12  N   UNL     1       1.101  -6.149   3.869  0.00  0.00    -0.263 N 
ATOM     13  C   UNL     1       1.294  -7.290   4.509  0.00  0.00    +0.232 C 
ATOM     14  O   UNL     1       1.241  -8.362   3.945  0.00  0.00    -0.274 OA
ATOM     15  C   UNL     1       1.587  -7.173   5.996  0.00  0.00    +0.143 C 
ATOM     16  S   UNL     1       1.533  -5.345   6.199  0.00  0.00    -0.075 S 
ATOM     17  H   UNL     1       0.911  -6.173   2.918  0.00  0.00    +0.157 HD
BRANCH  15  18
ATOM     18  C   UNL     1       2.974  -7.724   6.333  0.00  0.00    +0.005 C 
ATOM     19  C   UNL     1       3.177  -7.702   7.850  0.00  0.00    +0.009 C 
ATOM     20  C   UNL     1       3.090  -9.162   5.824  0.00  0.00    +0.009 C 
ENDBRANCH  15  18
ENDBRANCH   9  10
ENDBRANCH   6   8
BRANCH   5  21
ATOM     21  O   UNL     1      -0.308  -4.622   0.670  0.00  0.00    -0.342 OA
BRANCH  21  22
ATOM     22  S   UNL     1      -1.655  -5.008   1.264  0.00  0.00    +0.151 S 
ATOM     23  O   UNL     1      -1.438  -6.184   2.032  0.00  0.00    -0.131 OA
ATOM     24  O   UNL     1      -2.208  -3.824   1.823  0.00  0.00    -0.131 OA
BRANCH  22  25
ATOM     25  C   UNL     1      -2.702  -5.469  -0.076  0.00  0.00    +0.129 A 
ATOM     26  C   UNL     1      -3.532  -4.529  -0.659  0.00  0.00    +0.031 A 
ATOM     27  C   UNL     1      -4.354  -4.890  -1.711  0.00  0.00    +0.007 A 
ATOM     28  C   UNL     1      -4.346  -6.190  -2.180  0.00  0.00    -0.032 A 
ATOM     29  C   UNL     1      -3.516  -7.130  -1.597  0.00  0.00    +0.046 A 
ATOM     30  C   UNL     1      -2.689  -6.768  -0.549  0.00  0.00    +0.050 A 
ATOM     31 CL   UNL     1      -3.506  -8.764  -2.186  0.00  0.00    -0.083 Cl
ATOM     32  C   UNL     1      -5.243  -6.583  -3.326  0.00  0.00    +0.045 C 
ENDBRANCH  22  25
ENDBRANCH  21  22
ENDBRANCH   5  21
TORSDOF 6
