REMARK  Name = ZINC44320617
REMARK  7 active torsions:
REMARK  status: ('A' for Active; 'I' for Inactive)
REMARK    1  A    between atoms: C_13  and  C_14
REMARK    2  A    between atoms: C_14  and  O_15
REMARK    3  A    between atoms: O_15  and  C_16
REMARK    4  A    between atoms: N_18  and  CA_19
REMARK    5  A    between atoms: CA_19  and  C_21
REMARK    6  A    between atoms: CA_19  and  C_30
REMARK    7  A    between atoms: C_21  and  C_22
REMARK                            x       y       z     vdW  Elec       q    Type
REMARK                         _______ _______ _______ _____ _____    ______ ____
ROOT
ATOM      1  C   UNL     1       6.633  -1.749   1.571  0.00  0.00    +0.401 C 
ATOM      2  O   UNL     1       6.290  -0.928   2.398  0.00  0.00    -0.226 OA
ATOM      3  N   UNL     1       7.705  -2.533   1.804  0.00  0.00    -0.267 N 
ATOM      4  H   UNL     1       7.979  -3.188   1.143  0.00  0.00    +0.153 HD
ENDROOT
BRANCH   1   5
ATOM      5  O   UNL     1       5.944  -1.876   0.421  0.00  0.00    -0.449 OA
BRANCH   5   6
ATOM      6  C   UNL     1       4.819  -1.013   0.241  0.00  0.00    +0.246 C 
BRANCH   6  19
ATOM      7  C   UNL     1       0.673   1.006  -1.864  0.00  0.00    +0.001 A 
ATOM      8  C   UNL     1       1.851   1.719  -1.738  0.00  0.00    +0.000 A 
ATOM      9  C   UNL     1       3.040   1.056  -1.492  0.00  0.00    +0.005 A 
ATOM     10  C   UNL     1       3.053  -0.318  -1.373  0.00  0.00    -0.029 A 
ATOM     11  C   UNL     1       1.872  -1.044  -1.498  0.00  0.00    -0.014 A 
ATOM     12  C   UNL     1       0.676  -0.368  -1.746  0.00  0.00    +0.009 A 
ATOM     13  C   UNL     1       2.161  -2.490  -1.329  0.00  0.00    -0.014 A 
ATOM     14  C   UNL     1       1.323  -3.605  -1.367  0.00  0.00    +0.009 A 
ATOM     15  C   UNL     1       1.846  -4.867  -1.177  0.00  0.00    +0.001 A 
ATOM     16  C   UNL     1       3.201  -5.033  -0.948  0.00  0.00    +0.000 A 
ATOM     17  C   UNL     1       4.037  -3.932  -0.909  0.00  0.00    +0.005 A 
ATOM     18  C   UNL     1       3.522  -2.666  -1.098  0.00  0.00    -0.029 A 
ATOM     19  C   UNL     1       4.167  -1.302  -1.113  0.00  0.00    +0.088 C 
ENDBRANCH   6  19
ENDBRANCH   5   6
ENDBRANCH   1   5
BRANCH   3  20
ATOM     20  CA  UNL     1       8.456  -2.395   3.054  0.00  0.00    +0.193 C 
BRANCH  20  21
ATOM     21  C   UNL     1       9.508  -1.328   2.893  0.00  0.00    +0.376 C 
ATOM     22  O   UNL     1       9.860  -0.669   3.857  0.00  0.00    -0.244 OA
ATOM     23  OXT UNL     1      10.006  -1.123   1.800  0.00  0.00    -0.244 OA
ENDBRANCH  20  21
BRANCH  20  24
ATOM     24  C   UNL     1       9.128  -3.726   3.395  0.00  0.00    +0.070 C 
BRANCH  24  25
ATOM     25  C   UNL     1       8.072  -4.767   3.666  0.00  0.00    -0.028 A 
ATOM     26  C   UNL     1       7.693  -5.643   2.667  0.00  0.00    +0.043 A 
ATOM     27  C   UNL     1       6.723  -6.599   2.916  0.00  0.00    +0.124 A 
ATOM     28  C   UNL     1       6.134  -6.677   4.166  0.00  0.00    +0.039 A 
ATOM     29  C   UNL     1       6.514  -5.801   5.165  0.00  0.00    +0.018 A 
ATOM     30  C   UNL     1       7.487  -4.849   4.917  0.00  0.00    +0.021 A 
ATOM     31 BR   UNL     1       8.013  -3.656   6.286  0.00  0.00    -0.050 Br
ATOM     32  F   UNL     1       6.352  -7.455   1.939  0.00  0.00    -0.205 F 
ENDBRANCH  24  25
ENDBRANCH  20  24
ENDBRANCH   3  20
TORSDOF 7
