REMARK  Name = ZINC13383651
REMARK  5 active torsions:
REMARK  status: ('A' for Active; 'I' for Inactive)
REMARK    1  A    between atoms: C_1  and  C_2
REMARK    2  A    between atoms: C_2  and  C_25
REMARK    3  A    between atoms: C_10  and  O_11
REMARK    4  A    between atoms: C_15  and  C_17
REMARK    5  A    between atoms: C_20  and  O_23
REMARK                            x       y       z     vdW  Elec       q    Type
REMARK                         _______ _______ _______ _____ _____    ______ ____
ROOT
ATOM      1  C   UNL     1       3.942   2.429  -4.788  0.00  0.00    +0.060 C 
ATOM      2  C   UNL     1       3.441   1.808  -3.483  0.00  0.00    +0.124 C 
ATOM      3  C   UNL     1       1.963   1.542  -3.595  0.00  0.00    +0.020 C 
ATOM      4  C   UNL     1       1.201   1.548  -2.503  0.00  0.00    +0.015 C 
ATOM      5  C   UNL     1       1.849   1.833  -1.205  0.00  0.00    +0.059 A 
ATOM      6  C   UNL     1       3.127   2.422  -1.209  0.00  0.00    +0.136 A 
ATOM      7  C   UNL     1       3.766   2.707  -0.019  0.00  0.00    +0.093 A 
ATOM      8  C   UNL     1       3.152   2.413   1.193  0.00  0.00    +0.146 A 
ATOM      9  C   UNL     1       1.874   1.828   1.201  0.00  0.00    +0.106 A 
ATOM     10  C   UNL     1       1.220   1.531  -0.001  0.00  0.00    +0.142 A 
ATOM     11  C   UNL     1       1.244   1.530   2.499  0.00  0.00    +0.197 A 
ATOM     12  O   UNL     1       0.138   1.018   2.568  0.00  0.00    -0.287 OA
ATOM     13  C   UNL     1       1.976   1.864   3.663  0.00  0.00    +0.098 A 
ATOM     14  C   UNL     1       3.204   2.433   3.537  0.00  0.00    +0.139 A 
ATOM     15  O   UNL     1       3.777   2.691   2.355  0.00  0.00    -0.454 OA
ATOM     16  O   UNL     1       3.711   2.701  -2.402  0.00  0.00    -0.481 OA
ATOM     17  C   UNL     1       4.173   0.486  -3.240  0.00  0.00    +0.060 C 
ENDROOT
BRANCH  14  18
ATOM     18  C   UNL     1       3.949   2.772   4.765  0.00  0.00    +0.018 A 
ATOM     19  C   UNL     1       3.388   2.514   6.018  0.00  0.00    +0.015 A 
ATOM     20  C   UNL     1       4.088   2.827   7.162  0.00  0.00    +0.046 A 
ATOM     21  C   UNL     1       5.346   3.410   7.071  0.00  0.00    +0.117 A 
ATOM     22  C   UNL     1       5.905   3.674   5.826  0.00  0.00    +0.046 A 
ATOM     23  C   UNL     1       5.214   3.359   4.677  0.00  0.00    +0.015 A 
BRANCH  21  24
ATOM     24  O   UNL     1       6.031   3.723   8.200  0.00  0.00    -0.507 OA
ATOM     25  H   UNL     1       5.857   4.616   8.531  0.00  0.00    +0.292 HD
ENDBRANCH  21  24
ENDBRANCH  14  18
BRANCH  10  26
ATOM     26  O   UNL     1      -0.011   0.963   0.007  0.00  0.00    -0.505 OA
ATOM     27  H   UNL     1       0.002  -0.004   0.002  0.00  0.00    +0.292 HD
ENDBRANCH  10  26
TORSDOF 3
