REMARK  Name = ZINC19845607
REMARK  3 active torsions:
REMARK  status: ('A' for Active; 'I' for Inactive)
REMARK    1  A    between atoms: C_4  and  S_8
REMARK    2  A    between atoms: C_5  and  N_7
REMARK    3  A    between atoms: S_8  and  C_9
REMARK                            x       y       z     vdW  Elec       q    Type
REMARK                         _______ _______ _______ _____ _____    ______ ____
ROOT
ATOM      1  S   UNL     1      -2.796   1.766   0.043  0.00  0.00    -0.048 S 
ENDROOT
BRANCH   1   2
ATOM      2  C   UNL     1      -1.124   2.282  -0.163  0.00  0.00    +0.196 A 
ATOM      3  N   UNL     1      -0.694   3.518  -0.280  0.00  0.00    -0.122 NA
ATOM      4  N   UNL     1       0.586   3.526  -0.409  0.00  0.00    -0.134 NA
ATOM      5  C   UNL     1       1.043   2.309  -0.377  0.00  0.00    +0.134 A 
ATOM      6  N   UNL     1      -0.029   1.476  -0.231  0.00  0.00    -0.306 N 
ATOM      7  C   UNL     1       0.006   0.015  -0.170  0.00  0.00    +0.125 C 
ATOM      8  C   UNL     1       1.355  -0.436   0.397  0.00  0.00    +0.022 C 
ATOM      9  C   UNL     1       2.360  -0.611  -0.740  0.00  0.00    +0.002 C 
ATOM     10  C   UNL     1       2.588   0.712  -1.465  0.00  0.00    +0.008 C 
ATOM     11  C   UNL     1       2.482   1.871  -0.469  0.00  0.00    +0.076 C 
ENDBRANCH   1   2
BRANCH   1  15
ATOM     12  C   UNL     1      -4.825   5.803   0.423  0.00  0.00    +0.002 A 
ATOM     13  C   UNL     1      -4.922   5.086  -0.756  0.00  0.00    +0.001 A 
ATOM     14  C   UNL     1      -4.305   3.855  -0.875  0.00  0.00    +0.017 A 
ATOM     15  C   UNL     1      -3.584   3.335   0.191  0.00  0.00    +0.036 A 
ATOM     16  C   UNL     1      -3.490   4.056   1.382  0.00  0.00    +0.039 A 
ATOM     17  C   UNL     1      -4.109   5.292   1.490  0.00  0.00    +0.024 A 
BRANCH  16  18
ATOM     18  N   UNL     1      -2.769   3.535   2.462  0.00  0.00    -0.357 N 
ATOM     19  H   UNL     1      -2.696   4.104   3.401  0.00  0.00    +0.142 HD
ATOM     20  H   UNL     1      -2.276   2.556   2.373  0.00  0.00    +0.142 HD
ENDBRANCH  16  18
ENDBRANCH   1  15
TORSDOF 3
