REMARK  Name = ZINC36001522
REMARK  12 active torsions:
REMARK  status: ('A' for Active; 'I' for Inactive)
REMARK    1  A    between atoms: C_1  and  C_2
REMARK    2  A    between atoms: C_2  and  N_3
REMARK    3  A    between atoms: C_4  and  C_23
REMARK    4  A    between atoms: C_5  and  C_18
REMARK    5  A    between atoms: C_6  and  C_11
REMARK    6  A    between atoms: C_15  and  C_17
REMARK    7  A    between atoms: C_18  and  O_20
REMARK    8  A    between atoms: O_20  and  C_21
REMARK    9  A    between atoms: C_21  and  C_22
REMARK   10  A    between atoms: C_23  and  N_24
REMARK   11  A    between atoms: C_28  and  C_31
REMARK   12  A    between atoms: C_32  and  C_34
REMARK                            x       y       z     vdW  Elec       q    Type
REMARK                         _______ _______ _______ _____ _____    ______ ____
ROOT
ATOM      1  N   UNL     1      -0.325   0.354  -3.067  0.00  0.00    -0.258 N 
ATOM      2  C   UNL     1      -1.269   0.237  -4.046  0.00  0.00    +0.041 C 
ATOM      3  C   UNL     1      -0.918   0.004  -5.329  0.00  0.00    +0.080 C 
ATOM      4  C   UNL     1       0.559  -0.123  -5.644  0.00  0.00    +0.144 C 
ATOM      5  N   UNL     1       1.496   0.018  -4.517  0.00  0.00    -0.288 N 
ATOM      6  C   UNL     1       0.992   0.255  -3.289  0.00  0.00    +0.307 C 
ATOM      7  O   UNL     1       1.757   0.377  -2.353  0.00  0.00    -0.252 OA
ATOM      8  H   UNL     1       2.453  -0.053  -4.655  0.00  0.00    +0.151 HD
ENDROOT
BRANCH   4   9
ATOM      9  C   UNL     1       0.785  -1.476  -6.268  0.00  0.00    -0.022 A 
ATOM     10  C   UNL     1       0.869  -2.601  -5.469  0.00  0.00    +0.006 A 
ATOM     11  C   UNL     1       1.077  -3.842  -6.041  0.00  0.00    +0.001 A 
ATOM     12  C   UNL     1       1.201  -3.958  -7.413  0.00  0.00    +0.003 A 
ATOM     13  C   UNL     1       1.117  -2.833  -8.212  0.00  0.00    -0.050 A 
ATOM     14  C   UNL     1       0.904  -1.593  -7.640  0.00  0.00    +0.009 A 
ATOM     15  C   UNL     1       1.252  -2.960  -9.708  0.00  0.00    +0.044 C 
ENDBRANCH   4   9
BRANCH   1  17
ATOM     16  C   UNL     1      -0.869   2.116  -1.460  0.00  0.00    +0.025 C 
ATOM     17  C   UNL     1      -0.777   0.607  -1.696  0.00  0.00    +0.111 C 
ENDBRANCH   1  17
BRANCH   3  18
ATOM     18  C   UNL     1      -1.895  -0.117  -6.344  0.00  0.00    +0.339 C 
ATOM     19  O   UNL     1      -2.258  -1.220  -6.710  0.00  0.00    -0.245 OA
BRANCH  18  20
ATOM     20  O   UNL     1      -2.425   0.989  -6.907  0.00  0.00    -0.462 OA
BRANCH  20  21
ATOM     21  C   UNL     1      -3.407   0.792  -7.926  0.00  0.00    +0.229 C 
ATOM     22  C   UNL     1      -3.888   2.150  -8.440  0.00  0.00    +0.048 C 
ENDBRANCH  20  21
ENDBRANCH  18  20
ENDBRANCH   3  18
BRANCH   2  23
ATOM     23  C   UNL     1      -2.727   0.371  -3.689  0.00  0.00    +0.136 C 
BRANCH  23  24
ATOM     24  N   UNL     1      -3.129  -0.757  -2.838  0.00  0.00    -0.294 NA
ATOM     25  C   UNL     1      -3.057  -2.025  -3.576  0.00  0.00    +0.104 C 
ATOM     26  C   UNL     1      -3.305  -3.189  -2.611  0.00  0.00    +0.124 C 
ATOM     27  N   UNL     1      -4.575  -2.950  -1.907  0.00  0.00    -0.292 N 
ATOM     28  C   UNL     1      -4.776  -1.645  -1.258  0.00  0.00    +0.087 C 
ATOM     29  C   UNL     1      -4.469  -0.542  -2.277  0.00  0.00    +0.107 C 
ATOM     30  C   UNL     1      -6.225  -1.525  -0.784  0.00  0.00    +0.029 C 
ATOM     31  C   UNL     1      -5.529  -3.901  -1.859  0.00  0.00    +0.247 C 
ATOM     32  O   UNL     1      -6.611  -3.651  -1.365  0.00  0.00    -0.270 OA
BRANCH  31  33
ATOM     33  C   UNL     1      -5.259  -5.247  -2.407  0.00  0.00    +0.040 A 
ATOM     34  C   UNL     1      -3.955  -5.744  -2.434  0.00  0.00    +0.013 A 
ATOM     35  C   UNL     1      -3.708  -7.001  -2.946  0.00  0.00    +0.004 A 
ATOM     36  C   UNL     1      -4.750  -7.770  -3.433  0.00  0.00    +0.038 A 
ATOM     37  C   UNL     1      -6.047  -7.284  -3.410  0.00  0.00    +0.124 A 
ATOM     38  C   UNL     1      -6.307  -6.028  -2.894  0.00  0.00    +0.051 A 
ATOM     39  F   UNL     1      -7.060  -8.040  -3.888  0.00  0.00    -0.205 F 
ENDBRANCH  31  33
ENDBRANCH  23  24
ENDBRANCH   2  23
TORSDOF 8
