REMARK  Name = ZINC16780547
REMARK  14 active torsions:
REMARK  status: ('A' for Active; 'I' for Inactive)
REMARK    1  A    between atoms: C_1  and  C_2
REMARK    2  A    between atoms: C_2  and  N_73
REMARK    3  A    between atoms: C_3  and  C_4
REMARK    4  A    between atoms: C_3  and  N_73
REMARK    5  A    between atoms: C_5  and  C_6
REMARK    6  A    between atoms: C_5  and  N_73
REMARK    7  A    between atoms: C_9  and  C_12
REMARK    8  A    between atoms: C_12  and  N_13
REMARK    9  A    between atoms: C_14  and  C_16
REMARK   10  A    between atoms: N_19  and  S_22
REMARK   11  A    between atoms: S_22  and  C_25
REMARK   12  A    between atoms: C_26  and  C_33
REMARK   13  A    between atoms: C_28  and  C_32
REMARK   14  A    between atoms: C_30  and  C_31
REMARK                            x       y       z     vdW  Elec       q    Type
REMARK                         _______ _______ _______ _____ _____    ______ ____
ROOT
ATOM      1  N   UNL     1      -1.545  -1.764  -1.942  0.00  0.00    -0.311 N 
ATOM      2  C   UNL     1      -2.271  -0.652  -1.712  0.00  0.00    +0.216 C 
ATOM      3  O   UNL     1      -3.339  -0.732  -1.144  0.00  0.00    -0.276 OA
ATOM      4  H   UNL     1      -0.690  -1.700  -2.397  0.00  0.00    +0.149 HD
ENDROOT
BRANCH   2   5
ATOM      5  C   UNL     1      -1.754   0.691  -2.161  0.00  0.00    +0.077 C 
ATOM      6  C   UNL     1      -2.762   1.778  -1.781  0.00  0.00    +0.030 C 
ATOM      7  C   UNL     1      -2.251   3.137  -2.269  0.00  0.00    +0.110 C 
ATOM      8  N   UNL     1      -0.899   3.353  -1.734  0.00  0.00    -0.177 NA
ATOM      9  C   UNL     1       0.125   2.325  -1.965  0.00  0.00    +0.110 C 
ATOM     10  C   UNL     1      -0.413   0.975  -1.480  0.00  0.00    +0.030 C 
BRANCH   8  11
ATOM     11  S   UNL     1      -0.537   4.729  -0.887  0.00  0.00    +0.061 S 
ATOM     12  O   UNL     1       0.836   5.004  -1.126  0.00  0.00    -0.153 OA
ATOM     13  O   UNL     1      -1.564   5.668  -1.179  0.00  0.00    -0.153 OA
BRANCH  11  14
ATOM     14  C   UNL     1      -0.682   4.340   0.825  0.00  0.00    +0.111 A 
ATOM     15  C   UNL     1       0.452   4.104   1.579  0.00  0.00    -0.024 A 
ATOM     16  C   UNL     1       0.339   3.804   2.923  0.00  0.00    +0.008 A 
ATOM     17  C   UNL     1      -0.910   3.729   3.512  0.00  0.00    -0.050 A 
ATOM     18  C   UNL     1      -2.045   3.960   2.757  0.00  0.00    +0.008 A 
ATOM     19  C   UNL     1      -1.931   4.266   1.413  0.00  0.00    -0.024 A 
ATOM     20  C   UNL     1      -3.168   4.517   0.590  0.00  0.00    +0.046 C 
ATOM     21  C   UNL     1      -1.034   3.396   4.976  0.00  0.00    +0.044 C 
ATOM     22  C   UNL     1       1.813   4.179   0.936  0.00  0.00    +0.046 C 
ENDBRANCH  11  14
ENDBRANCH   8  11
ENDBRANCH   2   5
BRANCH   1  23
ATOM     23  C   UNL     1      -2.047  -3.070  -1.506  0.00  0.00    +0.139 C 
BRANCH  23  27
ATOM     24  C   UNL     1       0.766  -6.104  -2.568  0.00  0.00    -0.064 A 
ATOM     25  C   UNL     1       0.861  -5.472  -1.343  0.00  0.00    +0.002 A 
ATOM     26  C   UNL     1      -0.049  -4.490  -0.999  0.00  0.00    +0.005 A 
ATOM     27  C   UNL     1      -1.054  -4.140  -1.881  0.00  0.00    -0.030 A 
ATOM     28  C   UNL     1      -1.153  -4.776  -3.104  0.00  0.00    +0.005 A 
ATOM     29  C   UNL     1      -0.240  -5.755  -3.450  0.00  0.00    +0.002 A 
BRANCH  24  30
ATOM     30  C   UNL     1       1.759  -7.174  -2.944  0.00  0.00    -0.043 C 
BRANCH  30  31
ATOM     31  N   UNL     1       1.230  -8.486  -2.516  0.00  0.00    +0.382 N 
ATOM     32  H   UNL     1       0.275  -8.595  -2.877  0.00  0.00    -0.081 HD
BRANCH  31  34
ATOM     33  C   UNL     1       1.745  -9.756  -4.540  0.00  0.00    -0.017 C 
ATOM     34  C   UNL     1       2.075  -9.572  -3.057  0.00  0.00    -0.082 C 
ENDBRANCH  31  34
BRANCH  31  35
ATOM     35  C   UNL     1       1.197  -8.560  -1.040  0.00  0.00    -0.082 C 
ATOM     36  C   UNL     1       0.319  -9.743  -0.627  0.00  0.00    -0.017 C 
ENDBRANCH  31  35
ENDBRANCH  30  31
ENDBRANCH  24  30
ENDBRANCH  23  27
ENDBRANCH   1  23
TORSDOF 9
