REMARK  Name = ZINC08269589
REMARK  7 active torsions:
REMARK  status: ('A' for Active; 'I' for Inactive)
REMARK    1  A    between atoms: C_1  and  C_2
REMARK    2  A    between atoms: C_2  and  C_4
REMARK    3  A    between atoms: C_2  and  N_53
REMARK    4  A    between atoms: C_14  and  C_15
REMARK    5  A    between atoms: C_14  and  N_53
REMARK    6  A    between atoms: N_17  and  C_18
REMARK    7  A    between atoms: C_19  and  C_27
REMARK                            x       y       z     vdW  Elec       q    Type
REMARK                         _______ _______ _______ _____ _____    ______ ____
ROOT
ATOM      1  C   UNL     1      -2.165   9.327   1.593  0.00  0.00    +0.201 C 
ATOM      2  O   UNL     1      -1.063   9.817   1.458  0.00  0.00    -0.278 OA
ATOM      3  N   UNL     1      -3.152  10.039   2.171  0.00  0.00    -0.281 N 
ATOM      4  H   UNL     1      -4.033   9.647   2.279  0.00  0.00    +0.155 HD
ENDROOT
BRANCH   3   5
ATOM      5  C   UNL     1      -2.909  11.331   2.612  0.00  0.00    +0.084 A 
ATOM      6  C   UNL     1      -3.790  12.214   3.220  0.00  0.00    +0.068 A 
ATOM      7  C   UNL     1      -3.279  13.523   3.592  0.00  0.00    -0.023 A 
ATOM      8  C   UNL     1      -1.980  13.740   3.290  0.00  0.00    -0.004 A 
ATOM      9  S   UNL     1      -1.435  12.237   2.530  0.00  0.00    -0.077 S 
ATOM     10  C   UNL     1      -1.190  14.986   3.547  0.00  0.00    +0.043 C 
ATOM     11  C   UNL     1      -2.170  16.123   3.869  0.00  0.00    +0.005 C 
ATOM     12  C   UNL     1      -3.179  15.626   4.907  0.00  0.00    +0.005 C 
ATOM     13  C   UNL     1      -4.117  14.599   4.271  0.00  0.00    +0.037 C 
BRANCH   6  14
ATOM     14  C   UNL     1      -5.184  11.840   3.481  0.00  0.00    +0.244 C 
ATOM     15  O   UNL     1      -5.484  11.311   4.535  0.00  0.00    -0.270 OA
ATOM     16  N   UNL     1      -6.131  12.082   2.554  0.00  0.00    -0.325 N 
ATOM     17  H   UNL     1      -5.891  12.504   1.714  0.00  0.00    +0.145 HD
ATOM     18  H   UNL     1      -7.053  11.835   2.726  0.00  0.00    +0.145 HD
ENDBRANCH   6  14
ENDBRANCH   3   5
BRANCH   1  19
ATOM     19  C   UNL     1      -2.429   7.923   1.114  0.00  0.00    +0.016 C 
BRANCH  19  20
ATOM     20  N   UNL     1      -1.193   7.373   0.526  0.00  0.00    +0.389 N 
ATOM     21  H   UNL     1      -0.902   7.962  -0.264  0.00  0.00    -0.084 HD
ATOM     22  H   UNL     1      -0.453   7.365   1.238  0.00  0.00    -0.084 HD
BRANCH  20  24
ATOM     23  C   UNL     1      -2.003   6.037  -1.368  0.00  0.00    -0.009 C 
ATOM     24  C   UNL     1      -1.422   5.996   0.047  0.00  0.00    -0.043 C 
BRANCH  24  25
ATOM     25  C   UNL     1      -0.111   5.253   0.031  0.00  0.00    -0.054 A 
ATOM     26  C   UNL     1       1.064   5.940   0.023  0.00  0.00    +0.002 A 
ATOM     27  C   UNL     1       2.286   5.271   0.008  0.00  0.00    +0.001 A 
ATOM     28  C   UNL     1       2.340   3.910   0.000  0.00  0.00    +0.008 A 
ATOM     29  C   UNL     1       1.147   3.167   0.008  0.00  0.00    -0.018 A 
ATOM     30  C   UNL     1      -0.096   3.849   0.024  0.00  0.00    -0.016 A 
ATOM     31  C   UNL     1      -1.289   3.105   0.031  0.00  0.00    +0.009 A 
ATOM     32  C   UNL     1      -1.235   1.746   0.018  0.00  0.00    +0.001 A 
ATOM     33  C   UNL     1      -0.013   1.076   0.008  0.00  0.00    +0.001 A 
ATOM     34  C   UNL     1       1.163   1.762   0.000  0.00  0.00    +0.008 A 
ENDBRANCH  24  25
ENDBRANCH  20  24
ENDBRANCH  19  20
ENDBRANCH   1  19
TORSDOF 6
