REMARK  Name = ZINC34145395
REMARK  7 active torsions:
REMARK  status: ('A' for Active; 'I' for Inactive)
REMARK    1  A    between atoms: C_1  and  O_2
REMARK    2  A    between atoms: O_2  and  C_3
REMARK    3  A    between atoms: C_7  and  C_10
REMARK    4  A    between atoms: C_8  and  O_9
REMARK    5  A    between atoms: CA_16  and  C_19
REMARK    6  A    between atoms: N_24  and  C_27
REMARK    7  A    between atoms: C_31  and  C_33
REMARK                            x       y       z     vdW  Elec       q    Type
REMARK                         _______ _______ _______ _____ _____    ______ ____
ROOT
ATOM      1  C   UNL     1       1.454  -4.158   2.251  0.00  0.00    -0.023 C 
ATOM      2  C   UNL     1       0.159  -4.691   2.899  0.00  0.00    +0.077 C 
ATOM      3  C   UNL     1       0.609  -5.919   3.735  0.00  0.00    +0.083 C 
ATOM      4  CA  UNL     1       2.131  -6.021   3.500  0.00  0.00    +0.057 C 
ATOM      5  N   UNL     1       2.546  -4.635   3.136  0.00  0.00    +0.394 N 
ATOM      6  C   UNL     1       0.339  -5.489   5.160  0.00  0.00    +0.229 C 
ATOM      7  O   UNL     1       0.551  -6.161   6.146  0.00  0.00    -0.275 OA
ATOM      8  N   UNL     1      -0.170  -4.252   5.162  0.00  0.00    -0.210 N 
ATOM      9  C   UNL     1      -0.322  -3.700   3.935  0.00  0.00    +0.229 C 
ATOM     10  O   UNL     1      -0.767  -2.598   3.698  0.00  0.00    -0.275 OA
ATOM     11  H1  UNL     1       3.423  -4.652   2.637  0.00  0.00    -0.084 HD
ATOM     12  H2  UNL     1       2.616  -4.051   3.956  0.00  0.00    -0.084 HD
ENDROOT
BRANCH   1  17
ATOM     13  C   UNL     1       0.877  -0.608   1.069  0.00  0.00    +0.161 A 
ATOM     14  C   UNL     1       1.407   0.118   2.123  0.00  0.00    +0.049 A 
ATOM     15  C   UNL     1       1.948  -0.539   3.212  0.00  0.00    +0.004 A 
ATOM     16  C   UNL     1       1.963  -1.921   3.252  0.00  0.00    +0.006 A 
ATOM     17  C   UNL     1       1.436  -2.651   2.204  0.00  0.00    -0.016 A 
ATOM     18  C   UNL     1       0.886  -1.999   1.112  0.00  0.00    +0.160 A 
BRANCH  13  20
ATOM     19  C   UNL     1       0.369   1.466   0.021  0.00  0.00    +0.277 C 
ATOM     20  O   UNL     1       0.344   0.037  -0.003  0.00  0.00    -0.491 OA
ENDBRANCH  13  20
BRANCH  18  21
ATOM     21  O   UNL     1       0.363  -2.716   0.082  0.00  0.00    -0.503 OA
ATOM     22  H   UNL     1       1.000  -2.930  -0.613  0.00  0.00    +0.292 HD
ENDBRANCH  18  21
ENDBRANCH   1  17
BRANCH   8  23
ATOM     23  C   UNL     1      -0.524  -3.579   6.340  0.00  0.00    +0.045 A 
ATOM     24  C   UNL     1       0.461  -3.188   7.239  0.00  0.00    +0.024 A 
ATOM     25  C   UNL     1       0.117  -2.524   8.402  0.00  0.00    +0.003 A 
ATOM     26  C   UNL     1      -1.205  -2.245   8.679  0.00  0.00    +0.015 A 
ATOM     27  C   UNL     1      -2.203  -2.635   7.782  0.00  0.00    +0.065 A 
ATOM     28  C   UNL     1      -1.855  -3.300   6.604  0.00  0.00    +0.039 A 
BRANCH  27  29
ATOM     29  C   UNL     1      -3.619  -2.339   8.074  0.00  0.00    +0.387 C 
ATOM     30  O   UNL     1      -3.921  -1.751   9.103  0.00  0.00    -0.241 OA
ATOM     31  O   UNL     1      -4.490  -2.680   7.287  0.00  0.00    -0.241 OA
ENDBRANCH  27  29
ENDBRANCH   8  23
BRANCH   4  32
ATOM     32  C   UNL     1       2.829  -6.451   4.765  0.00  0.00    +0.343 C 
ATOM     33  O   UNL     1       3.000  -7.636   4.994  0.00  0.00    -0.248 OA
ATOM     34  OXT UNL     1       3.224  -5.613   5.558  0.00  0.00    -0.248 OA
ENDBRANCH   4  32
TORSDOF 6
