REMARK  Name = ZINC59398618
REMARK  8 active torsions:
REMARK  status: ('A' for Active; 'I' for Inactive)
REMARK    1  A    between atoms: C_1  and  C_2
REMARK    2  A    between atoms: C_3  and  C_28
REMARK    3  A    between atoms: C_4  and  C_23
REMARK    4  A    between atoms: C_10  and  C_11
REMARK    5  A    between atoms: C_14  and  N_17
REMARK    6  A    between atoms: N_17  and  C_18
REMARK    7  A    between atoms: N_17  and  C_19
REMARK    8  A    between atoms: N_30  and  C_31
REMARK                            x       y       z     vdW  Elec       q    Type
REMARK                         _______ _______ _______ _____ _____    ______ ____
ROOT
ATOM      1  C   UNL     1      -0.854   1.066   3.052  0.00  0.00    +0.066 C 
ATOM      2  C   UNL     1      -0.425  -0.071   2.162  0.00  0.00    +0.052 C 
ATOM      3  C   UNL     1      -1.357  -0.950   1.689  0.00  0.00    +0.063 C 
ATOM      4  C   UNL     1      -0.886  -2.077   0.799  0.00  0.00    +0.166 C 
ATOM      5  N   UNL     1       0.572  -2.144   0.501  0.00  0.00    -0.274 N 
ATOM      6  C   UNL     1       1.178  -3.062  -0.263  0.00  0.00    +0.268 A 
ATOM      7  O   UNL     1       0.542  -3.953  -0.795  0.00  0.00    -0.266 OA
ATOM      8  C   UNL     1       2.633  -2.962  -0.439  0.00  0.00    +0.081 A 
ATOM      9  C   UNL     1       3.473  -3.756  -1.154  0.00  0.00    +0.028 C 
ATOM     10  S   UNL     1       2.999  -1.514   0.540  0.00  0.00    -0.046 S 
ATOM     11  C   UNL     1       1.338  -1.158   1.080  0.00  0.00    +0.178 A 
ATOM     12  N   UNL     1       0.856  -0.207   1.839  0.00  0.00    -0.228 NA
ENDROOT
BRANCH   9  13
ATOM     13  C   UNL     1       2.928  -4.793  -2.037  0.00  0.00    -0.024 A 
ATOM     14  C   UNL     1       1.758  -4.550  -2.770  0.00  0.00    +0.010 A 
ATOM     15  C   UNL     1       1.253  -5.522  -3.593  0.00  0.00    +0.023 A 
ATOM     16  C   UNL     1       1.900  -6.750  -3.702  0.00  0.00    +0.029 A 
ATOM     17  C   UNL     1       3.062  -6.998  -2.976  0.00  0.00    +0.023 A 
ATOM     18  C   UNL     1       3.578  -6.029  -2.154  0.00  0.00    +0.010 A 
BRANCH  16  19
ATOM     19  N   UNL     1       1.383  -7.735  -4.540  0.00  0.00    -0.336 N 
ATOM     20  C   UNL     1       0.228  -7.439  -5.392  0.00  0.00    +0.129 C 
ATOM     21  C   UNL     1       1.994  -9.066  -4.570  0.00  0.00    +0.129 C 
ENDBRANCH  16  19
ENDBRANCH   9  13
BRANCH   4  22
ATOM     22  C   UNL     1      -1.287  -3.377   1.446  0.00  0.00    +0.017 A 
ATOM     23  C   UNL     1      -0.811  -3.949   2.579  0.00  0.00    +0.013 A 
ATOM     24  C   UNL     1      -1.335  -5.161   2.989  0.00  0.00    +0.008 A 
ATOM     25  C   UNL     1      -2.307  -5.742   2.245  0.00  0.00    +0.045 A 
ATOM     26  S   UNL     1      -2.517  -4.561   0.923  0.00  0.00    -0.099 S 
ENDBRANCH   4  22
BRANCH   3  27
ATOM     27  C   UNL     1      -2.717  -0.811   2.022  0.00  0.00    +0.248 C 
ATOM     28  O   UNL     1      -3.063   0.032   2.832  0.00  0.00    -0.270 OA
ATOM     29  N   UNL     1      -3.637  -1.609   1.445  0.00  0.00    -0.282 N 
ATOM     30  H   UNL     1      -3.355  -2.338   0.870  0.00  0.00    +0.155 HD
BRANCH  29  31
ATOM     31  C   UNL     1      -4.998  -1.388   1.676  0.00  0.00    +0.034 A 
ATOM     32  C   UNL     1      -5.483  -0.091   1.788  0.00  0.00    +0.023 A 
ATOM     33  C   UNL     1      -6.828   0.124   2.015  0.00  0.00    +0.002 A 
ATOM     34  C   UNL     1      -7.692  -0.949   2.131  0.00  0.00    +0.000 A 
ATOM     35  C   UNL     1      -7.212  -2.241   2.021  0.00  0.00    +0.002 A 
ATOM     36  C   UNL     1      -5.869  -2.464   1.788  0.00  0.00    +0.023 A 
ENDBRANCH  29  31
ENDBRANCH   3  27
TORSDOF 5
