REMARK  Name = ZINC15224952
REMARK  11 active torsions:
REMARK  status: ('A' for Active; 'I' for Inactive)
REMARK    1  A    between atoms: C_1  and  C_2
REMARK    2  A    between atoms: C_2  and  C_3
REMARK    3  A    between atoms: C_7  and  N_9
REMARK    4  A    between atoms: C_10  and  C_12
REMARK    5  A    between atoms: C_12  and  O_13
REMARK    6  A    between atoms: O_13  and  C_14
REMARK    7  A    between atoms: C_14  and  C_16
REMARK    8  A    between atoms: C_18  and  S_24
REMARK    9  A    between atoms: C_21  and  O_22
REMARK   10  A    between atoms: O_22  and  C_23
REMARK   11  A    between atoms: S_24  and  N_27
REMARK                            x       y       z     vdW  Elec       q    Type
REMARK                         _______ _______ _______ _____ _____    ______ ____
ROOT
ATOM      1  C   UNL     1      -2.016  -2.924  -3.467  0.00  0.00    +0.102 A 
ATOM      2  C   UNL     1      -1.785  -2.800  -2.095  0.00  0.00    +0.047 A 
ATOM      3  C   UNL     1      -2.442  -1.829  -1.373  0.00  0.00    +0.110 A 
ATOM      4  C   UNL     1      -3.337  -0.977  -2.000  0.00  0.00    +0.032 A 
ATOM      5  C   UNL     1      -3.571  -1.085  -3.356  0.00  0.00    +0.048 A 
ATOM      6  C   UNL     1      -2.918  -2.057  -4.099  0.00  0.00    +0.134 A 
ENDROOT
BRANCH   3   7
ATOM      7  S   UNL     1      -2.150  -1.673   0.358  0.00  0.00    +0.075 S 
ATOM      8  O   UNL     1      -1.688  -2.940   0.807  0.00  0.00    -0.150 OA
ATOM      9  O   UNL     1      -3.297  -1.041   0.909  0.00  0.00    -0.150 OA
BRANCH   7  10
ATOM     10  N   UNL     1      -0.889  -0.616   0.548  0.00  0.00    -0.202 N 
ATOM     11  C   UNL     1      -1.026   0.836   0.694  0.00  0.00    +0.136 C 
ATOM     12  C   UNL     1       0.411   1.363   0.839  0.00  0.00    +0.058 C 
ATOM     13  C   UNL     1       1.278   0.127   0.761  0.00  0.00    -0.023 A 
ATOM     14  C   UNL     1       0.458  -0.977   0.593  0.00  0.00    +0.054 A 
ATOM     15  C   UNL     1       1.038  -2.244   0.495  0.00  0.00    +0.025 A 
ATOM     16  C   UNL     1       2.408  -2.388   0.563  0.00  0.00    +0.002 A 
ATOM     17  C   UNL     1       3.217  -1.280   0.731  0.00  0.00    +0.000 A 
ATOM     18  C   UNL     1       2.650  -0.022   0.829  0.00  0.00    +0.005 A 
ENDBRANCH   7  10
ENDBRANCH   3   7
BRANCH   1  19
ATOM     19  C   UNL     1      -1.316  -3.962  -4.246  0.00  0.00    +0.343 C 
ATOM     20  O   UNL     1      -1.520  -4.066  -5.440  0.00  0.00    -0.245 OA
BRANCH  19  21
ATOM     21  O   UNL     1      -0.450  -4.794  -3.635  0.00  0.00    -0.452 OA
BRANCH  21  22
ATOM     22  C   UNL     1       0.203  -5.791  -4.464  0.00  0.00    +0.328 C 
BRANCH  22  24
ATOM     23  N   UNL     1       1.845  -7.618  -4.174  0.00  0.00    -0.283 N 
ATOM     24  C   UNL     1       1.128  -6.623  -3.614  0.00  0.00    +0.255 C 
ATOM     25  O   UNL     1       1.227  -6.398  -2.427  0.00  0.00    -0.272 OA
ATOM     26  H   UNL     1       1.709  -7.848  -5.107  0.00  0.00    +0.155 HD
BRANCH  23  31
ATOM     27  C   UNL     1       3.944 -10.354  -2.899  0.00  0.00    -0.046 A 
ATOM     28  C   UNL     1       4.643  -9.704  -1.899  0.00  0.00    +0.004 A 
ATOM     29  C   UNL     1       4.415  -8.363  -1.652  0.00  0.00    +0.002 A 
ATOM     30  C   UNL     1       3.492  -7.667  -2.409  0.00  0.00    +0.023 A 
ATOM     31  C   UNL     1       2.784  -8.319  -3.410  0.00  0.00    +0.034 A 
ATOM     32  C   UNL     1       3.016  -9.666  -3.655  0.00  0.00    +0.027 A 
BRANCH  27  34
ATOM     33  C   UNL     1       5.312 -11.961  -4.202  0.00  0.00    +0.009 C 
ATOM     34  C   UNL     1       4.196 -11.816  -3.165  0.00  0.00    +0.032 C 
ENDBRANCH  27  34
ENDBRANCH  23  31
ENDBRANCH  22  24
ENDBRANCH  21  22
ENDBRANCH  19  21
ENDBRANCH   1  19
BRANCH   6  35
ATOM     35  O   UNL     1      -3.151  -2.168  -5.431  0.00  0.00    -0.494 OA
ATOM     36  C   UNL     1      -4.083  -1.249  -6.005  0.00  0.00    +0.277 C 
ENDBRANCH   6  35
TORSDOF 9
