REMARK  Name = ZINC06725104
REMARK  7 active torsions:
REMARK  status: ('A' for Active; 'I' for Inactive)
REMARK    1  A    between atoms: C_1  and  C_2
REMARK    2  A    between atoms: C_2  and  C_3
REMARK    3  A    between atoms: C_3  and  C_5
REMARK    4  A    between atoms: C_3  and  N_6
REMARK    5  A    between atoms: C_7  and  C_9
REMARK    6  A    between atoms: C_9  and  O_27
REMARK    7  A    between atoms: N_19  and  C_20
REMARK                            x       y       z     vdW  Elec       q    Type
REMARK                         _______ _______ _______ _____ _____    ______ ____
ROOT
ATOM      1  C   UNL     1      -1.116   4.835  -1.792  0.00  0.00    +0.247 C 
ATOM      2  C   UNL     1      -1.278   5.394  -0.397  0.00  0.00    +0.033 A 
ATOM      3  C   UNL     1      -2.020   4.736   0.556  0.00  0.00    +0.010 A 
ATOM      4  C   UNL     1      -2.146   5.278   1.824  0.00  0.00    +0.001 A 
ATOM      5  C   UNL     1      -1.528   6.477   2.129  0.00  0.00    +0.002 A 
ATOM      6  C   UNL     1      -0.782   7.140   1.174  0.00  0.00    +0.024 A 
ATOM      7  C   UNL     1      -0.652   6.600  -0.099  0.00  0.00    +0.043 A 
ATOM      8  N   UNL     1       0.097   7.254  -1.077  0.00  0.00    -0.269 N 
ATOM      9  C   UNL     1       0.253   6.774  -2.318  0.00  0.00    +0.314 C 
ATOM     10  O   UNL     1       0.924   7.412  -3.106  0.00  0.00    -0.252 OA
ATOM     11  N   UNL     1      -0.300   5.620  -2.733  0.00  0.00    -0.214 N 
ATOM     12  H   UNL     1       0.525   8.094  -0.849  0.00  0.00    +0.156 HD
ENDROOT
BRANCH  11  13
ATOM     13  C   UNL     1      -0.101   5.171  -4.044  0.00  0.00    +0.041 A 
ATOM     14  C   UNL     1       1.052   4.468  -4.370  0.00  0.00    +0.025 A 
ATOM     15  C   UNL     1       1.244   4.022  -5.663  0.00  0.00    +0.022 A 
ATOM     16  C   UNL     1       0.294   4.284  -6.635  0.00  0.00    +0.041 A 
ATOM     17  C   UNL     1      -0.852   4.989  -6.313  0.00  0.00    +0.022 A 
ATOM     18  C   UNL     1      -1.052   5.433  -5.021  0.00  0.00    +0.025 A 
ATOM     19 CL   UNL     1       0.542   3.728  -8.261  0.00  0.00    -0.084 Cl
ENDBRANCH  11  13
BRANCH   1  21
ATOM     20  N   UNL     1       0.739   3.324  -1.164  0.00  0.00    -0.309 N 
ATOM     21  C   UNL     1      -0.501   3.465  -1.674  0.00  0.00    +0.269 C 
ATOM     22  O   UNL     1      -1.121   2.488  -2.039  0.00  0.00    -0.270 OA
ATOM     23  H   UNL     1       1.235   4.104  -0.873  0.00  0.00    +0.149 HD
BRANCH  20  24
ATOM     24  C   UNL     1       1.337   1.991  -1.050  0.00  0.00    +0.070 C 
ATOM     25  C   UNL     1       1.999   1.614  -2.377  0.00  0.00    +0.028 C 
BRANCH  24  27
ATOM     26  C   UNL     1       1.707   2.252   1.407  0.00  0.00    +0.005 C 
ATOM     27  C   UNL     1       2.389   1.998   0.061  0.00  0.00    +0.018 C 
ENDBRANCH  24  27
ENDBRANCH  20  24
ENDBRANCH   1  21
BRANCH   1  28
ATOM     28  O   UNL     1      -2.419   4.682  -2.359  0.00  0.00    -0.360 OA
ATOM     29  H   UNL     1      -3.014   4.130  -1.834  0.00  0.00    +0.213 HD
ENDBRANCH   1  28
TORSDOF 5
