REMARK  Name = ZINC39988927
REMARK  7 active torsions:
REMARK  status: ('A' for Active; 'I' for Inactive)
REMARK    1  A    between atoms: C_1  and  C_2
REMARK    2  A    between atoms: C_6  and  C_8
REMARK    3  A    between atoms: C_11  and  C_21
REMARK    4  A    between atoms: C_14  and  C_16
REMARK    5  A    between atoms: C_16  and  C_17
REMARK    6  A    between atoms: C_17  and  C_18
REMARK    7  A    between atoms: C_23  and  C_34
REMARK                            x       y       z     vdW  Elec       q    Type
REMARK                         _______ _______ _______ _____ _____    ______ ____
ROOT
ATOM      1  C   UNL     1       0.181  -2.774   2.633  0.00  0.00    +0.137 C 
ATOM      2  C   UNL     1       1.585  -3.347   2.914  0.00  0.00    +0.083 C 
ATOM      3  C   UNL     1       1.374  -4.844   2.900  0.00  0.00    +0.055 C 
ATOM      4  N   UNL     1       0.152  -5.103   2.669  0.00  0.00    -0.185 NA
ATOM      5  N   UNL     1      -0.657  -3.977   2.496  0.00  0.00    -0.185 N 
ATOM      6  C   UNL     1      -1.981  -3.987   2.243  0.00  0.00    +0.236 C 
ATOM      7  O   UNL     1      -2.581  -2.942   2.110  0.00  0.00    -0.274 OA
ENDROOT
BRANCH   3   8
ATOM      8  C   UNL     1       2.451  -5.874   3.124  0.00  0.00    +0.152 C 
ATOM      9  C   UNL     1       1.781  -7.229   3.245  0.00  0.00    -0.014 C 
ATOM     10  C   UNL     1       2.177  -8.216   2.338  0.00  0.00    +0.002 A 
ATOM     11  C   UNL     1       1.605  -9.505   2.379  0.00  0.00    +0.030 A 
ATOM     12  C   UNL     1       2.009 -10.447   1.484  0.00  0.00    +0.042 A 
ATOM     13  C   UNL     1       2.980 -10.165   0.524  0.00  0.00    +0.022 A 
ATOM     14  C   UNL     1       3.567  -8.940   0.435  0.00  0.00    +0.025 A 
ATOM     15  C   UNL     1       3.199  -7.918   1.328  0.00  0.00    +0.041 A 
ATOM     16  N   UNL     1       3.777  -6.715   1.239  0.00  0.00    -0.284 N 
ATOM     17  C   UNL     1       3.487  -5.707   2.036  0.00  0.00    +0.230 C 
ATOM     18  O   UNL     1       4.054  -4.639   1.895  0.00  0.00    -0.274 OA
ATOM     19 CL   UNL     1       1.302 -12.031   1.538  0.00  0.00    -0.084 Cl
ATOM     20  H   UNL     1       4.446  -6.578   0.550  0.00  0.00    +0.155 HD
BRANCH   9  21
ATOM     21  C   UNL     1       0.797  -7.484   4.233  0.00  0.00    -0.020 A 
ATOM     22  C   UNL     1      -0.513  -7.823   3.856  0.00  0.00    +0.008 A 
ATOM     23  C   UNL     1      -1.461  -8.068   4.824  0.00  0.00    +0.001 A 
ATOM     24  C   UNL     1      -1.127  -7.982   6.166  0.00  0.00    +0.000 A 
ATOM     25  C   UNL     1       0.163  -7.648   6.548  0.00  0.00    +0.001 A 
ATOM     26  C   UNL     1       1.127  -7.405   5.596  0.00  0.00    +0.008 A 
ENDBRANCH   9  21
ENDBRANCH   3   8
BRANCH   1  32
ATOM     27  C   UNL     1       0.222   1.646   0.286  0.00  0.00    +0.044 C 
ATOM     28  C   UNL     1       0.197   0.140   0.233  0.00  0.00    -0.050 A 
ATOM     29  C   UNL     1       0.171  -0.508  -0.988  0.00  0.00    +0.003 A 
ATOM     30  C   UNL     1       0.148  -1.889  -1.037  0.00  0.00    +0.001 A 
ATOM     31  C   UNL     1       0.151  -2.623   0.135  0.00  0.00    +0.005 A 
ATOM     32  C   UNL     1       0.178  -1.975   1.356  0.00  0.00    -0.024 A 
ATOM     33  C   UNL     1       0.205  -0.593   1.405  0.00  0.00    +0.009 A 
ENDBRANCH   1  32
BRANCH   6  34
ATOM     34  C   UNL     1      -2.715  -5.298   2.127  0.00  0.00    +0.109 C 
BRANCH  34  35
ATOM     35  C   UNL     1      -4.194  -5.030   1.841  0.00  0.00    +0.134 C 
BRANCH  35  36
ATOM     36  C   UNL     1      -4.928  -6.341   1.724  0.00  0.00    +0.356 C 
ATOM     37  O   UNL     1      -4.325  -7.392   1.859  0.00  0.00    -0.246 OA
ATOM     38  O   UNL     1      -6.126  -6.351   1.496  0.00  0.00    -0.246 OA
ENDBRANCH  35  36
ENDBRANCH  34  35
ENDBRANCH   6  34
TORSDOF 6
