REMARK  Name = ZINC45513249
REMARK  7 active torsions:
REMARK  status: ('A' for Active; 'I' for Inactive)
REMARK    1  A    between atoms: C_1  and  C_2
REMARK    2  A    between atoms: C_2  and  C_4
REMARK    3  A    between atoms: C_2  and  N_12
REMARK    4  A    between atoms: C_13  and  C_15
REMARK    5  A    between atoms: C_15  and  C_17
REMARK    6  A    between atoms: C_15  and  N_18
REMARK    7  A    between atoms: C_21  and  N_24
REMARK                            x       y       z     vdW  Elec       q    Type
REMARK                         _______ _______ _______ _____ _____    ______ ____
ROOT
ATOM      1  N   UNL     1      -3.800  -1.619  -2.512  0.00  0.00    +0.387 N 
ATOM      2  C   UNL     1      -5.120  -2.261  -2.497  0.00  0.00    -0.076 C 
ATOM      3  C   UNL     1      -5.594  -2.497  -3.932  0.00  0.00    +0.006 C 
ATOM      4  C   UNL     1      -4.592  -3.404  -4.652  0.00  0.00    +0.089 C 
ATOM      5  C   UNL     1      -3.204  -2.760  -4.597  0.00  0.00    +0.006 C 
ATOM      6  C   UNL     1      -2.819  -2.514  -3.137  0.00  0.00    -0.076 C 
ATOM      7  H   UNL     1      -3.853  -0.759  -3.038  0.00  0.00    -0.081 HD
ENDROOT
BRANCH   4   8
ATOM      8  N   UNL     1      -4.999  -3.573  -6.049  0.00  0.00    -0.289 N 
ATOM      9  C   UNL     1      -5.313  -4.782  -6.666  0.00  0.00    +0.070 A 
ATOM     10  C   UNL     1      -5.346  -6.095  -6.224  0.00  0.00    +0.028 A 
ATOM     11  C   UNL     1      -5.707  -7.104  -7.095  0.00  0.00    +0.002 A 
ATOM     12  C   UNL     1      -6.035  -6.810  -8.408  0.00  0.00    +0.002 A 
ATOM     13  C   UNL     1      -6.005  -5.505  -8.857  0.00  0.00    +0.028 A 
ATOM     14  C   UNL     1      -5.644  -4.484  -7.990  0.00  0.00    +0.067 A 
ATOM     15  N   UNL     1      -5.521  -3.105  -8.136  0.00  0.00    -0.306 N 
ATOM     16  H   UNL     1      -5.687  -2.603  -8.949  0.00  0.00    +0.170 HD
ATOM     17  C   UNL     1      -5.138  -2.586  -6.954  0.00  0.00    +0.328 A 
ATOM     18  O   UNL     1      -4.944  -1.404  -6.737  0.00  0.00    -0.247 OA
ENDBRANCH   4   8
BRANCH   1  19
ATOM     19  C   UNL     1      -3.385  -1.324  -1.134  0.00  0.00    +0.016 C 
ATOM     20  C   UNL     1      -4.398  -0.376  -0.488  0.00  0.00    -0.004 C 
BRANCH  19  22
ATOM     21  N   UNL     1      -1.212  -0.789  -0.080  0.00  0.00    -0.310 N 
ATOM     22  C   UNL     1      -2.026  -0.673  -1.148  0.00  0.00    +0.200 C 
ATOM     23  O   UNL     1      -1.665  -0.044  -2.120  0.00  0.00    -0.278 OA
ATOM     24  H   UNL     1      -1.501  -1.292   0.697  0.00  0.00    +0.149 HD
BRANCH  21  26
ATOM     25  C   UNL     1      -0.008   1.280   0.420  0.00  0.00    +0.033 C 
ATOM     26  C   UNL     1       0.109  -0.157  -0.094  0.00  0.00    +0.101 C 
BRANCH  26  27
ATOM     27  C   UNL     1       1.047  -0.933   0.795  0.00  0.00    -0.009 A 
ATOM     28  C   UNL     1       0.545  -1.679   1.845  0.00  0.00    +0.008 A 
ATOM     29  C   UNL     1       1.404  -2.390   2.660  0.00  0.00    +0.020 A 
ATOM     30  C   UNL     1       2.768  -2.357   2.426  0.00  0.00    +0.042 A 
ATOM     31  C   UNL     1       3.270  -1.612   1.375  0.00  0.00    +0.040 A 
ATOM     32  C   UNL     1       2.409  -0.903   0.556  0.00  0.00    +0.047 A 
ATOM     33 CL   UNL     1       3.039   0.029  -0.767  0.00  0.00    -0.083 Cl
ATOM     34 CL   UNL     1       3.847  -3.251   3.450  0.00  0.00    -0.083 Cl
ENDBRANCH  26  27
ENDBRANCH  21  26
ENDBRANCH  19  22
ENDBRANCH   1  19
TORSDOF 5
