REMARK  Name = ZINC23064920
REMARK  8 active torsions:
REMARK  status: ('A' for Active; 'I' for Inactive)
REMARK    1  A    between atoms: C_1  and  C_2
REMARK    2  A    between atoms: C_2  and  C_3
REMARK    3  A    between atoms: C_3  and  C_4
REMARK    4  A    between atoms: C_7  and  C_10
REMARK    5  A    between atoms: C_10  and  C_31
REMARK    6  A    between atoms: N_13  and  C_17
REMARK    7  A    between atoms: C_17  and  C_18
REMARK    8  A    between atoms: N_23  and  C_24
REMARK                            x       y       z     vdW  Elec       q    Type
REMARK                         _______ _______ _______ _____ _____    ______ ____
ROOT
ATOM      1  C   UNL     1      -0.019   1.472   0.006  0.00  0.00    +0.135 C 
ATOM      2  C   UNL     1       1.448   1.852  -0.009  0.00  0.00    +0.251 C 
ATOM      3  O   UNL     1       1.915   2.971  -0.016  0.00  0.00    -0.272 OA
ATOM      4  N   UNL     1       2.126   0.687  -0.014  0.00  0.00    -0.215 N 
ATOM      5  C   UNL     1       1.300  -0.365  -0.004  0.00  0.00    +0.310 C 
ATOM      6  O   UNL     1       1.677  -1.520  -0.006  0.00  0.00    -0.252 OA
ATOM      7  N   UNL     1       0.005  -0.001   0.009  0.00  0.00    -0.281 N 
ATOM      8  C   UNL     1      -0.725   1.997  -1.246  0.00  0.00    +0.047 C 
ATOM      9  H   UNL     1      -0.939  -0.567   0.019  0.00  0.00    +0.152 HD
ENDROOT
BRANCH   1  13
ATOM     10  C   UNL     1      -1.917   2.949   3.537  0.00  0.00    -0.047 A 
ATOM     11  C   UNL     1      -2.314   1.742   2.992  0.00  0.00    +0.004 A 
ATOM     12  C   UNL     1      -1.700   1.264   1.849  0.00  0.00    +0.006 A 
ATOM     13  C   UNL     1      -0.689   1.993   1.252  0.00  0.00    -0.015 A 
ATOM     14  C   UNL     1      -0.287   3.197   1.800  0.00  0.00    +0.006 A 
ATOM     15  C   UNL     1      -0.905   3.677   2.940  0.00  0.00    +0.004 A 
BRANCH  10  16
ATOM     16  C   UNL     1      -2.586   3.470   4.783  0.00  0.00    +0.035 C 
BRANCH  16  18
ATOM     17  C   UNL     1      -2.516   3.486   7.280  0.00  0.00    +0.004 C 
ATOM     18  C   UNL     1      -1.837   2.958   6.016  0.00  0.00    +0.001 C 
ENDBRANCH  16  18
ENDBRANCH  10  16
ENDBRANCH   1  13
BRANCH   4  19
ATOM     19  C   UNL     1       3.588   0.586  -0.028  0.00  0.00    +0.214 C 
BRANCH  19  20
ATOM     20  C   UNL     1       4.075   0.549  -1.453  0.00  0.00    +0.238 C 
ATOM     21  O   UNL     1       3.280   0.602  -2.367  0.00  0.00    -0.274 OA
ATOM     22  N   UNL     1       5.395   0.457  -1.712  0.00  0.00    -0.239 N 
ATOM     23  C   UNL     1       5.831   0.424  -2.987  0.00  0.00    +0.310 C 
ATOM     24  O   UNL     1       5.034   0.477  -3.903  0.00  0.00    -0.252 OA
ATOM     25  N   UNL     1       7.150   0.332  -3.246  0.00  0.00    -0.269 N 
ATOM     26  H   UNL     1       6.116   0.409  -0.883  0.00  0.00    +0.159 HD
ATOM     27  H   UNL     1       7.876   0.361  -2.420  0.00  0.00    +0.156 HD
BRANCH  25  28
ATOM     28  C   UNL     1       7.597   0.200  -4.566  0.00  0.00    +0.035 A 
ATOM     29  C   UNL     1       8.716  -0.572  -4.848  0.00  0.00    +0.024 A 
ATOM     30  C   UNL     1       9.151  -0.705  -6.152  0.00  0.00    +0.017 A 
ATOM     31  C   UNL     1       8.480  -0.060  -7.175  0.00  0.00    +0.018 A 
ATOM     32  C   UNL     1       7.368   0.715  -6.897  0.00  0.00    +0.017 A 
ATOM     33  C   UNL     1       6.925   0.846  -5.595  0.00  0.00    +0.024 A 
ATOM     34 BR   UNL     1       9.083  -0.239  -8.959  0.00  0.00    -0.050 Br
ENDBRANCH  25  28
ENDBRANCH  19  20
ENDBRANCH   4  19
TORSDOF 6
