REMARK  Name = ZINC40919822
REMARK  14 active torsions:
REMARK  status: ('A' for Active; 'I' for Inactive)
REMARK    1  A    between atoms: C_1  and  C_2
REMARK    2  A    between atoms: C_2  and  O_3
REMARK    3  A    between atoms: O_3  and  C_4
REMARK    4  A    between atoms: C_6  and  C_19
REMARK    5  A    between atoms: C_9  and  O_10
REMARK    6  A    between atoms: O_10  and  C_11
REMARK    7  A    between atoms: C_11  and  C_12
REMARK    8  A    between atoms: C_16  and  C_18
REMARK    9  A    between atoms: C_21  and  C_30
REMARK   10  A    between atoms: C_22  and  C_29
REMARK   11  A    between atoms: C_30  and  O_32
REMARK   12  A    between atoms: O_32  and  C_33
REMARK   13  A    between atoms: C_33  and  C_34
REMARK   14  A    between atoms: C_33  and  C_35
REMARK                            x       y       z     vdW  Elec       q    Type
REMARK                         _______ _______ _______ _____ _____    ______ ____
ROOT
ATOM      1  C   UNL     1       0.739  -1.731  -1.102  0.00  0.00    +0.162 A 
ATOM      2  C   UNL     1       0.124  -2.642  -0.257  0.00  0.00    +0.055 A 
ATOM      3  C   UNL     1       0.327  -3.997  -0.437  0.00  0.00    -0.015 A 
ATOM      4  C   UNL     1       1.142  -4.448  -1.458  0.00  0.00    +0.010 A 
ATOM      5  C   UNL     1       1.759  -3.546  -2.304  0.00  0.00    +0.050 A 
ATOM      6  C   UNL     1       1.555  -2.186  -2.134  0.00  0.00    +0.162 A 
ENDROOT
BRANCH   3   7
ATOM      7  C   UNL     1      -0.343  -4.986   0.483  0.00  0.00    +0.181 C 
ATOM      8  C   UNL     1       0.706  -5.806   1.188  0.00  0.00    +0.082 C 
ATOM      9  C   UNL     1       0.938  -7.097   0.905  0.00  0.00    +0.020 C 
ATOM     10  N   UNL     1       0.224  -7.779  -0.049  0.00  0.00    -0.286 N 
ATOM     11  C   UNL     1      -0.924  -7.174  -0.539  0.00  0.00    +0.240 A 
ATOM     12  N   UNL     1      -1.205  -5.867  -0.295  0.00  0.00    -0.201 N 
ATOM     13  N   UNL     1      -2.421  -5.620  -0.929  0.00  0.00    -0.042 NA
ATOM     14  N   UNL     1      -2.775  -6.731  -1.490  0.00  0.00    -0.021 NA
ATOM     15  N   UNL     1      -1.896  -7.649  -1.265  0.00  0.00    -0.092 NA
ATOM     16  C   UNL     1       2.021  -7.824   1.660  0.00  0.00    +0.061 C 
ATOM     17  H   UNL     1       0.510  -8.649  -0.367  0.00  0.00    +0.155 HD
BRANCH   8  18
ATOM     18  C   UNL     1       1.482  -5.187   2.193  0.00  0.00    +0.339 C 
ATOM     19  O   UNL     1       1.033  -5.061   3.317  0.00  0.00    -0.245 OA
BRANCH  18  20
ATOM     20  O   UNL     1       2.720  -4.734   1.906  0.00  0.00    -0.459 OA
BRANCH  20  21
ATOM     21  C   UNL     1       3.449  -4.119   2.971  0.00  0.00    +0.171 C 
ATOM     22  C   UNL     1       4.261  -5.181   3.714  0.00  0.00    +0.052 C 
ATOM     23  C   UNL     1       4.395  -3.062   2.397  0.00  0.00    +0.052 C 
ENDBRANCH  20  21
ENDBRANCH  18  20
ENDBRANCH   8  18
ENDBRANCH   3   7
BRANCH   1  24
ATOM     24  O   UNL     1       0.540  -0.397  -0.927  0.00  0.00    -0.489 OA
BRANCH  24  26
ATOM     25  C   UNL     1      -0.412   1.522   0.190  0.00  0.00    +0.048 C 
ATOM     26  C   UNL     1      -0.310  -0.004   0.152  0.00  0.00    +0.226 C 
ENDBRANCH  24  26
ENDBRANCH   1  24
BRANCH   6  27
ATOM     27  O   UNL     1       2.156  -1.296  -2.969  0.00  0.00    -0.484 OA
BRANCH  27  28
ATOM     28  C   UNL     1       2.980  -1.835  -4.005  0.00  0.00    +0.264 C 
BRANCH  28  29
ATOM     29  C   UNL     1       3.557  -0.709  -4.824  0.00  0.00    -0.010 A 
ATOM     30  C   UNL     1       2.871  -0.234  -5.926  0.00  0.00    +0.007 A 
ATOM     31  C   UNL     1       3.400   0.799  -6.677  0.00  0.00    +0.001 A 
ATOM     32  C   UNL     1       4.615   1.357  -6.326  0.00  0.00    +0.003 A 
ATOM     33  C   UNL     1       5.300   0.883  -5.223  0.00  0.00    -0.050 A 
ATOM     34  C   UNL     1       4.769  -0.147  -4.470  0.00  0.00    +0.010 A 
ATOM     35  C   UNL     1       6.625   1.491  -4.840  0.00  0.00    +0.044 C 
ENDBRANCH  28  29
ENDBRANCH  27  28
ENDBRANCH   6  27
TORSDOF 9
