REMARK  Name = ZINC19113597
REMARK  6 active torsions:
REMARK  status: ('A' for Active; 'I' for Inactive)
REMARK    1  A    between atoms: N_10  and  C_13
REMARK    2  A    between atoms: C_13  and  C_14
REMARK    3  A    between atoms: C_18  and  O_20
REMARK    4  A    between atoms: O_20  and  C_21
REMARK    5  A    between atoms: C_27  and  C_29
REMARK    6  A    between atoms: C_30  and  C_31
REMARK                            x       y       z     vdW  Elec       q    Type
REMARK                         _______ _______ _______ _____ _____    ______ ____
ROOT
ATOM      1  C   UNL     1       0.176   9.822  -2.252  0.00  0.00    -0.030 A 
ATOM      2  C   UNL     1       1.020  10.098  -3.313  0.00  0.00    +0.005 A 
ATOM      3  C   UNL     1       0.506  10.598  -4.495  0.00  0.00    +0.004 A 
ATOM      4  C   UNL     1      -0.850  10.834  -4.616  0.00  0.00    +0.045 A 
ATOM      5  C   UNL     1      -1.697  10.564  -3.551  0.00  0.00    +0.121 A 
ATOM      6  C   UNL     1      -1.180  10.057  -2.368  0.00  0.00    +0.050 A 
ENDROOT
BRANCH   1   7
ATOM      7  C   UNL     1       0.739   9.272  -0.967  0.00  0.00    +0.119 C 
BRANCH   7  17
ATOM      8  C   UNL     1      -1.029   1.726  -0.206  0.00  0.00    +0.005 A 
ATOM      9  C   UNL     1       0.198   1.076  -0.214  0.00  0.00    +0.018 A 
ATOM     10  C   UNL     1       1.359   1.823  -0.177  0.00  0.00    +0.084 A 
ATOM     11  N   UNL     1       1.314   3.141  -0.129  0.00  0.00    -0.350 N 
ATOM     12  C   UNL     1       0.164   3.796  -0.115  0.00  0.00    +0.099 A 
ATOM     13  C   UNL     1      -1.044   3.108  -0.150  0.00  0.00    +0.042 A 
ATOM     14  N   UNL     1       0.164   5.186  -0.063  0.00  0.00    -0.314 N 
ATOM     15  C   UNL     1      -0.589   5.754  -1.189  0.00  0.00    +0.122 C 
ATOM     16  C   UNL     1      -0.633   7.278  -1.053  0.00  0.00    +0.103 C 
ATOM     17  N   UNL     1       0.739   7.804  -1.022  0.00  0.00    -0.295 NA
ATOM     18  C   UNL     1       1.492   7.235   0.105  0.00  0.00    +0.103 C 
ATOM     19  C   UNL     1       1.536   5.712  -0.032  0.00  0.00    +0.122 C 
ATOM     20  H   UNL     1       2.248   3.722  -0.100  0.00  0.00    +0.166 HD
ENDBRANCH   7  17
ENDBRANCH   1   7
BRANCH   5  21
ATOM     21  O   UNL     1      -3.031  10.795  -3.668  0.00  0.00    -0.489 OA
BRANCH  21  22
ATOM     22  C   UNL     1      -3.484  11.383  -4.889  0.00  0.00    +0.176 C 
ATOM     23  C   UNL     1      -3.305  12.901  -4.821  0.00  0.00    +0.063 C 
ATOM     24  C   UNL     1      -3.759  13.524  -6.145  0.00  0.00    +0.111 C 
ATOM     25  N   UNL     1      -5.134  13.090  -6.425  0.00  0.00    -0.298 N 
ATOM     26  C   UNL     1      -5.436  11.652  -6.424  0.00  0.00    +0.111 C 
ATOM     27  C   UNL     1      -4.963  11.050  -5.097  0.00  0.00    +0.063 C 
ATOM     28  C   UNL     1      -6.101  13.995  -6.677  0.00  0.00    +0.239 C 
ATOM     29  O   UNL     1      -5.823  15.176  -6.760  0.00  0.00    -0.271 OA
BRANCH  28  30
ATOM     30  C   UNL     1      -7.487  13.555  -6.851  0.00  0.00    +0.068 C 
ATOM     31  C   UNL     1      -8.471  14.466  -6.994  0.00  0.00    +0.013 C 
BRANCH  31  32
ATOM     32  C   UNL     1      -9.864  14.024  -7.169  0.00  0.00    -0.022 A 
ATOM     33  C   UNL     1     -10.886  14.966  -7.318  0.00  0.00    +0.008 A 
ATOM     34  C   UNL     1     -12.189  14.546  -7.481  0.00  0.00    +0.003 A 
ATOM     35  C   UNL     1     -12.488  13.195  -7.499  0.00  0.00    +0.038 A 
ATOM     36  C   UNL     1     -11.481  12.254  -7.352  0.00  0.00    +0.124 A 
ATOM     37  C   UNL     1     -10.170  12.660  -7.192  0.00  0.00    +0.046 A 
ATOM     38  F   UNL     1     -11.781  10.937  -7.371  0.00  0.00    -0.205 F 
ENDBRANCH  31  32
ENDBRANCH  28  30
ENDBRANCH  21  22
ENDBRANCH   5  21
TORSDOF 6
