REMARK  Name = ZINC37857840
REMARK  12 active torsions:
REMARK  status: ('A' for Active; 'I' for Inactive)
REMARK    1  A    between atoms: C_1  and  C_2
REMARK    2  A    between atoms: C_2  and  C_3
REMARK    3  A    between atoms: C_3  and  C_4
REMARK    4  A    between atoms: C_4  and  N_5
REMARK    5  A    between atoms: N_5  and  C_6
REMARK    6  A    between atoms: N_5  and  C_10
REMARK    7  A    between atoms: C_6  and  C_7
REMARK    8  A    between atoms: C_7  and  C_8
REMARK    9  A    between atoms: C_8  and  C_9
REMARK   10  A    between atoms: C_10  and  C_11
REMARK   11  A    between atoms: C_12  and  O_33
REMARK   12  A    between atoms: C_19  and  C_20
REMARK                            x       y       z     vdW  Elec       q    Type
REMARK                         _______ _______ _______ _____ _____    ______ ____
ROOT
ATOM      1  C   UNL     1      -0.476  -4.679  -3.232  0.00  0.00    +0.020 A 
ATOM      2  C   UNL     1      -1.160  -5.143  -2.120  0.00  0.00    +0.122 A 
ATOM      3  C   UNL     1      -2.502  -5.502  -2.213  0.00  0.00    +0.046 A 
ATOM      4  C   UNL     1      -3.160  -5.398  -3.407  0.00  0.00    +0.019 A 
ATOM      5  C   UNL     1      -2.484  -4.931  -4.534  0.00  0.00    +0.068 A 
ATOM      6  C   UNL     1      -1.131  -4.562  -4.452  0.00  0.00    +0.144 A 
ATOM      7  O   UNL     1      -0.700  -4.140  -5.661  0.00  0.00    -0.451 OA
ATOM      8  C   UNL     1      -1.683  -4.189  -6.591  0.00  0.00    +0.176 C 
ATOM      9  C   UNL     1      -1.570  -3.833  -7.896  0.00  0.00    +0.061 C 
ATOM     10  C   UNL     1      -2.891  -4.707  -5.933  0.00  0.00    +0.231 C 
ATOM     11  O   UNL     1      -3.988  -4.898  -6.431  0.00  0.00    -0.283 OA
ENDROOT
BRANCH   9  12
ATOM     12  C   UNL     1      -2.763  -3.787  -8.750  0.00  0.00    +0.022 A 
ATOM     13  C   UNL     1      -3.961  -3.256  -8.258  0.00  0.00    +0.031 A 
ATOM     14  C   UNL     1      -5.077  -3.219  -9.066  0.00  0.00    +0.042 A 
ATOM     15  C   UNL     1      -5.018  -3.706 -10.363  0.00  0.00    +0.029 A 
ATOM     16  C   UNL     1      -3.841  -4.234 -10.862  0.00  0.00    +0.022 A 
ATOM     17  C   UNL     1      -2.707  -4.271 -10.069  0.00  0.00    +0.136 A 
ATOM     18  O   UNL     1      -1.541  -4.772 -10.551  0.00  0.00    -0.465 OA
ATOM     19  C   UNL     1      -1.620  -5.567 -11.737  0.00  0.00    +0.395 C 
ATOM     20  O   UNL     1      -2.435  -4.880 -12.695  0.00  0.00    -0.339 OA
ATOM     21  C   UNL     1      -3.802  -4.762 -12.274  0.00  0.00    +0.202 C 
ATOM     22 CL   UNL     1      -6.563  -2.559  -8.458  0.00  0.00    -0.084 Cl
ENDBRANCH   9  12
BRANCH   2  23
ATOM     23  O   UNL     1      -0.516  -5.250  -0.930  0.00  0.00    -0.506 OA
ATOM     24  H   UNL     1      -0.564  -4.454  -0.385  0.00  0.00    +0.292 HD
ENDBRANCH   2  23
BRANCH   1  25
ATOM     25  C   UNL     1       0.976  -4.295  -3.118  0.00  0.00    -0.036 C 
BRANCH  25  26
ATOM     26  N   UNL     1       1.080  -2.874  -2.758  0.00  0.00    +0.383 N 
ATOM     27  H   UNL     1       0.569  -2.320  -3.429  0.00  0.00    -0.081 HD
BRANCH  26  28
ATOM     28  C   UNL     1       0.515  -2.665  -1.418  0.00  0.00    -0.078 C 
BRANCH  28  29
ATOM     29  C   UNL     1       0.526  -1.172  -1.087  0.00  0.00    -0.019 C 
BRANCH  29  31
ATOM     30  C   UNL     1      -0.173   0.554   0.579  0.00  0.00    +0.004 C 
ATOM     31  C   UNL     1      -0.184  -0.940   0.248  0.00  0.00    -0.005 C 
ENDBRANCH  29  31
ENDBRANCH  28  29
ENDBRANCH  26  28
BRANCH  26  32
ATOM     32  C   UNL     1       2.492  -2.470  -2.763  0.00  0.00    -0.078 C 
BRANCH  32  33
ATOM     33  C   UNL     1       3.041  -2.551  -4.189  0.00  0.00    -0.019 C 
BRANCH  33  34
ATOM     34  C   UNL     1       4.469  -2.002  -4.218  0.00  0.00    -0.005 C 
ATOM     35  C   UNL     1       5.018  -2.083  -5.644  0.00  0.00    +0.004 C 
ENDBRANCH  33  34
ENDBRANCH  32  33
ENDBRANCH  26  32
ENDBRANCH  25  26
ENDBRANCH   1  25
TORSDOF 10
