REMARK  Name = ZINC39747216
REMARK  6 active torsions:
REMARK  status: ('A' for Active; 'I' for Inactive)
REMARK    1  A    between atoms: C_1  and  C_2
REMARK    2  A    between atoms: C_5  and  O_8
REMARK    3  A    between atoms: O_8  and  C_9
REMARK    4  A    between atoms: C_11  and  C_22
REMARK    5  A    between atoms: C_23  and  C_24
REMARK    6  A    between atoms: C_23  and  C_26
REMARK                            x       y       z     vdW  Elec       q    Type
REMARK                         _______ _______ _______ _____ _____    ______ ____
ROOT
ATOM      1  C   UNL     1       0.072  -4.785   1.249  0.00  0.00    +0.308 C 
ATOM      2  C   UNL     1      -0.166  -6.282   1.050  0.00  0.00    +0.163 C 
ATOM      3  C   UNL     1       0.177  -7.011   2.324  0.00  0.00    +0.237 C 
ATOM      4  O   UNL     1      -0.468  -7.978   2.667  0.00  0.00    -0.274 OA
ATOM      5  N   UNL     1       1.207  -6.581   3.080  0.00  0.00    -0.231 N 
ATOM      6  C   UNL     1       1.615  -7.326   4.158  0.00  0.00    +0.085 C 
ATOM      7  C   UNL     1       2.718  -6.985   4.850  0.00  0.00    +0.016 C 
ATOM      8  C   UNL     1       3.472  -5.856   4.479  0.00  0.00    +0.005 C 
ATOM      9  C   UNL     1       3.052  -5.070   3.456  0.00  0.00    +0.044 C 
ATOM     10  C   UNL     1       1.855  -5.403   2.771  0.00  0.00    +0.130 C 
ATOM     11  N   UNL     1       1.365  -4.567   1.892  0.00  0.00    -0.225 NA
ENDROOT
BRANCH   2  12
ATOM     12  C   UNL     1       0.706  -6.786  -0.071  0.00  0.00    +0.010 C 
ATOM     13  C   UNL     1       0.152  -7.336  -1.149  0.00  0.00    +0.068 C 
BRANCH  13  14
ATOM     14  C   UNL     1       1.024  -7.840  -2.270  0.00  0.00    +0.216 C 
ATOM     15  N   UNL     1       0.654  -7.184  -3.530  0.00  0.00    -0.359 N 
ATOM     16  C   UNL     1       0.270  -8.114  -4.357  0.00  0.00    +0.060 A 
ATOM     17  C   UNL     1      -0.209  -8.080  -5.745  0.00  0.00    +0.027 A 
ATOM     18  C   UNL     1      -0.543  -9.232  -6.362  0.00  0.00    +0.002 A 
ATOM     19  C   UNL     1      -0.453 -10.484  -5.729  0.00  0.00    +0.002 A 
ATOM     20  C   UNL     1      -0.027 -10.627  -4.458  0.00  0.00    +0.027 A 
ATOM     21  C   UNL     1       0.366  -9.439  -3.687  0.00  0.00    +0.060 A 
ATOM     22  N   UNL     1       0.805  -9.278  -2.472  0.00  0.00    -0.359 N 
ATOM     23  H   UNL     1       0.689  -6.232  -3.714  0.00  0.00    +0.162 HD
ATOM     24  H   UNL     1       0.959  -9.979  -1.820  0.00  0.00    +0.162 HD
ENDBRANCH  13  14
BRANCH  13  25
ATOM     25  C   UNL     1      -1.272  -7.449  -1.244  0.00  0.00    +0.098 C 
ATOM     26  N   UNL     1      -2.402  -7.540  -1.319  0.00  0.00    -0.191 NA
ENDBRANCH  13  25
ENDBRANCH   2  12
BRANCH   1  27
ATOM     27  O   UNL     1       0.057  -4.129  -0.021  0.00  0.00    -0.466 OA
BRANCH  27  32
ATOM     28  C   UNL     1      -0.018   1.503   0.010  0.00  0.00    +0.044 C 
ATOM     29  C   UNL     1       0.002  -0.004   0.002  0.00  0.00    -0.050 A 
ATOM     30  C   UNL     1       0.006  -0.688  -1.200  0.00  0.00    +0.007 A 
ATOM     31  C   UNL     1       0.024  -2.069  -1.210  0.00  0.00    +0.046 A 
ATOM     32  C   UNL     1       0.039  -2.770  -0.013  0.00  0.00    +0.123 A 
ATOM     33  C   UNL     1       0.036  -2.082   1.191  0.00  0.00    +0.046 A 
ATOM     34  C   UNL     1       0.023  -0.701   1.196  0.00  0.00    +0.007 A 
ENDBRANCH  27  32
ENDBRANCH   1  27
TORSDOF 5
