REMARK  Name = ZINC08884553
REMARK  8 active torsions:
REMARK  status: ('A' for Active; 'I' for Inactive)
REMARK    1  A    between atoms: C_3  and  C_9
REMARK    2  A    between atoms: C_9  and  N_10
REMARK    3  A    between atoms: C_11  and  C_13
REMARK    4  A    between atoms: C_13  and  O_14
REMARK    5  A    between atoms: O_14  and  C_15
REMARK    6  A    between atoms: C_15  and  C_17
REMARK    7  A    between atoms: N_20  and  C_23
REMARK    8  A    between atoms: C_26  and  C_28
REMARK                            x       y       z     vdW  Elec       q    Type
REMARK                         _______ _______ _______ _____ _____    ______ ____
ROOT
ATOM      1  C   UNL     1      -5.369   3.729   7.887  0.00  0.00    +0.311 C 
ATOM      2  O   UNL     1      -5.935   4.790   7.767  0.00  0.00    -0.251 OA
ENDROOT
BRANCH   1   3
ATOM      3  C   UNL     1      -4.716   3.085   6.691  0.00  0.00    +0.101 C 
ATOM      4  C   UNL     1      -4.915   3.973   5.459  0.00  0.00    +0.033 C 
ATOM      5  C   UNL     1      -4.200   3.343   4.262  0.00  0.00    +0.107 C 
ATOM      6  N   UNL     1      -2.769   3.205   4.561  0.00  0.00    -0.317 N 
ATOM      7  C   UNL     1      -2.551   2.319   5.712  0.00  0.00    +0.107 C 
ATOM      8  C   UNL     1      -3.217   2.918   6.953  0.00  0.00    +0.033 C 
BRANCH   6   9
ATOM      9  C   UNL     1      -2.068   2.757   3.448  0.00  0.00    +0.099 A 
ATOM     10  C   UNL     1      -0.692   2.563   3.532  0.00  0.00    +0.042 A 
ATOM     11  C   UNL     1      -0.007   2.118   2.416  0.00  0.00    +0.017 A 
ATOM     12  C   UNL     1      -0.722   1.881   1.250  0.00  0.00    +0.071 A 
ATOM     13  C   UNL     1      -2.085   2.100   1.236  0.00  0.00    +0.096 A 
ATOM     14  N   UNL     1      -2.792   2.532   2.314  0.00  0.00    -0.349 N 
ATOM     15  H   UNL     1      -3.808   2.679   2.277  0.00  0.00    +0.167 HD
BRANCH  12  16
ATOM     16  C   UNL     1      -0.017   1.395   0.010  0.00  0.00    +0.419 C 
ATOM     17  F   UNL     1       0.002  -0.004   0.002  0.00  0.00    -0.166 F 
ATOM     18  F   UNL     1       1.296   1.879  -0.000  0.00  0.00    -0.166 F 
ATOM     19  F   UNL     1      -0.694   1.858  -1.124  0.00  0.00    -0.166 F 
ENDBRANCH  12  16
ENDBRANCH   6   9
ENDBRANCH   1   3
BRANCH   1  20
ATOM     20  O   UNL     1      -5.321   3.125   9.084  0.00  0.00    -0.455 OA
BRANCH  20  21
ATOM     21  C   UNL     1      -5.971   3.803  10.191  0.00  0.00    +0.327 C 
BRANCH  21  23
ATOM     22  N   UNL     1      -6.341   3.418  12.606  0.00  0.00    -0.308 N 
ATOM     23  C   UNL     1      -5.814   2.982  11.445  0.00  0.00    +0.251 C 
ATOM     24  O   UNL     1      -5.214   1.929  11.409  0.00  0.00    -0.272 OA
ATOM     25  H   UNL     1      -6.822   4.260  12.635  0.00  0.00    +0.149 HD
BRANCH  22  26
ATOM     26  C   UNL     1      -6.189   2.620  13.825  0.00  0.00    +0.141 C 
BRANCH  26  29
ATOM     27  C   UNL     1      -8.696   3.507  16.506  0.00  0.00    +0.020 A 
ATOM     28  C   UNL     1      -8.076   2.862  15.451  0.00  0.00    +0.008 A 
ATOM     29  C   UNL     1      -6.864   3.324  14.974  0.00  0.00    -0.012 A 
ATOM     30  C   UNL     1      -6.267   4.428  15.556  0.00  0.00    +0.047 A 
ATOM     31  C   UNL     1      -6.889   5.077  16.607  0.00  0.00    +0.040 A 
ATOM     32  C   UNL     1      -8.102   4.615  17.084  0.00  0.00    +0.042 A 
ATOM     33 CL   UNL     1      -8.880   5.425  18.407  0.00  0.00    -0.083 Cl
ATOM     34 CL   UNL     1      -4.741   5.003  14.961  0.00  0.00    -0.083 Cl
ENDBRANCH  26  29
ENDBRANCH  22  26
ENDBRANCH  21  23
ENDBRANCH  20  21
ENDBRANCH   1  20
TORSDOF 8
