REMARK  Name = ZINC06198305
REMARK  8 active torsions:
REMARK  status: ('A' for Active; 'I' for Inactive)
REMARK    1  A    between atoms: C_1  and  C_2
REMARK    2  A    between atoms: C_2  and  C_3
REMARK    3  A    between atoms: C_10  and  C_15
REMARK    4  A    between atoms: C_15  and  C_17
REMARK    5  A    between atoms: C_15  and  N_64
REMARK    6  A    between atoms: N_21  and  C_22
REMARK    7  A    between atoms: C_22  and  C_23
REMARK    8  A    between atoms: C_31  and  C_34
REMARK                            x       y       z     vdW  Elec       q    Type
REMARK                         _______ _______ _______ _____ _____    ______ ____
ROOT
ATOM      1  C   UNL     1       0.752   5.481  -1.418  0.00  0.00    +0.039 C 
ENDROOT
BRANCH   1   9
ATOM      2  C   UNL     1      -3.830   8.578  -4.194  0.00  0.00    -0.047 A 
ATOM      3  C   UNL     1      -3.685   7.986  -5.441  0.00  0.00    +0.005 A 
ATOM      4  C   UNL     1      -2.714   7.032  -5.658  0.00  0.00    +0.026 A 
ATOM      5  C   UNL     1      -1.870   6.657  -4.618  0.00  0.00    +0.049 A 
ATOM      6  C   UNL     1      -2.020   7.259  -3.354  0.00  0.00    -0.001 A 
ATOM      7  C   UNL     1      -3.013   8.226  -3.158  0.00  0.00    +0.013 A 
ATOM      8  C   UNL     1      -1.127   6.858  -2.266  0.00  0.00    +0.017 A 
ATOM      9  C   UNL     1      -0.184   5.917  -2.516  0.00  0.00    +0.011 A 
ATOM     10  C   UNL     1      -0.071   5.348  -3.803  0.00  0.00    +0.251 A 
ATOM     11  O   UNL     1       0.787   4.507  -4.007  0.00  0.00    -0.268 OA
ATOM     12  N   UNL     1      -0.890   5.706  -4.807  0.00  0.00    -0.322 N 
ATOM     13  H   UNL     1      -0.787   5.276  -5.704  0.00  0.00    +0.169 HD
BRANCH   2  15
ATOM     14  C   UNL     1      -4.329  11.005  -4.292  0.00  0.00    +0.009 C 
ATOM     15  C   UNL     1      -4.898   9.619  -3.981  0.00  0.00    +0.032 C 
ENDBRANCH   2  15
ENDBRANCH   1   9
BRANCH   1  22
ATOM     16  C   UNL     1       1.390   3.586  -0.053  0.00  0.00    -0.077 C 
ATOM     17  C   UNL     1       1.417   2.057  -0.000  0.00  0.00    -0.015 C 
ATOM     18  C   UNL     1      -0.019   1.526   0.010  0.00  0.00    -0.018 C 
ATOM     19  C   UNL     1      -0.752   2.034  -1.234  0.00  0.00    -0.015 C 
ATOM     20  C   UNL     1      -0.717   3.564  -1.251  0.00  0.00    -0.077 C 
ATOM     21  C   UNL     1       0.002  -0.004   0.002  0.00  0.00    +0.007 C 
ATOM     22  N   UNL     1       0.692   4.011  -1.286  0.00  0.00    +0.389 N 
ATOM     23  H   UNL     1       1.157   3.584  -2.095  0.00  0.00    -0.080 HD
ENDBRANCH   1  22
BRANCH   1  24
ATOM     24  C   UNL     1       2.162   5.878  -1.772  0.00  0.00    +0.143 A 
ATOM     25  N   UNL     1       2.940   5.298  -2.652  0.00  0.00    -0.115 NA
ATOM     26  N   UNL     1       4.064   5.929  -2.668  0.00  0.00    -0.023 NA
ATOM     27  N   UNL     1       4.024   6.892  -1.815  0.00  0.00    -0.044 NA
ATOM     28  N   UNL     1       2.868   6.894  -1.242  0.00  0.00    -0.228 N 
BRANCH  28  29
ATOM     29  C   UNL     1       2.410   7.827  -0.209  0.00  0.00    +0.178 C 
BRANCH  29  30
ATOM     30  C   UNL     1       2.755   7.267   1.172  0.00  0.00    +0.140 C 
ATOM     31  C   UNL     1       2.328   8.264   2.279  0.00  0.00    +0.035 C 
ATOM     32  C   UNL     1       2.151   7.305   3.487  0.00  0.00    +0.031 C 
ATOM     33  C   UNL     1       1.625   6.021   2.812  0.00  0.00    +0.160 C 
ATOM     34  O   UNL     1       1.998   6.074   1.430  0.00  0.00    -0.375 OA
ENDBRANCH  29  30
ENDBRANCH  28  29
ENDBRANCH   1  24
TORSDOF 6
