REMARK  Name = ZINC25326526
REMARK  6 active torsions:
REMARK  status: ('A' for Active; 'I' for Inactive)
REMARK    1  A    between atoms: C_1  and  C_2
REMARK    2  A    between atoms: C_2  and  C_30
REMARK    3  A    between atoms: C_4  and  N_25
REMARK    4  A    between atoms: N_8  and  C_18
REMARK    5  A    between atoms: P_9  and  N_11
REMARK    6  A    between atoms: N_11  and  C_12
REMARK                            x       y       z     vdW  Elec       q    Type
REMARK                         _______ _______ _______ _____ _____    ______ ____
ROOT
ATOM      1  C   UNL     1       2.445   3.067  -2.742  0.00  0.00    +0.011 C 
ATOM      2  C   UNL     1       3.389   2.970  -1.542  0.00  0.00    -0.024 C 
ATOM      3  C   UNL     1       2.674   2.255  -0.398  0.00  0.00    +0.056 C 
ATOM      4  C   UNL     1       2.253   0.863  -0.826  0.00  0.00    +0.006 C 
ATOM      5  C   UNL     1       3.015   0.236  -1.702  0.00  0.00    +0.086 C 
ATOM      6  C   UNL     1       4.237   0.800  -2.328  0.00  0.00    +0.075 C 
ATOM      7  N   UNL     1       4.813  -0.006  -3.134  0.00  0.00    -0.176 NA
ATOM      8  N   UNL     1       4.316  -1.288  -3.400  0.00  0.00    -0.152 N 
ATOM      9  P   UNL     1       2.937  -1.411  -2.470  0.00  0.00    +0.299 P 
ATOM     10  O   UNL     1       1.726  -1.575  -3.305  0.00  0.00    -0.272 OA
ATOM     11  C   UNL     1       4.658   2.216  -1.960  0.00  0.00    +0.064 C 
ATOM     12  C   UNL     1       3.772   4.381  -1.090  0.00  0.00    +0.011 C 
ENDROOT
BRANCH   8  13
ATOM     13  C   UNL     1       4.855  -2.249  -4.255  0.00  0.00    +0.060 A 
ATOM     14  C   UNL     1       4.294  -3.520  -4.317  0.00  0.00    +0.025 A 
ATOM     15  C   UNL     1       4.826  -4.467  -5.168  0.00  0.00    +0.002 A 
ATOM     16  C   UNL     1       5.924  -4.157  -5.950  0.00  0.00    +0.000 A 
ATOM     17  C   UNL     1       6.489  -2.896  -5.887  0.00  0.00    +0.002 A 
ATOM     18  C   UNL     1       5.958  -1.942  -5.042  0.00  0.00    +0.025 A 
ENDBRANCH   8  13
BRANCH   4  19
ATOM     19  N   UNL     1       1.115   0.269  -0.312  0.00  0.00    -0.396 NA
ATOM     20  C   UNL     1       0.199   0.875   0.671  0.00  0.00    +0.085 C 
ATOM     21  C   UNL     1      -1.153   0.153   0.451  0.00  0.00    +0.019 C 
ATOM     22  C   UNL     1      -0.687  -1.294   0.137  0.00  0.00    +0.019 C 
ATOM     23  C   UNL     1       0.618  -1.071  -0.656  0.00  0.00    +0.085 C 
ATOM     24  H   UNL     1       2.024   0.731  -0.724  0.00  0.00    +0.126 HD
ENDBRANCH   4  19
BRANCH   9  25
ATOM     25  N   UNL     1       3.063  -2.605  -1.353  0.00  0.00    -0.276 N 
ATOM     26  H   UNL     1       2.330  -3.425  -1.339  0.00  0.00    +0.155 HD
BRANCH  25  27
ATOM     27  C   UNL     1       4.101  -2.580  -0.418  0.00  0.00    +0.034 A 
ATOM     28  C   UNL     1       5.159  -1.694  -0.577  0.00  0.00    +0.023 A 
ATOM     29  C   UNL     1       6.181  -1.668   0.352  0.00  0.00    +0.002 A 
ATOM     30  C   UNL     1       6.157  -2.531   1.433  0.00  0.00    +0.000 A 
ATOM     31  C   UNL     1       5.108  -3.418   1.591  0.00  0.00    +0.002 A 
ATOM     32  C   UNL     1       4.080  -3.445   0.669  0.00  0.00    +0.023 A 
ENDBRANCH  25  27
ENDBRANCH   9  25
TORSDOF 4
