REMARK  Name = ZINC14475660
REMARK  8 active torsions:
REMARK  status: ('A' for Active; 'I' for Inactive)
REMARK    1  A    between atoms: C_1  and  C_2
REMARK    2  A    between atoms: C_5  and  N_9
REMARK    3  A    between atoms: C_7  and  C_8
REMARK    4  A    between atoms: N_9  and  S_10
REMARK    5  A    between atoms: S_10  and  C_13
REMARK    6  A    between atoms: C_26  and  C_29
REMARK    7  A    between atoms: C_31  and  N_36
REMARK    8  A    between atoms: C_34  and  O_35
REMARK                            x       y       z     vdW  Elec       q    Type
REMARK                         _______ _______ _______ _____ _____    ______ ____
ROOT
ATOM      1  C   UNL     1       3.943  -2.395  -0.411  0.00  0.00    +0.109 A 
ATOM      2  C   UNL     1       4.548  -1.206  -0.778  0.00  0.00    +0.030 A 
ATOM      3  C   UNL     1       5.803  -0.891  -0.300  0.00  0.00    +0.025 A 
ATOM      4  C   UNL     1       6.473  -1.768   0.544  0.00  0.00    +0.031 A 
ATOM      5  C   UNL     1       5.851  -2.965   0.918  0.00  0.00    -0.018 A 
ATOM      6  C   UNL     1       4.598  -3.272   0.433  0.00  0.00    +0.034 A 
ATOM      7  C   UNL     1       6.581  -3.850   1.851  0.00  0.00    +0.049 C 
ATOM      8  C   UNL     1       6.355  -5.327   1.919  0.00  0.00    -0.023 C 
ATOM      9  C   UNL     1       7.494  -5.928   2.243  0.00  0.00    -0.030 C 
ATOM     10  C   UNL     1       8.604  -4.889   2.414  0.00  0.00    +0.033 C 
ATOM     11  C   UNL     1       8.100  -3.749   1.519  0.00  0.00    +0.029 C 
ATOM     12  C   UNL     1       8.505  -2.337   1.903  0.00  0.00    +0.108 C 
ATOM     13  N   UNL     1       7.762  -1.445   0.985  0.00  0.00    -0.336 N 
ATOM     14  H   UNL     1       8.222  -0.509   0.636  0.00  0.00    +0.147 HD
ENDROOT
BRANCH  12  15
ATOM     15  C   UNL     1       8.116  -2.054   3.331  0.00  0.00    +0.017 A 
ATOM     16  C   UNL     1       6.887  -1.490   3.614  0.00  0.00    +0.041 A 
ATOM     17  C   UNL     1       6.527  -1.235   4.925  0.00  0.00    +0.127 A 
ATOM     18  C   UNL     1       7.401  -1.533   5.954  0.00  0.00    +0.036 A 
ATOM     19  C   UNL     1       8.633  -2.092   5.676  0.00  0.00    +0.048 A 
ATOM     20  C   UNL     1       8.994  -2.353   4.362  0.00  0.00    +0.122 A 
BRANCH  17  21
ATOM     21  N   UNL     1       5.207  -0.637   5.226  0.00  0.00    +0.056 N 
ATOM     22  O   UNL     1       4.892  -0.408   6.380  0.00  0.00    -0.126 OA
ATOM     23  O   UNL     1       4.437  -0.374   4.320  0.00  0.00    -0.126 OA
ENDBRANCH  17  21
BRANCH  20  24
ATOM     24  O   UNL     1      10.206  -2.903   4.085  0.00  0.00    -0.506 OA
ATOM     25  H   UNL     1      10.902  -3.141   4.904  0.00  0.00    +0.292 HD
ENDBRANCH  20  24
ENDBRANCH  12  15
BRANCH   1  26
ATOM     26  S   UNL     1       2.341  -2.795  -1.026  0.00  0.00    +0.072 S 
ATOM     27  O   UNL     1       2.182  -4.197  -0.864  0.00  0.00    -0.150 OA
ATOM     28  O   UNL     1       2.220  -2.155  -2.290  0.00  0.00    -0.150 OA
BRANCH  26  29
ATOM     29  N   UNL     1       1.238  -2.074  -0.024  0.00  0.00    -0.216 N 
ATOM     30  H   UNL     1       0.548  -1.314  -0.420  0.00  0.00    +0.174 HD
BRANCH  29  35
ATOM     31  C   UNL     1       1.015  -3.524   5.454  0.00  0.00    +0.044 C 
ATOM     32  C   UNL     1       1.074  -3.139   3.998  0.00  0.00    -0.047 A 
ATOM     33  C   UNL     1       1.147  -4.121   3.027  0.00  0.00    +0.005 A 
ATOM     34  C   UNL     1       1.201  -3.771   1.692  0.00  0.00    +0.025 A 
ATOM     35  C   UNL     1       1.182  -2.431   1.326  0.00  0.00    +0.048 A 
ATOM     36  C   UNL     1       1.109  -1.448   2.304  0.00  0.00    +0.028 A 
ATOM     37  C   UNL     1       1.055  -1.804   3.637  0.00  0.00    -0.046 A 
ATOM     38  C   UNL     1       0.982  -0.738   4.699  0.00  0.00    +0.044 C 
ENDBRANCH  29  35
ENDBRANCH  26  29
ENDBRANCH   1  26
TORSDOF 6
