REMARK  Name = ZINC66906471
REMARK  4 active torsions:
REMARK  status: ('A' for Active; 'I' for Inactive)
REMARK    1  A    between atoms: C_5  and  C_7
REMARK    2  A    between atoms: C_7  and  C_8
REMARK    3  A    between atoms: N_10  and  N_11
REMARK    4  A    between atoms: N_14  and  C_15
REMARK                            x       y       z     vdW  Elec       q    Type
REMARK                         _______ _______ _______ _____ _____    ______ ____
ROOT
ATOM      1  N   UNL     1       1.543  -4.494   2.939  0.00  0.00    -0.218 N 
ATOM      2  C   UNL     1       1.592  -5.820   3.176  0.00  0.00    +0.320 C 
ATOM      3  O   UNL     1       1.717  -6.230   4.313  0.00  0.00    -0.251 OA
ATOM      4  N   UNL     1       1.502  -6.691   2.151  0.00  0.00    -0.268 N 
ATOM      5  H   UNL     1       1.607  -3.867   3.676  0.00  0.00    +0.174 HD
ATOM      6  H   UNL     1       1.335  -6.367   1.252  0.00  0.00    +0.156 HD
ENDROOT
BRANCH   4   7
ATOM      7  C   UNL     1       1.650  -8.064   2.385  0.00  0.00    +0.036 A 
ATOM      8  C   UNL     1       1.171  -8.623   3.568  0.00  0.00    +0.027 A 
ATOM      9  C   UNL     1       1.308  -9.973   3.812  0.00  0.00    +0.049 A 
ATOM     10  C   UNL     1       1.929 -10.790   2.876  0.00  0.00    +0.139 A 
ATOM     11  C   UNL     1       2.415 -10.230   1.681  0.00  0.00    +0.019 A 
ATOM     12  C   UNL     1       2.267  -8.862   1.438  0.00  0.00    +0.035 A 
ATOM     13  C   UNL     1       3.068 -11.104   0.701  0.00  0.00    +0.018 A 
ATOM     14  C   UNL     1       3.178 -12.425   0.992  0.00  0.00    +0.092 A 
ATOM     15  C   UNL     1       2.667 -12.919   2.212  0.00  0.00    +0.337 A 
ATOM     16  O   UNL     1       2.771 -14.106   2.461  0.00  0.00    -0.245 OA
ATOM     17  O   UNL     1       2.070 -12.114   3.104  0.00  0.00    -0.422 OA
ENDBRANCH   4   7
BRANCH   1  20
ATOM     18  C   UNL     1       1.350  -2.695   1.391  0.00  0.00    +0.234 C 
ATOM     19  O   UNL     1       1.431  -1.911   2.313  0.00  0.00    -0.274 OA
ATOM     20  N   UNL     1       1.399  -4.021   1.628  0.00  0.00    -0.233 N 
ATOM     21  H   UNL     1       1.334  -4.648   0.890  0.00  0.00    +0.173 HD
BRANCH  18  22
ATOM     22  C   UNL     1       1.195  -2.187  -0.019  0.00  0.00    +0.135 C 
BRANCH  22  27
ATOM     23  C   UNL     1      -0.065   1.372   0.020  0.00  0.00    +0.000 A 
ATOM     24  C   UNL     1       1.119   2.086   0.006  0.00  0.00    +0.003 A 
ATOM     25  C   UNL     1       2.328   1.418  -0.016  0.00  0.00    +0.038 A 
ATOM     26  C   UNL     1       2.354   0.034  -0.024  0.00  0.00    +0.127 A 
ATOM     27  C   UNL     1       1.168  -0.680  -0.010  0.00  0.00    -0.003 A 
ATOM     28  C   UNL     1      -0.041  -0.010   0.012  0.00  0.00    +0.007 A 
ATOM     29  F   UNL     1       3.537  -0.620  -0.047  0.00  0.00    -0.205 F 
ENDBRANCH  22  27
ENDBRANCH  18  22
ENDBRANCH   1  20
TORSDOF 4
