REMARK  Name = ZINC13129407
REMARK  7 active torsions:
REMARK  status: ('A' for Active; 'I' for Inactive)
REMARK    1  A    between atoms: C_1  and  C_2
REMARK    2  A    between atoms: C_3  and  C_13
REMARK    3  A    between atoms: C_13  and  C_15
REMARK    4  A    between atoms: C_18  and  N_24
REMARK    5  A    between atoms: C_19  and  N_21
REMARK    6  A    between atoms: N_24  and  N_25
REMARK    7  A    between atoms: C_31  and  C_34
REMARK                            x       y       z     vdW  Elec       q    Type
REMARK                         _______ _______ _______ _____ _____    ______ ____
ROOT
ATOM      1  C   UNL     1       1.242   1.914  -0.296  0.00  0.00    +0.025 A 
ATOM      2  C   UNL     1       1.227   3.269  -0.639  0.00  0.00    +0.014 A 
ATOM      3  C   UNL     1       2.410   3.926  -0.891  0.00  0.00    +0.027 A 
ATOM      4  C   UNL     1       3.620   3.243  -0.804  0.00  0.00    +0.075 A 
ATOM      5  C   UNL     1       3.638   1.893  -0.463  0.00  0.00    +0.149 A 
ATOM      6  C   UNL     1       2.458   1.232  -0.204  0.00  0.00    +0.046 A 
ENDROOT
BRANCH   5   7
ATOM      7  N   UNL     1       4.926   1.170  -0.372  0.00  0.00    +0.058 N 
ATOM      8  O   UNL     1       5.832   1.441  -1.140  0.00  0.00    -0.126 OA
ATOM      9  O   UNL     1       5.080   0.304   0.470  0.00  0.00    -0.126 OA
ENDBRANCH   5   7
BRANCH   1  10
ATOM     10  C   UNL     1      -0.025   1.206  -0.025  0.00  0.00    +0.202 C 
ATOM     11  O   UNL     1      -0.078  -0.007  -0.124  0.00  0.00    -0.286 OA
BRANCH  10  14
ATOM     12  C   UNL     1      -2.867   0.059   0.305  0.00  0.00    +0.067 C 
ATOM     13  C   UNL     1      -2.492   1.504   0.514  0.00  0.00    +0.058 A 
ATOM     14  C   UNL     1      -1.182   1.938   0.344  0.00  0.00    +0.084 A 
ATOM     15  S   UNL     1      -1.360   3.675   0.726  0.00  0.00    -0.049 S 
ATOM     16  C   UNL     1      -3.066   3.663   1.048  0.00  0.00    +0.162 A 
ATOM     17  N   UNL     1      -3.386   2.391   0.862  0.00  0.00    -0.229 NA
ATOM     18  N   UNL     1      -3.882   4.712   1.412  0.00  0.00    -0.310 N 
ATOM     19  C   UNL     1      -3.376   5.378   2.619  0.00  0.00    +0.107 C 
ATOM     20  C   UNL     1      -4.219   6.622   2.909  0.00  0.00    +0.019 C 
ATOM     21  C   UNL     1      -5.680   6.207   3.107  0.00  0.00    +0.003 C 
ATOM     22  C   UNL     1      -6.168   5.473   1.854  0.00  0.00    +0.019 C 
ATOM     23  C   UNL     1      -5.268   4.263   1.595  0.00  0.00    +0.107 C 
ENDBRANCH  10  14
ENDBRANCH   1  10
BRANCH   4  24
ATOM     24  N   UNL     1       4.814   3.910  -1.058  0.00  0.00    -0.252 N 
ATOM     25  H   UNL     1       5.651   3.420  -1.065  0.00  0.00    +0.171 HD
BRANCH  24  26
ATOM     26  N   UNL     1       4.807   5.289  -1.305  0.00  0.00    -0.139 N 
ATOM     27  C   UNL     1       4.976   5.842  -2.524  0.00  0.00    +0.263 C 
ATOM     28  O   UNL     1       5.156   5.264  -3.574  0.00  0.00    -0.271 OA
ATOM     29  C   UNL     1       4.890   7.335  -2.305  0.00  0.00    +0.114 C 
ATOM     30  C   UNL     1       6.199   8.004  -2.712  0.00  0.00    +0.035 C 
ATOM     31  C   UNL     1       6.422   7.821  -4.215  0.00  0.00    +0.006 C 
ATOM     32  C   UNL     1       5.253   8.441  -4.982  0.00  0.00    -0.014 C 
ATOM     33  C   UNL     1       3.951   7.743  -4.582  0.00  0.00    +0.006 C 
ATOM     34  C   UNL     1       3.718   7.926  -3.080  0.00  0.00    +0.035 C 
ATOM     35  C   UNL     1       5.481   8.269  -6.486  0.00  0.00    +0.007 C 
ATOM     36  N   UNL     1       4.671   7.471  -0.859  0.00  0.00    -0.284 N 
ATOM     37  C   UNL     1       4.637   6.221  -0.359  0.00  0.00    +0.326 C 
ATOM     38  O   UNL     1       4.471   5.968   0.818  0.00  0.00    -0.251 OA
ATOM     39  H   UNL     1       4.572   8.299  -0.362  0.00  0.00    +0.151 HD
ENDBRANCH  24  26
ENDBRANCH   4  24
TORSDOF 5
