REMARK  Name = ZINC04945713
REMARK  5 active torsions:
REMARK  status: ('A' for Active; 'I' for Inactive)
REMARK    1  A    between atoms: C_6  and  N_7
REMARK    2  A    between atoms: C_8  and  C_10
REMARK    3  A    between atoms: C_10  and  S_11
REMARK    4  A    between atoms: S_11  and  C_12
REMARK    5  A    between atoms: C_13  and  C_24
REMARK                            x       y       z     vdW  Elec       q    Type
REMARK                         _______ _______ _______ _____ _____    ______ ____
ROOT
ATOM      1  S   UNL     1      -5.052   0.311   0.390  0.00  0.00    -0.107 S 
ENDROOT
BRANCH   1   2
ATOM      2  C   UNL     1      -6.463  -0.736   0.523  0.00  0.00    +0.066 A 
ATOM      3  C   UNL     1      -7.794  -0.354   0.648  0.00  0.00    +0.096 A 
ATOM      4  C   UNL     1      -8.787  -1.411   0.742  0.00  0.00    +0.079 A 
ATOM      5  C   UNL     1      -8.238  -2.690   0.689  0.00  0.00    +0.085 A 
ATOM      6  S   UNL     1      -6.497  -2.413   0.519  0.00  0.00    -0.075 S 
ATOM      7  C   UNL     1      -9.034  -3.834   0.764  0.00  0.00    +0.200 A 
ATOM      8  C   UNL     1     -10.408  -3.685   0.893  0.00  0.00    +0.122 A 
ATOM      9  C   UNL     1     -10.946  -2.398   0.944  0.00  0.00    +0.253 A 
ATOM     10  O   UNL     1     -12.154  -2.260   1.059  0.00  0.00    -0.268 OA
ATOM     11  N   UNL     1     -10.167  -1.309   0.872  0.00  0.00    -0.320 N 
ATOM     12  H   UNL     1     -10.575  -0.430   0.910  0.00  0.00    +0.169 HD
ATOM     13  O   UNL     1      -8.475  -5.067   0.710  0.00  0.00    -0.286 OA
BRANCH   3  14
ATOM     14  C   UNL     1      -8.171   1.026   0.685  0.00  0.00    +0.103 C 
ATOM     15  N   UNL     1      -8.470   2.122   0.714  0.00  0.00    -0.191 NA
ENDBRANCH   3  14
ENDBRANCH   1   2
BRANCH   1  16
ATOM     16  C   UNL     1      -3.660  -0.844   0.249  0.00  0.00    +0.171 C 
BRANCH  16  18
ATOM     17  N   UNL     1      -1.202  -0.721   0.010  0.00  0.00    -0.285 N 
ATOM     18  C   UNL     1      -2.374  -0.068   0.127  0.00  0.00    +0.227 C 
ATOM     19  O   UNL     1      -2.395   1.145   0.134  0.00  0.00    -0.275 OA
ATOM     20  H   UNL     1      -1.191  -1.688  -0.072  0.00  0.00    +0.155 HD
BRANCH  17  26
ATOM     21  C   UNL     1       0.122   1.154   0.763  0.00  0.00    +0.027 A 
ATOM     22  C   UNL     1       1.309   1.862   0.762  0.00  0.00    +0.051 A 
ATOM     23  C   UNL     1       2.383   1.417   0.008  0.00  0.00    +0.166 A 
ATOM     24  C   UNL     1       2.266   0.255  -0.751  0.00  0.00    +0.168 A 
ATOM     25  C   UNL     1       1.076  -0.454  -0.750  0.00  0.00    +0.072 A 
ATOM     26  C   UNL     1       0.002  -0.004   0.008  0.00  0.00    +0.037 A 
ATOM     27  O   UNL     1       3.448   0.034  -1.396  0.00  0.00    -0.453 OA
ATOM     28  C   UNL     1       4.153   1.288  -1.348  0.00  0.00    +0.466 C 
ATOM     29  O   UNL     1       3.640   1.924  -0.162  0.00  0.00    -0.453 OA
ENDBRANCH  17  26
ENDBRANCH  16  18
ENDBRANCH   1  16
TORSDOF 5
