REMARK  Name = ZINC25146309
REMARK  8 active torsions:
REMARK  status: ('A' for Active; 'I' for Inactive)
REMARK    1  A    between atoms: C_4  and  C_7
REMARK    2  A    between atoms: C_7  and  C_8
REMARK    3  A    between atoms: C_7  and  N_17
REMARK    4  A    between atoms: C_18  and  C_20
REMARK    5  A    between atoms: C_20  and  N_21
REMARK    6  A    between atoms: C_22  and  C_24
REMARK    7  A    between atoms: C_24  and  N_25
REMARK    8  A    between atoms: C_26  and  C_28
REMARK                            x       y       z     vdW  Elec       q    Type
REMARK                         _______ _______ _______ _____ _____    ______ ____
ROOT
ATOM      1  N   UNL     1       3.611  -1.865  -0.930  0.00  0.00    -0.303 N 
ATOM      2  C   UNL     1       3.825  -1.716  -2.253  0.00  0.00    +0.231 C 
ATOM      3  O   UNL     1       4.099  -0.624  -2.704  0.00  0.00    -0.274 OA
ATOM      4  H   UNL     1       3.392  -2.738  -0.569  0.00  0.00    +0.150 HD
ENDROOT
BRANCH   1   5
ATOM      5  C   UNL     1       3.711  -0.707  -0.038  0.00  0.00    +0.134 C 
BRANCH   5   6
ATOM      6  C   UNL     1       4.044  -1.175   1.356  0.00  0.00    -0.021 A 
ATOM      7  C   UNL     1       3.450  -2.325   1.857  0.00  0.00    +0.008 A 
ATOM      8  C   UNL     1       3.739  -2.765   3.118  0.00  0.00    +0.030 A 
ATOM      9  C   UNL     1       4.640  -2.054   3.914  0.00  0.00    +0.089 A 
ATOM     10  C   UNL     1       5.241  -0.890   3.408  0.00  0.00    +0.066 A 
ATOM     11  C   UNL     1       4.940  -0.460   2.122  0.00  0.00    +0.033 A 
ATOM     12  N   UNL     1       6.066  -0.420   4.410  0.00  0.00    -0.344 N 
ATOM     13  C   UNL     1       5.952  -1.275   5.462  0.00  0.00    +0.197 A 
ATOM     14  N   UNL     1       5.119  -2.231   5.173  0.00  0.00    -0.236 NA
ATOM     15  H   UNL     1       6.624   0.373   4.371  0.00  0.00    +0.167 HD
ENDBRANCH   5   6
BRANCH   5  19
ATOM     16  C   UNL     1      -0.017   1.378   0.010  0.00  0.00    +0.000 A 
ATOM     17  C   UNL     1       1.171   2.086   0.002  0.00  0.00    +0.000 A 
ATOM     18  C   UNL     1       2.377   1.411  -0.013  0.00  0.00    +0.006 A 
ATOM     19  C   UNL     1       2.396   0.029  -0.020  0.00  0.00    -0.023 A 
ATOM     20  C   UNL     1       1.208  -0.679  -0.012  0.00  0.00    +0.006 A 
ATOM     21  C   UNL     1       0.002  -0.004   0.002  0.00  0.00    +0.000 A 
ENDBRANCH   5  19
ENDBRANCH   1   5
BRANCH   2  22
ATOM     22  C   UNL     1       3.722  -2.906  -3.171  0.00  0.00    +0.200 C 
BRANCH  22  23
ATOM     23  N   UNL     1       3.995  -2.486  -4.548  0.00  0.00    -0.305 N 
ATOM     24  C   UNL     1       3.960  -3.389  -5.547  0.00  0.00    +0.231 C 
ATOM     25  O   UNL     1       3.702  -4.550  -5.307  0.00  0.00    -0.274 OA
ATOM     26  H   UNL     1       4.202  -1.558  -4.739  0.00  0.00    +0.149 HD
BRANCH  24  27
ATOM     27  C   UNL     1       4.241  -2.957  -6.963  0.00  0.00    +0.200 C 
BRANCH  27  28
ATOM     28  N   UNL     1       4.141  -4.115  -7.856  0.00  0.00    -0.300 N 
ATOM     29  C   UNL     1       4.354  -3.966  -9.178  0.00  0.00    +0.280 C 
ATOM     30  O   UNL     1       4.629  -2.870  -9.631  0.00  0.00    -0.267 OA
ATOM     31  H   UNL     1       3.922  -4.988  -7.495  0.00  0.00    +0.150 HD
BRANCH  29  32
ATOM     32  C   UNL     1       4.254  -5.125 -10.072  0.00  0.00    +0.189 A 
ATOM     33  C   UNL     1       4.450  -5.115 -11.423  0.00  0.00    +0.054 A 
ATOM     34  C   UNL     1       4.256  -6.432 -11.869  0.00  0.00    +0.042 A 
ATOM     35  C   UNL     1       3.954  -7.178 -10.784  0.00  0.00    +0.196 A 
ATOM     36  O   UNL     1       3.959  -6.388  -9.702  0.00  0.00    -0.458 OA
ENDBRANCH  29  32
ENDBRANCH  27  28
ENDBRANCH  24  27
ENDBRANCH  22  23
ENDBRANCH   2  22
TORSDOF 8
