REMARK  Name = ZINC36005330
REMARK  13 active torsions:
REMARK  status: ('A' for Active; 'I' for Inactive)
REMARK    1  A    between atoms: C_1  and  C_2
REMARK    2  A    between atoms: C_2  and  N_3
REMARK    3  A    between atoms: C_4  and  C_24
REMARK    4  A    between atoms: C_5  and  C_19
REMARK    5  A    between atoms: C_6  and  C_11
REMARK    6  A    between atoms: C_14  and  O_17
REMARK    7  A    between atoms: O_17  and  C_18
REMARK    8  A    between atoms: C_19  and  O_21
REMARK    9  A    between atoms: O_21  and  C_22
REMARK   10  A    between atoms: C_22  and  C_23
REMARK   11  A    between atoms: C_24  and  N_25
REMARK   12  A    between atoms: C_29  and  C_32
REMARK   13  A    between atoms: C_33  and  C_35
REMARK                            x       y       z     vdW  Elec       q    Type
REMARK                         _______ _______ _______ _____ _____    ______ ____
ROOT
ATOM      1  N   UNL     1      -1.429  -0.407  -0.076  0.00  0.00    -0.258 N 
ATOM      2  C   UNL     1      -2.357  -0.410   0.925  0.00  0.00    +0.041 C 
ATOM      3  C   UNL     1      -3.633  -0.786   0.691  0.00  0.00    +0.080 C 
ATOM      4  C   UNL     1      -3.998  -1.203  -0.720  0.00  0.00    +0.144 C 
ATOM      5  N   UNL     1      -2.924  -1.163  -1.726  0.00  0.00    -0.288 N 
ATOM      6  C   UNL     1      -1.697  -0.760  -1.339  0.00  0.00    +0.307 C 
ATOM      7  O   UNL     1      -0.804  -0.720  -2.164  0.00  0.00    -0.252 OA
ATOM      8  H   UNL     1      -3.095  -1.418  -2.646  0.00  0.00    +0.151 HD
ENDROOT
BRANCH   4   9
ATOM      9  C   UNL     1      -5.112  -0.306  -1.195  0.00  0.00    -0.022 A 
ATOM     10  C   UNL     1      -4.825   0.962  -1.666  0.00  0.00    +0.009 A 
ATOM     11  C   UNL     1      -5.845   1.785  -2.102  0.00  0.00    +0.046 A 
ATOM     12  C   UNL     1      -7.158   1.339  -2.068  0.00  0.00    +0.120 A 
ATOM     13  C   UNL     1      -7.443   0.066  -1.595  0.00  0.00    +0.046 A 
ATOM     14  C   UNL     1      -6.420  -0.755  -1.165  0.00  0.00    +0.009 A 
BRANCH  12  15
ATOM     15  O   UNL     1      -8.162   2.148  -2.495  0.00  0.00    -0.495 OA
ATOM     16  C   UNL     1      -9.490   1.623  -2.432  0.00  0.00    +0.277 C 
ENDBRANCH  12  15
ENDBRANCH   4   9
BRANCH   1  18
ATOM     17  C   UNL     1       0.066   1.524   0.054  0.00  0.00    +0.025 C 
ATOM     18  C   UNL     1      -0.063   0.012   0.249  0.00  0.00    +0.111 C 
ENDBRANCH   1  18
BRANCH   3  19
ATOM     19  C   UNL     1      -4.596  -0.791   1.727  0.00  0.00    +0.339 C 
ATOM     20  O   UNL     1      -4.867  -1.830   2.300  0.00  0.00    -0.245 OA
BRANCH  19  21
ATOM     21  O   UNL     1      -5.213   0.356   2.080  0.00  0.00    -0.462 OA
BRANCH  21  22
ATOM     22  C   UNL     1      -6.174   0.277   3.135  0.00  0.00    +0.229 C 
ATOM     23  C   UNL     1      -6.763   1.665   3.392  0.00  0.00    +0.048 C 
ENDBRANCH  21  22
ENDBRANCH  19  21
ENDBRANCH   3  19
BRANCH   2  24
ATOM     24  C   UNL     1      -1.952   0.011   2.314  0.00  0.00    +0.136 C 
BRANCH  24  25
ATOM     25  N   UNL     1      -1.013  -0.972   2.870  0.00  0.00    -0.294 NA
ATOM     26  C   UNL     1      -1.669  -2.272   3.069  0.00  0.00    +0.104 C 
ATOM     27  C   UNL     1      -0.620  -3.312   3.475  0.00  0.00    +0.124 C 
ATOM     28  N   UNL     1       0.117  -2.802   4.642  0.00  0.00    -0.290 N 
ATOM     29  C   UNL     1       0.686  -1.449   4.567  0.00  0.00    +0.087 C 
ATOM     30  C   UNL     1      -0.414  -0.481   4.118  0.00  0.00    +0.107 C 
ATOM     31  C   UNL     1       1.209  -1.034   5.944  0.00  0.00    +0.029 C 
ATOM     32  C   UNL     1       0.266  -3.556   5.750  0.00  0.00    +0.282 C 
ATOM     33  O   UNL     1       0.783  -3.081   6.743  0.00  0.00    -0.267 OA
BRANCH  32  34
ATOM     34  C   UNL     1      -0.195  -4.948   5.757  0.00  0.00    +0.189 A 
ATOM     35  C   UNL     1      -0.226  -5.777   6.841  0.00  0.00    +0.054 A 
ATOM     36  C   UNL     1      -0.736  -7.006   6.395  0.00  0.00    +0.042 A 
ATOM     37  C   UNL     1      -0.991  -6.875   5.074  0.00  0.00    +0.196 A 
ATOM     38  O   UNL     1      -0.669  -5.632   4.695  0.00  0.00    -0.458 OA
ENDBRANCH  32  34
ENDBRANCH  24  25
ENDBRANCH   2  24
TORSDOF 9
