REMARK  Name = ZINC35523152
REMARK  6 active torsions:
REMARK  status: ('A' for Active; 'I' for Inactive)
REMARK    1  A    between atoms: C_4  and  C_7
REMARK    2  A    between atoms: C_8  and  C_9
REMARK    3  A    between atoms: C_9  and  N_10
REMARK    4  A    between atoms: C_16  and  C_18
REMARK    5  A    between atoms: C_18  and  N_19
REMARK    6  A    between atoms: C_27  and  C_29
REMARK                            x       y       z     vdW  Elec       q    Type
REMARK                         _______ _______ _______ _____ _____    ______ ____
ROOT
ATOM      1  C   UNL     1       7.909  -6.340   4.195  0.00  0.00    +0.020 C 
ENDROOT
BRANCH   1   2
ATOM      2  N   UNL     1       8.653  -6.494   5.452  0.00  0.00    +0.395 N 
ATOM      3  C   UNL     1       7.755  -7.018   6.490  0.00  0.00    -0.055 C 
ATOM      4  C   UNL     1       8.418  -6.888   7.867  0.00  0.00    +0.103 C 
ATOM      5  N   UNL     1       9.763  -7.472   7.780  0.00  0.00    -0.353 N 
ATOM      6  C   UNL     1      10.582  -7.848   8.794  0.00  0.00    +0.086 A 
ATOM      7  C   UNL     1      11.719  -8.341   8.256  0.00  0.00    +0.019 A 
ATOM      8  C   UNL     1      11.592  -8.262   6.852  0.00  0.00    +0.021 A 
ATOM      9  C   UNL     1      10.391  -7.727   6.589  0.00  0.00    +0.009 A 
ATOM     10  C   UNL     1       9.776  -7.424   5.245  0.00  0.00    +0.011 C 
ATOM     11  H   UNL     1       9.011  -5.596   5.742  0.00  0.00    -0.080 HD
BRANCH  10  12
ATOM     12  C   UNL     1      10.805  -6.787   4.347  0.00  0.00    -0.054 A 
ATOM     13  C   UNL     1      11.119  -5.448   4.496  0.00  0.00    +0.004 A 
ATOM     14  C   UNL     1      12.062  -4.863   3.673  0.00  0.00    +0.021 A 
ATOM     15  C   UNL     1      12.693  -5.615   2.699  0.00  0.00    +0.059 A 
ATOM     16  C   UNL     1      12.379  -6.955   2.549  0.00  0.00    +0.059 A 
ATOM     17  C   UNL     1      11.438  -7.542   3.377  0.00  0.00    +0.023 A 
ATOM     18 CL   UNL     1      13.169  -7.901   1.327  0.00  0.00    -0.082 Cl
ATOM     19 CL   UNL     1      13.877  -4.880   1.664  0.00  0.00    -0.082 Cl
ENDBRANCH  10  12
ENDBRANCH   1   2
BRANCH   1  26
ATOM     20  N   UNL     1       5.087  -3.681   1.066  0.00  0.00    -0.296 NA
ATOM     21  C   UNL     1       5.095  -2.963   2.347  0.00  0.00    +0.103 C 
ATOM     22  C   UNL     1       4.968  -3.971   3.495  0.00  0.00    +0.123 C 
ATOM     23  N   UNL     1       6.022  -4.985   3.344  0.00  0.00    -0.301 N 
ATOM     24  C   UNL     1       6.165  -5.652   2.040  0.00  0.00    +0.123 C 
ATOM     25  C   UNL     1       6.244  -4.578   0.950  0.00  0.00    +0.103 C 
ATOM     26  C   UNL     1       6.836  -5.296   4.372  0.00  0.00    +0.199 C 
ATOM     27  O   UNL     1       6.704  -4.737   5.440  0.00  0.00    -0.278 OA
BRANCH  20  28
ATOM     28  C   UNL     1       5.033  -2.743  -0.063  0.00  0.00    +0.111 C 
BRANCH  28  30
ATOM     29  C   UNL     1       3.695  -0.685  -0.038  0.00  0.00    +0.005 C 
ATOM     30  C   UNL     1       3.716  -2.010  -0.046  0.00  0.00    -0.011 C 
BRANCH  29  34
ATOM     31  C   UNL     1      -0.017   1.379   0.010  0.00  0.00    +0.000 A 
ATOM     32  C   UNL     1       1.168   2.093   0.002  0.00  0.00    +0.001 A 
ATOM     33  C   UNL     1       2.377   1.429  -0.013  0.00  0.00    +0.008 A 
ATOM     34  C   UNL     1       2.403   0.034  -0.021  0.00  0.00    -0.025 A 
ATOM     35  C   UNL     1       1.204  -0.681  -0.013  0.00  0.00    +0.008 A 
ATOM     36  C   UNL     1       0.002  -0.004   0.002  0.00  0.00    +0.001 A 
ENDBRANCH  29  34
ENDBRANCH  28  30
ENDBRANCH  20  28
ENDBRANCH   1  26
TORSDOF 6
