REMARK  Name = ZINC32666509
REMARK  13 active torsions:
REMARK  status: ('A' for Active; 'I' for Inactive)
REMARK    1  A    between atoms: C_1  and  C_2
REMARK    2  A    between atoms: C_2  and  N_3
REMARK    3  A    between atoms: N_3  and  C_4
REMARK    4  A    between atoms: C_5  and  N_20
REMARK    5  A    between atoms: N_6  and  C_13
REMARK    6  A    between atoms: C_13  and  C_14
REMARK    7  A    between atoms: C_21  and  C_23
REMARK    8  A    between atoms: C_23  and  O_24
REMARK    9  A    between atoms: O_24  and  C_25
REMARK   10  A    between atoms: C_25  and  C_27
REMARK   11  A    between atoms: C_27  and  C_28
REMARK   12  A    between atoms: C_28  and  S_29
REMARK   13  A    between atoms: S_29  and  C_32
REMARK                            x       y       z     vdW  Elec       q    Type
REMARK                         _______ _______ _______ _____ _____    ______ ____
ROOT
ATOM      1  N   UNL     1       0.200  -6.032   6.429  0.00  0.00    -0.262 N 
ATOM      2  C   UNL     1       0.378  -5.576   5.172  0.00  0.00    +0.258 C 
ATOM      3  O   UNL     1       0.581  -6.357   4.266  0.00  0.00    -0.272 OA
ENDROOT
BRANCH   1   4
ATOM      4  C   UNL     1       0.154  -7.420   6.676  0.00  0.00    +0.140 A 
ATOM      5  C   UNL     1      -0.850  -8.196   6.134  0.00  0.00    +0.128 A 
ATOM      6  N   UNL     1      -0.865  -9.548   6.388  0.00  0.00    -0.276 N 
ATOM      7  C   UNL     1       0.080 -10.105   7.166  0.00  0.00    +0.331 A 
ATOM      8  O   UNL     1       0.046 -11.301   7.383  0.00  0.00    -0.246 OA
ATOM      9  N   UNL     1       1.063  -9.364   7.707  0.00  0.00    -0.273 N 
ATOM     10  H   UNL     1       1.827  -9.840   8.340  0.00  0.00    +0.173 HD
ATOM     11  C   UNL     1       1.127  -8.036   7.485  0.00  0.00    +0.277 A 
ATOM     12  O   UNL     1       2.022  -7.373   7.981  0.00  0.00    -0.266 OA
BRANCH   5  13
ATOM     13  N   UNL     1      -1.820  -7.626   5.345  0.00  0.00    -0.343 N 
ATOM     14  H   UNL     1      -2.617  -8.251   4.915  0.00  0.00    +0.144 HD
ATOM     15  H   UNL     1      -1.799  -6.545   5.142  0.00  0.00    +0.144 HD
ENDBRANCH   5  13
BRANCH   6  16
ATOM     16  C   UNL     1      -1.922 -10.385   5.814  0.00  0.00    +0.163 C 
BRANCH  16  17
ATOM     17  C   UNL     1      -3.091 -10.440   6.763  0.00  0.00    -0.028 A 
ATOM     18  C   UNL     1      -3.154 -11.432   7.724  0.00  0.00    +0.005 A 
ATOM     19  C   UNL     1      -4.224 -11.480   8.598  0.00  0.00    +0.000 A 
ATOM     20  C   UNL     1      -5.236 -10.543   8.504  0.00  0.00    +0.000 A 
ATOM     21  C   UNL     1      -5.175  -9.554   7.540  0.00  0.00    +0.000 A 
ATOM     22  C   UNL     1      -4.102  -9.503   6.670  0.00  0.00    +0.005 A 
ENDBRANCH  16  17
ENDBRANCH   6  16
ENDBRANCH   1   4
BRANCH   1  24
ATOM     23  C   UNL     1      -1.427  -4.777   7.755  0.00  0.00    +0.025 C 
ATOM     24  C   UNL     1       0.056  -5.085   7.538  0.00  0.00    +0.110 C 
ENDBRANCH   1  24
BRANCH   2  25
ATOM     25  C   UNL     1       0.324  -4.096   4.892  0.00  0.00    +0.328 C 
BRANCH  25  26
ATOM     26  O   UNL     1       0.544  -3.862   3.476  0.00  0.00    -0.455 OA
BRANCH  26  27
ATOM     27  C   UNL     1       0.526  -2.587   3.059  0.00  0.00    +0.309 C 
ATOM     28  O   UNL     1       0.335  -1.695   3.851  0.00  0.00    -0.251 OA
BRANCH  27  29
ATOM     29  C   UNL     1       0.747  -2.267   1.603  0.00  0.00    +0.143 C 
BRANCH  29  30
ATOM     30  C   UNL     1       0.678  -0.753   1.397  0.00  0.00    +0.183 C 
BRANCH  30  31
ATOM     31  S   UNL     1       0.943  -0.368  -0.356  0.00  0.00    -0.003 S 
ATOM     32  O   UNL     1      -0.151  -0.839  -1.131  0.00  0.00    -0.169 OA
ATOM     33  O   UNL     1       2.280  -0.675  -0.728  0.00  0.00    -0.169 OA
BRANCH  31  34
ATOM     34  C   UNL     1       0.840   1.388  -0.455  0.00  0.00    +0.088 A 
ATOM     35  C   UNL     1      -0.377   1.997  -0.695  0.00  0.00    +0.027 A 
ATOM     36  C   UNL     1      -0.458   3.375  -0.767  0.00  0.00    +0.002 A 
ATOM     37  C   UNL     1       0.680   4.144  -0.610  0.00  0.00    +0.000 A 
ATOM     38  C   UNL     1       1.898   3.535  -0.376  0.00  0.00    +0.002 A 
ATOM     39  C   UNL     1       1.979   2.157  -0.298  0.00  0.00    +0.027 A 
ENDBRANCH  31  34
ENDBRANCH  30  31
ENDBRANCH  29  30
ENDBRANCH  27  29
ENDBRANCH  26  27
ENDBRANCH  25  26
ENDBRANCH   2  25
TORSDOF 12
