REMARK  Name = ZINC63693997
REMARK  9 active torsions:
REMARK  status: ('A' for Active; 'I' for Inactive)
REMARK    1  A    between atoms: C_1  and  C_2
REMARK    2  A    between atoms: C_3  and  C_12
REMARK    3  A    between atoms: C_12  and  C_13
REMARK    4  A    between atoms: C_13  and  C_14
REMARK    5  A    between atoms: N_16  and  C_17
REMARK    6  A    between atoms: C_17  and  C_18
REMARK    7  A    between atoms: N_22  and  C_24
REMARK    8  A    between atoms: C_24  and  C_25
REMARK    9  A    between atoms: C_24  and  C_26
REMARK                            x       y       z     vdW  Elec       q    Type
REMARK                         _______ _______ _______ _____ _____    ______ ____
ROOT
ATOM      1  C   UNL     1      -4.317   0.888  -1.407  0.00  0.00    +0.213 C 
ATOM      2  O   UNL     1      -4.800   1.253  -0.356  0.00  0.00    -0.276 OA
ATOM      3  N   UNL     1      -4.963   1.129  -2.566  0.00  0.00    -0.315 N 
ATOM      4  H   UNL     1      -4.577   0.837  -3.406  0.00  0.00    +0.149 HD
ENDROOT
BRANCH   1   5
ATOM      5  C   UNL     1      -2.994   0.166  -1.419  0.00  0.00    +0.100 C 
BRANCH   5   6
ATOM      6  C   UNL     1      -2.479   0.024   0.015  0.00  0.00    +0.051 C 
BRANCH   6   9
ATOM      7  C   UNL     1      -0.018   1.503   0.010  0.00  0.00    +0.064 C 
ATOM      8  C   UNL     1       0.002  -0.004   0.002  0.00  0.00    +0.026 A 
ATOM      9  C   UNL     1      -1.156  -0.698   0.004  0.00  0.00    +0.036 A 
ATOM     10  C   UNL     1      -1.111  -2.113  -0.005  0.00  0.00    +0.257 A 
ATOM     11  O   UNL     1      -2.142  -2.761  -0.004  0.00  0.00    -0.267 OA
ATOM     12  N   UNL     1       0.084  -2.737  -0.014  0.00  0.00    -0.275 N 
ATOM     13  H   UNL     1       0.123  -3.706  -0.020  0.00  0.00    +0.173 HD
ATOM     14  C   UNL     1       1.224  -2.020  -0.016  0.00  0.00    +0.327 A 
ATOM     15  O   UNL     1       2.294  -2.597  -0.024  0.00  0.00    -0.247 OA
ATOM     16  N   UNL     1       1.194  -0.675  -0.013  0.00  0.00    -0.311 N 
ATOM     17  H   UNL     1       2.026  -0.177  -0.018  0.00  0.00    +0.170 HD
ENDBRANCH   6   9
ENDBRANCH   5   6
ENDBRANCH   1   5
BRANCH   3  18
ATOM     18  C   UNL     1      -6.249   1.831  -2.555  0.00  0.00    +0.106 C 
BRANCH  18  19
ATOM     19  C   UNL     1      -6.764   1.973  -3.988  0.00  0.00    -0.011 C 
ATOM     20  C   UNL     1      -7.070   0.587  -4.562  0.00  0.00    +0.001 C 
ATOM     21  C   UNL     1      -7.658   0.745  -5.967  0.00  0.00    -0.018 C 
ATOM     22  C   UNL     1      -8.904   1.631  -5.896  0.00  0.00    -0.078 C 
ATOM     23  N   UNL     1      -8.541   2.950  -5.364  0.00  0.00    +0.381 N 
ATOM     24  C   UNL     1      -8.043   2.814  -3.990  0.00  0.00    -0.074 C 
ATOM     25  H   UNL     1      -7.822   3.358  -5.942  0.00  0.00    -0.081 HD
BRANCH  23  26
ATOM     26  C   UNL     1      -9.724   3.821  -5.371  0.00  0.00    -0.075 C 
ATOM     27  C   UNL     1      -9.347   5.197  -4.817  0.00  0.00    -0.014 C 
ATOM     28  C   UNL     1     -10.238   3.972  -6.804  0.00  0.00    -0.014 C 
ENDBRANCH  23  26
ENDBRANCH  18  19
ENDBRANCH   3  18
TORSDOF 6
