REMARK  Name = ZINC04064012
REMARK  6 active torsions:
REMARK  status: ('A' for Active; 'I' for Inactive)
REMARK    1  A    between atoms: C_4  and  N_7
REMARK    2  A    between atoms: C_12  and  C_13
REMARK    3  A    between atoms: C_12  and  N_62
REMARK    4  A    between atoms: C_16  and  C_19
REMARK    5  A    between atoms: N_21  and  N_22
REMARK    6  A    between atoms: C_23  and  C_24
REMARK                            x       y       z     vdW  Elec       q    Type
REMARK                         _______ _______ _______ _____ _____    ______ ____
ROOT
ATOM      1  C   UNL     1      -0.107   5.972  -2.320  0.00  0.00    -0.064 A 
ATOM      2  C   UNL     1       0.716   6.216  -3.406  0.00  0.00    +0.002 A 
ATOM      3  C   UNL     1       0.179   6.670  -4.593  0.00  0.00    +0.013 A 
ATOM      4  C   UNL     1      -1.196   6.893  -4.694  0.00  0.00    +0.038 A 
ATOM      5  C   UNL     1      -2.019   6.649  -3.593  0.00  0.00    +0.013 A 
ATOM      6  C   UNL     1      -1.470   6.191  -2.413  0.00  0.00    +0.002 A 
ENDROOT
BRANCH   4   7
ATOM      7  C   UNL     1      -1.777   7.384  -5.961  0.00  0.00    +0.263 C 
ATOM      8  O   UNL     1      -2.974   7.576  -6.046  0.00  0.00    -0.268 OA
ATOM      9  N   UNL     1      -0.979   7.617  -7.022  0.00  0.00    -0.203 N 
ATOM     10  H   UNL     1      -0.024   7.463  -6.954  0.00  0.00    +0.178 HD
BRANCH   9  11
ATOM     11  N   UNL     1      -1.530   8.083  -8.223  0.00  0.00    -0.187 NA
ATOM     12  C   UNL     1      -0.761   8.308  -9.246  0.00  0.00    +0.139 C 
BRANCH  12  13
ATOM     13  C   UNL     1      -1.340   8.797 -10.507  0.00  0.00    +0.002 A 
ATOM     14  C   UNL     1      -0.521   9.149 -11.574  0.00  0.00    +0.010 A 
ATOM     15  C   UNL     1      -1.070   9.609 -12.763  0.00  0.00    +0.001 A 
ATOM     16  C   UNL     1      -2.415   9.734 -12.932  0.00  0.00    +0.008 A 
ATOM     17  C   UNL     1      -3.303   9.398 -11.896  0.00  0.00    -0.017 A 
ATOM     18  C   UNL     1      -2.788   8.917 -10.667  0.00  0.00    -0.009 A 
ATOM     19  C   UNL     1      -3.668   8.587  -9.630  0.00  0.00    +0.009 A 
ATOM     20  C   UNL     1      -5.012   8.721  -9.819  0.00  0.00    +0.001 A 
ATOM     21  C   UNL     1      -5.521   9.187 -11.028  0.00  0.00    +0.001 A 
ATOM     22  C   UNL     1      -4.694   9.523 -12.056  0.00  0.00    +0.008 A 
ENDBRANCH  12  13
ENDBRANCH   9  11
ENDBRANCH   4   7
BRANCH   1  23
ATOM     23  C   UNL     1       0.486   5.470  -1.028  0.00  0.00    -0.043 C 
BRANCH  23  29
ATOM     24  N   UNL     1      -0.036   1.413   0.026  0.00  0.00    -0.333 N 
ATOM     25  C   UNL     1      -0.817   1.937  -1.103  0.00  0.00    +0.086 C 
ATOM     26  C   UNL     1      -0.871   3.464  -1.018  0.00  0.00    -0.059 C 
ATOM     27  C   UNL     1       1.278   3.477   0.097  0.00  0.00    -0.059 C 
ATOM     28  C   UNL     1       1.332   1.950   0.012  0.00  0.00    +0.086 C 
ATOM     29  N   UNL     1       0.509   3.992  -1.056  0.00  0.00    +0.384 N 
ATOM     30  H   UNL     1       0.962   3.682  -1.924  0.00  0.00    -0.081 HD
BRANCH  24  34
ATOM     31  C   UNL     1      -0.004  -2.751   0.014  0.00  0.00    +0.000 A 
ATOM     32  C   UNL     1      -1.208  -2.070   0.030  0.00  0.00    +0.002 A 
ATOM     33  C   UNL     1      -1.222  -0.689   0.035  0.00  0.00    +0.023 A 
ATOM     34  C   UNL     1      -0.025   0.016   0.022  0.00  0.00    +0.030 A 
ATOM     35  C   UNL     1       1.182  -0.670   0.001  0.00  0.00    +0.023 A 
ATOM     36  C   UNL     1       1.189  -2.051   0.002  0.00  0.00    +0.002 A 
ENDBRANCH  24  34
ENDBRANCH  23  29
ENDBRANCH   1  23
TORSDOF 6
