REMARK  Name = ZINC40170144
REMARK  10 active torsions:
REMARK  status: ('A' for Active; 'I' for Inactive)
REMARK    1  A    between atoms: C_1  and  C_2
REMARK    2  A    between atoms: C_2  and  O_3
REMARK    3  A    between atoms: O_3  and  C_4
REMARK    4  A    between atoms: C_4  and  C_6
REMARK    5  A    between atoms: C_10  and  N_11
REMARK    6  A    between atoms: C_12  and  C_14
REMARK    7  A    between atoms: C_14  and  C_16
REMARK    8  A    between atoms: C_14  and  S_17
REMARK    9  A    between atoms: S_17  and  C_18
REMARK   10  A    between atoms: C_29  and  C_31
REMARK                            x       y       z     vdW  Elec       q    Type
REMARK                         _______ _______ _______ _____ _____    ______ ____
ROOT
ATOM      1  N   UNL     1       3.744  -2.426   1.392  0.00  0.00    -0.278 N 
ATOM      2  C   UNL     1       5.047  -2.736   1.540  0.00  0.00    +0.231 C 
ATOM      3  O   UNL     1       5.445  -3.193   2.591  0.00  0.00    -0.274 OA
ATOM      4  H   UNL     1       3.425  -2.060   0.551  0.00  0.00    +0.155 HD
ENDROOT
BRANCH   1   9
ATOM      5  C   UNL     1       1.496  -2.371   2.467  0.00  0.00    +0.091 A 
ATOM      6  C   UNL     1       0.787  -2.682   3.696  0.00  0.00    -0.021 A 
ATOM      7  C   UNL     1       1.570  -3.187   4.673  0.00  0.00    -0.004 A 
ATOM      8  S   UNL     1       3.191  -3.243   3.966  0.00  0.00    -0.077 S 
ATOM      9  C   UNL     1       2.859  -2.629   2.439  0.00  0.00    +0.086 A 
ATOM     10  C   UNL     1       1.140  -3.603   6.046  0.00  0.00    +0.043 C 
ATOM     11  C   UNL     1      -0.255  -3.018   6.312  0.00  0.00    +0.005 C 
ATOM     12  C   UNL     1      -1.153  -3.312   5.107  0.00  0.00    +0.005 C 
ATOM     13  C   UNL     1      -0.705  -2.473   3.907  0.00  0.00    +0.037 C 
BRANCH   5  14
ATOM     14  C   UNL     1       0.801  -1.814   1.305  0.00  0.00    +0.342 C 
ATOM     15  O   UNL     1       0.321  -2.557   0.470  0.00  0.00    -0.245 OA
BRANCH  14  16
ATOM     16  O   UNL     1       0.693  -0.477   1.160  0.00  0.00    -0.461 OA
BRANCH  16  18
ATOM     17  C   UNL     1      -0.019   1.526   0.010  0.00  0.00    +0.048 C 
ATOM     18  C   UNL     1       0.002  -0.004   0.002  0.00  0.00    +0.229 C 
ENDBRANCH  16  18
ENDBRANCH  14  16
ENDBRANCH   5  14
ENDBRANCH   1   9
BRANCH   2  19
ATOM     19  C   UNL     1       6.009  -2.515   0.401  0.00  0.00    +0.137 C 
ATOM     20  C   UNL     1       6.502  -1.067   0.424  0.00  0.00    +0.029 C 
BRANCH  19  21
ATOM     21  S   UNL     1       7.422  -3.638   0.577  0.00  0.00    -0.073 S 
BRANCH  21  22
ATOM     22  C   UNL     1       8.367  -3.366  -0.886  0.00  0.00    +0.197 A 
ATOM     23  N   UNL     1       8.079  -2.526  -1.855  0.00  0.00    -0.122 NA
ATOM     24  N   UNL     1       8.979  -2.579  -2.771  0.00  0.00    -0.129 NA
ATOM     25  C   UNL     1       9.904  -3.462  -2.440  0.00  0.00    +0.162 A 
ATOM     26  N   UNL     1       9.536  -3.985  -1.220  0.00  0.00    -0.270 N 
ATOM     27  C   UNL     1      10.313  -4.945  -0.596  0.00  0.00    +0.058 A 
ATOM     28  C   UNL     1       9.943  -5.476   0.632  0.00  0.00    +0.027 A 
ATOM     29  C   UNL     1      10.734  -6.432   1.236  0.00  0.00    +0.002 A 
ATOM     30  C   UNL     1      11.900  -6.871   0.627  0.00  0.00    +0.001 A 
ATOM     31  C   UNL     1      12.286  -6.358  -0.591  0.00  0.00    +0.010 A 
ATOM     32  C   UNL     1      11.495  -5.388  -1.215  0.00  0.00    +0.002 A 
ATOM     33  C   UNL     1      11.880  -4.823  -2.512  0.00  0.00    -0.038 A 
ATOM     34  C   UNL     1      11.085  -3.893  -3.088  0.00  0.00    +0.052 A 
ATOM     35  C   UNL     1      13.142  -5.279  -3.199  0.00  0.00    +0.044 C 
ENDBRANCH  21  22
ENDBRANCH  19  21
ENDBRANCH   2  19
TORSDOF 7
