REMARK  Name = ZINC06244883
REMARK  7 active torsions:
REMARK  status: ('A' for Active; 'I' for Inactive)
REMARK    1  A    between atoms: C_1  and  C_2
REMARK    2  A    between atoms: C_5  and  C_38
REMARK    3  A    between atoms: C_9  and  C_14
REMARK    4  A    between atoms: C_14  and  C_16
REMARK    5  A    between atoms: C_14  and  N_69
REMARK    6  A    between atoms: N_20  and  C_21
REMARK    7  A    between atoms: N_28  and  C_31
REMARK                            x       y       z     vdW  Elec       q    Type
REMARK                         _______ _______ _______ _____ _____    ______ ____
ROOT
ATOM      1  C   UNL     1      -5.066   1.540  -1.164  0.00  0.00    +0.039 C 
ENDROOT
BRANCH   1  10
ATOM      2  C   UNL     1      -0.013   1.086   0.008  0.00  0.00    +0.044 C 
ATOM      3  C   UNL     1      -0.718   1.572   1.248  0.00  0.00    -0.041 A 
ATOM      4  C   UNL     1      -0.010   1.804   2.393  0.00  0.00    +0.004 A 
ATOM      5  C   UNL     1      -0.650   2.252   3.540  0.00  0.00    +0.005 A 
ATOM      6  C   UNL     1      -2.011   2.472   3.546  0.00  0.00    -0.026 A 
ATOM      7  C   UNL     1      -2.752   2.242   2.392  0.00  0.00    +0.052 A 
ATOM      8  C   UNL     1      -2.099   1.793   1.229  0.00  0.00    +0.002 A 
ATOM      9  C   UNL     1      -2.889   1.549   0.021  0.00  0.00    +0.018 A 
ATOM     10  C   UNL     1      -4.225   1.776   0.064  0.00  0.00    +0.011 A 
ATOM     11  C   UNL     1      -4.831   2.232   1.254  0.00  0.00    +0.251 A 
ATOM     12  O   UNL     1      -6.033   2.429   1.270  0.00  0.00    -0.268 OA
ATOM     13  N   UNL     1      -4.115   2.454   2.370  0.00  0.00    -0.322 N 
ATOM     14  H   UNL     1      -4.563   2.768   3.171  0.00  0.00    +0.169 HD
ATOM     15  C   UNL     1      -2.693   2.960   4.799  0.00  0.00    +0.046 C 
ENDBRANCH   1  10
BRANCH   1  21
ATOM     16  C   UNL     1      -5.637  -0.644  -0.287  0.00  0.00    -0.058 C 
ATOM     17  C   UNL     1      -6.807  -1.547   0.113  0.00  0.00    +0.086 C 
ATOM     18  N   UNL     1      -7.650  -1.801  -1.064  0.00  0.00    -0.331 N 
ATOM     19  C   UNL     1      -8.172  -0.543  -1.616  0.00  0.00    +0.086 C 
ATOM     20  C   UNL     1      -7.002   0.360  -2.015  0.00  0.00    -0.058 C 
ATOM     21  N   UNL     1      -6.175   0.626  -0.819  0.00  0.00    +0.391 N 
ATOM     22  H   UNL     1      -6.760   1.068  -0.100  0.00  0.00    -0.080 HD
BRANCH  18  23
ATOM     23  C   UNL     1      -8.690  -2.682  -0.754  0.00  0.00    +0.065 A 
ATOM     24  C   UNL     1      -9.560  -3.110  -1.748  0.00  0.00    +0.026 A 
ATOM     25  C   UNL     1     -10.585  -3.983  -1.440  0.00  0.00    +0.002 A 
ATOM     26  C   UNL     1     -10.751  -4.425  -0.140  0.00  0.00    +0.003 A 
ATOM     27  C   UNL     1      -9.891  -3.999   0.855  0.00  0.00    +0.040 A 
ATOM     28  C   UNL     1      -8.861  -3.128   0.553  0.00  0.00    +0.144 A 
ATOM     29  F   UNL     1      -8.020  -2.710   1.525  0.00  0.00    -0.204 F 
ENDBRANCH  18  23
ENDBRANCH   1  21
BRANCH   1  30
ATOM     30  C   UNL     1      -5.641   2.850  -1.638  0.00  0.00    +0.143 A 
ATOM     31  N   UNL     1      -6.635   3.510  -1.096  0.00  0.00    -0.115 NA
ATOM     32  N   UNL     1      -6.827   4.580  -1.788  0.00  0.00    -0.023 NA
ATOM     33  N   UNL     1      -5.987   4.615  -2.762  0.00  0.00    -0.044 NA
ATOM     34  N   UNL     1      -5.238   3.566  -2.704  0.00  0.00    -0.227 N 
BRANCH  34  35
ATOM     35  C   UNL     1      -4.153   3.219  -3.626  0.00  0.00    +0.111 C 
ATOM     36  C   UNL     1      -3.099   4.346  -3.649  0.00  0.00    +0.027 C 
ATOM     37  C   UNL     1      -2.641   4.405  -5.128  0.00  0.00    +0.002 C 
ATOM     38  C   UNL     1      -3.957   4.152  -5.905  0.00  0.00    +0.002 C 
ATOM     39  C   UNL     1      -4.698   3.095  -5.059  0.00  0.00    +0.027 C 
ENDBRANCH  34  35
ENDBRANCH   1  30
TORSDOF 5
