REMARK  Name = ZINC39376852
REMARK  3 active torsions:
REMARK  status: ('A' for Active; 'I' for Inactive)
REMARK    1  A    between atoms: C_7  and  C_10
REMARK    2  A    between atoms: N_11  and  C_12
REMARK    3  A    between atoms: C_16  and  C_18
REMARK                            x       y       z     vdW  Elec       q    Type
REMARK                         _______ _______ _______ _____ _____    ______ ____
ROOT
ATOM      1  C   UNL     1       0.655  -3.135  -0.022  0.00  0.00    +0.117 C 
ATOM      2  N   UNL     1       1.113  -4.363  -0.033  0.00  0.00    -0.255 NA
ENDROOT
BRANCH   1   9
ATOM      3  C   UNL     1      -0.016   1.349   0.009  0.00  0.00    +0.001 A 
ATOM      4  C   UNL     1       1.156   2.114   0.002  0.00  0.00    +0.002 A 
ATOM      5  C   UNL     1       2.383   1.543  -0.012  0.00  0.00    +0.026 A 
ATOM      6  C   UNL     1       2.489   0.079  -0.021  0.00  0.00    +0.043 A 
ATOM      7  N   UNL     1       3.526  -0.722  -0.036  0.00  0.00    -0.380 N 
ATOM      8  C   UNL     1       3.062  -2.113  -0.039  0.00  0.00    +0.150 C 
ATOM      9  C   UNL     1       1.551  -2.051  -0.024  0.00  0.00    -0.001 C 
ATOM     10  C   UNL     1       1.233  -0.700  -0.013  0.00  0.00    +0.004 A 
ATOM     11  C   UNL     1       0.002  -0.004   0.002  0.00  0.00    +0.010 A 
ATOM     12  H   UNL     1       4.453  -0.439  -0.043  0.00  0.00    +0.160 HD
ENDBRANCH   1   9
BRANCH   2  13
ATOM     13  C   UNL     1       0.247  -5.412  -0.031  0.00  0.00    +0.065 A 
ATOM     14  C   UNL     1      -0.858  -5.411   0.833  0.00  0.00    +0.028 A 
ATOM     15  C   UNL     1      -1.735  -6.475   0.834  0.00  0.00    +0.003 A 
ATOM     16  C   UNL     1      -1.534  -7.548  -0.014  0.00  0.00    +0.013 A 
ATOM     17  C   UNL     1      -0.439  -7.564  -0.881  0.00  0.00    +0.038 A 
ATOM     18  C   UNL     1       0.451  -6.493  -0.894  0.00  0.00    +0.040 A 
BRANCH  17  19
ATOM     19  C   UNL     1      -0.228  -8.714  -1.786  0.00  0.00    +0.242 C 
ATOM     20  O   UNL     1       0.726  -8.727  -2.540  0.00  0.00    -0.270 OA
ATOM     21  N   UNL     1      -1.092  -9.748  -1.775  0.00  0.00    -0.325 N 
ATOM     22  H   UNL     1      -1.853  -9.737  -1.173  0.00  0.00    +0.145 HD
ATOM     23  H   UNL     1      -0.953 -10.502  -2.368  0.00  0.00    +0.145 HD
ENDBRANCH  17  19
ENDBRANCH   2  13
TORSDOF 3
