REMARK  Name = ZINC09461704
REMARK  5 active torsions:
REMARK  status: ('A' for Active; 'I' for Inactive)
REMARK    1  A    between atoms: C_1  and  C_2
REMARK    2  A    between atoms: C_2  and  C_25
REMARK    3  A    between atoms: N_5  and  C_9
REMARK    4  A    between atoms: C_9  and  C_10
REMARK    5  A    between atoms: C_18  and  C_20
REMARK                            x       y       z     vdW  Elec       q    Type
REMARK                         _______ _______ _______ _____ _____    ______ ____
ROOT
ATOM      1  C   UNL     1     -10.732   1.779   0.819  0.00  0.00    +0.047 C 
ATOM      2  C   UNL     1      -9.858   2.896   0.245  0.00  0.00    +0.135 C 
ATOM      3  C   UNL     1      -8.400   2.664   0.591  0.00  0.00    +0.251 C 
ATOM      4  O   UNL     1      -7.910   2.612   1.698  0.00  0.00    -0.272 OA
ATOM      5  N   UNL     1      -7.763   2.529  -0.589  0.00  0.00    -0.215 N 
ATOM      6  C   UNL     1      -8.605   2.648  -1.621  0.00  0.00    +0.310 C 
ATOM      7  O   UNL     1      -8.264   2.567  -2.785  0.00  0.00    -0.252 OA
ATOM      8  N   UNL     1      -9.874   2.862  -1.228  0.00  0.00    -0.281 N 
ATOM      9  H   UNL     1     -10.648   2.975  -1.801  0.00  0.00    +0.152 HD
ENDROOT
BRANCH   2  10
ATOM     10  C   UNL     1     -10.316   4.239   0.752  0.00  0.00    -0.015 A 
ATOM     11  C   UNL     1      -9.730   4.777   1.898  0.00  0.00    +0.007 A 
ATOM     12  C   UNL     1     -10.120   5.987   2.382  0.00  0.00    +0.009 A 
ATOM     13  C   UNL     1     -11.129   6.709   1.720  0.00  0.00    -0.018 A 
ATOM     14  C   UNL     1     -11.557   7.962   2.190  0.00  0.00    +0.008 A 
ATOM     15  C   UNL     1     -12.536   8.632   1.523  0.00  0.00    +0.001 A 
ATOM     16  C   UNL     1     -13.122   8.095   0.378  0.00  0.00    +0.001 A 
ATOM     17  C   UNL     1     -12.732   6.884  -0.106  0.00  0.00    +0.008 A 
ATOM     18  C   UNL     1     -11.724   6.162   0.556  0.00  0.00    -0.018 A 
ATOM     19  C   UNL     1     -11.291   4.912   0.083  0.00  0.00    +0.014 A 
ENDBRANCH   2  10
BRANCH   5  20
ATOM     20  C   UNL     1      -6.324   2.289  -0.724  0.00  0.00    +0.213 C 
BRANCH  20  21
ATOM     21  C   UNL     1      -6.061   0.805  -0.735  0.00  0.00    +0.234 C 
ATOM     22  O   UNL     1      -6.985   0.025  -0.639  0.00  0.00    -0.274 OA
ATOM     23  N   UNL     1      -4.800   0.345  -0.851  0.00  0.00    -0.297 N 
ATOM     24  C   UNL     1      -4.529  -1.099  -0.863  0.00  0.00    +0.127 C 
ATOM     25  C   UNL     1      -3.514  -1.417   0.242  0.00  0.00    +0.127 C 
ATOM     26  N   UNL     1      -2.385  -0.483   0.124  0.00  0.00    -0.294 N 
ATOM     27  C   UNL     1      -2.655   0.961   0.142  0.00  0.00    +0.127 C 
ATOM     28  C   UNL     1      -3.671   1.278  -0.969  0.00  0.00    +0.127 C 
ATOM     29  C   UNL     1      -1.123  -0.943   0.008  0.00  0.00    +0.253 C 
ATOM     30  O   UNL     1      -0.920  -2.136  -0.121  0.00  0.00    -0.269 OA
BRANCH  29  31
ATOM     31  C   UNL     1       0.004  -0.007   0.037  0.00  0.00    +0.074 A 
ATOM     32  C   UNL     1       1.279  -0.158  -0.486  0.00  0.00    +0.021 A 
ATOM     33  C   UNL     1       2.152   0.887  -0.316  0.00  0.00    +0.008 A 
ATOM     34  C   UNL     1       1.735   2.000   0.344  0.00  0.00    +0.046 A 
ATOM     35  S   UNL     1       0.093   1.624   0.755  0.00  0.00    -0.092 S 
ENDBRANCH  29  31
ENDBRANCH  20  21
ENDBRANCH   5  20
TORSDOF 4
