REMARK  Name = ZINC31985561
REMARK  16 active torsions:
REMARK  status: ('A' for Active; 'I' for Inactive)
REMARK    1  A    between atoms: C_1  and  C_2
REMARK    2  A    between atoms: C_2  and  N_3
REMARK    3  A    between atoms: N_3  and  C_4
REMARK    4  A    between atoms: N_3  and  C_6
REMARK    5  A    between atoms: C_4  and  C_5
REMARK    6  A    between atoms: C_6  and  C_8
REMARK    7  A    between atoms: C_6  and  C_30
REMARK    8  A    between atoms: C_8  and  N_9
REMARK    9  A    between atoms: C_10  and  C_12
REMARK   10  A    between atoms: C_12  and  C_13
REMARK   11  A    between atoms: C_13  and  C_14
REMARK   12  A    between atoms: C_18  and  S_24
REMARK   13  A    between atoms: N_22  and  C_23
REMARK   14  A    between atoms: S_24  and  N_27
REMARK   15  A    between atoms: N_27  and  C_28
REMARK   16  A    between atoms: N_27  and  C_29
REMARK                            x       y       z     vdW  Elec       q    Type
REMARK                         _______ _______ _______ _____ _____    ______ ____
ROOT
ATOM      1  C   UNL     1      -0.950   0.640  -3.418  0.00  0.00    +0.103 C 
ENDROOT
BRANCH   1   3
ATOM      2  N   UNL     1      -1.608   0.938  -1.052  0.00  0.00    -0.317 N 
ATOM      3  C   UNL     1      -1.759   1.312  -2.338  0.00  0.00    +0.213 C 
ATOM      4  O   UNL     1      -2.546   2.188  -2.627  0.00  0.00    -0.276 OA
ATOM      5  H   UNL     1      -0.831   0.208  -0.779  0.00  0.00    +0.149 HD
BRANCH   2   6
ATOM      6  C   UNL     1      -2.478   1.503  -0.018  0.00  0.00    +0.093 C 
BRANCH   6   7
ATOM      7  C   UNL     1      -2.023   1.010   1.357  0.00  0.00    -0.020 C 
BRANCH   7   8
ATOM      8  C   UNL     1      -2.803   1.723   2.430  0.00  0.00    -0.052 A 
ATOM      9  C   UNL     1      -3.493   1.007   3.390  0.00  0.00    +0.009 A 
ATOM     10  C   UNL     1      -4.185   1.679   4.341  0.00  0.00    +0.045 A 
ATOM     11  S   UNL     1      -3.872   3.379   3.894  0.00  0.00    -0.105 S 
ATOM     12  C   UNL     1      -2.835   3.078   2.473  0.00  0.00    +0.047 A 
ENDBRANCH   7   8
BRANCH   7  13
ATOM     13  N   UNL     1      -0.590   1.286   1.527  0.00  0.00    +0.385 N 
ATOM     14  H   UNL     1      -0.030   0.544   0.940  0.00  0.00    -0.081 HD
BRANCH  13  16
ATOM     15  C   UNL     1      -0.182  -0.336   3.315  0.00  0.00    -0.017 C 
ATOM     16  C   UNL     1      -0.190   1.145   2.933  0.00  0.00    -0.081 C 
ENDBRANCH  13  16
BRANCH  13  17
ATOM     17  C   UNL     1      -0.247   2.619   1.013  0.00  0.00    -0.081 C 
ATOM     18  C   UNL     1       1.275   2.775   0.976  0.00  0.00    -0.017 C 
ENDBRANCH  13  17
ENDBRANCH   7  13
ENDBRANCH   6   7
ENDBRANCH   2   6
ENDBRANCH   1   3
BRANCH   1  19
ATOM     19  C   UNL     1      -1.206   1.339  -4.755  0.00  0.00    +0.083 C 
BRANCH  19  20
ATOM     20  C   UNL     1      -0.397   0.667  -5.835  0.00  0.00    +0.111 A 
ATOM     21  N   UNL     1      -0.807  -0.330  -6.563  0.00  0.00    -0.232 NA
ATOM     22  C   UNL     1       0.168  -0.690  -7.436  0.00  0.00    +0.091 A 
ATOM     23  C   UNL     1       0.262  -1.673  -8.425  0.00  0.00    +0.058 A 
ATOM     24  C   UNL     1       1.407  -1.791  -9.161  0.00  0.00    +0.108 A 
ATOM     25  C   UNL     1       2.482  -0.944  -8.938  0.00  0.00    +0.030 A 
ATOM     26  C   UNL     1       2.413   0.033  -7.968  0.00  0.00    +0.030 A 
ATOM     27  C   UNL     1       1.257   0.169  -7.210  0.00  0.00    +0.069 A 
ATOM     28  N   UNL     1       0.867   1.020  -6.196  0.00  0.00    -0.331 N 
ATOM     29  C   UNL     1       1.667   2.100  -5.612  0.00  0.00    +0.150 C 
BRANCH  24  30
ATOM     30  S   UNL     1       1.518  -3.033 -10.406  0.00  0.00    +0.060 S 
ATOM     31  O   UNL     1       0.186  -3.341 -10.793  0.00  0.00    -0.153 OA
ATOM     32  O   UNL     1       2.498  -2.590 -11.335  0.00  0.00    -0.153 OA
BRANCH  30  33
ATOM     33  N   UNL     1       2.129  -4.394  -9.687  0.00  0.00    -0.183 NA
ATOM     34  C   UNL     1       1.221  -5.379  -9.093  0.00  0.00    +0.131 C 
ATOM     35  C   UNL     1       3.576  -4.614  -9.645  0.00  0.00    +0.131 C 
ENDBRANCH  30  33
ENDBRANCH  24  30
ENDBRANCH  19  20
ENDBRANCH   1  19
TORSDOF 11
