REMARK  Name = ZINC50867810
REMARK  1 active torsions:
REMARK  status: ('A' for Active; 'I' for Inactive)
REMARK    1  A    between atoms: C_8  and  C_10
REMARK                            x       y       z     vdW  Elec       q    Type
REMARK                         _______ _______ _______ _____ _____    ______ ____
ROOT
ATOM      1  C   UNL     1      -0.017   1.363   0.009  0.00  0.00    +0.001 A 
ATOM      2  C   UNL     1       1.171   2.082   0.002  0.00  0.00    +0.004 A 
ATOM      3  C   UNL     1       2.387   1.433  -0.013  0.00  0.00    +0.047 A 
ATOM      4  C   UNL     1       2.430   0.044  -0.021  0.00  0.00    +0.136 A 
ATOM      5  C   UNL     1       1.224  -0.679  -0.013  0.00  0.00    +0.021 A 
ATOM      6  C   UNL     1       0.002  -0.004   0.002  0.00  0.00    +0.011 A 
ATOM      7  C   UNL     1       1.610  -2.092  -0.025  0.00  0.00    +0.060 A 
ATOM      8  C   UNL     1       2.964  -2.111  -0.039  0.00  0.00    +0.156 A 
ATOM      9  O   UNL     1       3.439  -0.850  -0.037  0.00  0.00    -0.453 OA
ENDROOT
BRANCH   8  10
ATOM     10  C   UNL     1       3.796  -3.332  -0.054  0.00  0.00    +0.128 A 
ATOM     11  C   UNL     1       5.194  -3.230  -0.061  0.00  0.00    +0.037 A 
ATOM     12  C   UNL     1       5.929  -4.401  -0.075  0.00  0.00    +0.047 A 
ATOM     13  C   UNL     1       5.233  -5.612  -0.080  0.00  0.00    +0.139 A 
ATOM     14  N   UNL     1       3.908  -5.614  -0.072  0.00  0.00    -0.134 NA
ATOM     15  N   UNL     1       3.222  -4.529  -0.054  0.00  0.00    -0.144 NA
ATOM     16  N   UNL     1       5.931  -6.814  -0.094  0.00  0.00    -0.342 N 
ATOM     17  H   UNL     1       6.901  -6.812  -0.101  0.00  0.00    +0.144 HD
ATOM     18  H   UNL     1       5.447  -7.655  -0.098  0.00  0.00    +0.144 HD
ENDBRANCH   8  10
TORSDOF 1
