REMARK  Name = ZINC24108049
REMARK  12 active torsions:
REMARK  status: ('A' for Active; 'I' for Inactive)
REMARK    1  A    between atoms: C_1  and  C_2
REMARK    2  A    between atoms: C_2  and  C_4
REMARK    3  A    between atoms: C_2  and  N_34
REMARK    4  A    between atoms: C_7  and  S_16
REMARK    5  A    between atoms: N_8  and  C_9
REMARK    6  A    between atoms: S_16  and  C_17
REMARK    7  A    between atoms: C_17  and  C_19
REMARK    8  A    between atoms: C_17  and  C_20
REMARK    9  A    between atoms: C_23  and  C_25
REMARK   10  A    between atoms: C_28  and  N_31
REMARK   11  A    between atoms: N_34  and  C_35
REMARK   12  A    between atoms: N_34  and  C_36
REMARK                            x       y       z     vdW  Elec       q    Type
REMARK                         _______ _______ _______ _____ _____    ______ ____
ROOT
ATOM      1  C   UNL     1      -1.735   3.449   0.092  0.00  0.00    +0.125 A 
ATOM      2  N   UNL     1      -1.713   3.004  -1.133  0.00  0.00    -0.135 NA
ATOM      3  N   UNL     1      -2.627   3.579  -1.829  0.00  0.00    -0.122 NA
ATOM      4  C   UNL     1      -3.289   4.431  -1.081  0.00  0.00    +0.197 A 
ATOM      5  N   UNL     1      -2.744   4.371   0.172  0.00  0.00    -0.275 N 
ENDROOT
BRANCH   5   6
ATOM      6  C   UNL     1      -3.136   5.103   1.303  0.00  0.00    +0.050 A 
ATOM      7  C   UNL     1      -3.672   4.449   2.403  0.00  0.00    +0.029 A 
ATOM      8  C   UNL     1      -4.053   5.171   3.518  0.00  0.00    +0.040 A 
ATOM      9  C   UNL     1      -3.909   6.548   3.533  0.00  0.00    +0.124 A 
ATOM     10  C   UNL     1      -3.379   7.203   2.434  0.00  0.00    +0.040 A 
ATOM     11  C   UNL     1      -2.993   6.484   1.320  0.00  0.00    +0.029 A 
ATOM     12  F   UNL     1      -4.287   7.254   4.622  0.00  0.00    -0.205 F 
ENDBRANCH   5   6
BRANCH   1  14
ATOM     13  C   UNL     1       0.559   3.650   1.013  0.00  0.00    -0.005 C 
ATOM     14  C   UNL     1      -0.822   3.023   1.213  0.00  0.00    -0.003 C 
BRANCH  14  15
ATOM     15  N   UNL     1      -0.700   1.560   1.217  0.00  0.00    +0.382 N 
ATOM     16  C   UNL     1      -0.013   1.086   0.008  0.00  0.00    -0.096 C 
ATOM     17  C   UNL     1      -0.016   1.091   2.429  0.00  0.00    -0.096 C 
ATOM     18  H   UNL     1      -1.715   1.136   1.216  0.00  0.00    -0.082 HD
ENDBRANCH  14  15
ENDBRANCH   1  14
BRANCH   4  19
ATOM     19  S   UNL     1      -4.631   5.452  -1.593  0.00  0.00    -0.073 S 
BRANCH  19  20
ATOM     20  C   UNL     1      -4.756   4.960  -3.330  0.00  0.00    +0.139 C 
ATOM     21  C   UNL     1      -3.484   5.377  -4.071  0.00  0.00    +0.029 C 
BRANCH  20  22
ATOM     22  C   UNL     1      -5.948   5.635  -3.959  0.00  0.00    +0.231 A 
ATOM     23  N   UNL     1      -6.284   6.888  -3.822  0.00  0.00    -0.111 NA
ATOM     24  N   UNL     1      -7.352   7.122  -4.500  0.00  0.00    -0.107 NA
ATOM     25  C   UNL     1      -7.742   6.017  -5.090  0.00  0.00    +0.248 A 
ATOM     26  O   UNL     1      -6.859   5.054  -4.758  0.00  0.00    -0.419 OA
BRANCH  25  27
ATOM     27  C   UNL     1      -8.928   5.858  -5.957  0.00  0.00    +0.039 A 
ATOM     28  C   UNL     1      -9.219   4.617  -6.525  0.00  0.00    +0.015 A 
ATOM     29  C   UNL     1     -10.330   4.474  -7.331  0.00  0.00    +0.033 A 
ATOM     30  C   UNL     1     -11.150   5.559  -7.583  0.00  0.00    +0.126 A 
ATOM     31  C   UNL     1     -10.865   6.793  -7.027  0.00  0.00    +0.033 A 
ATOM     32  C   UNL     1      -9.759   6.949  -6.216  0.00  0.00    +0.015 A 
BRANCH  30  33
ATOM     33  N   UNL     1     -12.338   5.400  -8.452  0.00  0.00    +0.056 N 
ATOM     34  O   UNL     1     -13.061   6.354  -8.676  0.00  0.00    -0.126 OA
ATOM     35  O   UNL     1     -12.591   4.315  -8.944  0.00  0.00    -0.126 OA
ENDBRANCH  30  33
ENDBRANCH  25  27
ENDBRANCH  20  22
ENDBRANCH  19  20
ENDBRANCH   4  19
TORSDOF 8
