REMARK  Name = ZINC25045420
REMARK  7 active torsions:
REMARK  status: ('A' for Active; 'I' for Inactive)
REMARK    1  A    between atoms: C_1  and  C_2
REMARK    2  A    between atoms: C_2  and  C_27
REMARK    3  A    between atoms: N_5  and  C_9
REMARK    4  A    between atoms: C_9  and  C_10
REMARK    5  A    between atoms: C_10  and  C_12
REMARK    6  A    between atoms: C_10  and  O_26
REMARK    7  A    between atoms: C_12  and  N_13
REMARK                            x       y       z     vdW  Elec       q    Type
REMARK                         _______ _______ _______ _____ _____    ______ ____
ROOT
ATOM      1  C   UNL     1      -0.729   1.579   1.267  0.00  0.00    +0.152 C 
ENDROOT
BRANCH   1   2
ATOM      2  O   UNL     1      -2.030   0.991   1.336  0.00  0.00    -0.388 OA
ATOM      3  H   UNL     1      -2.757   1.168   0.530  0.00  0.00    +0.210 HD
ENDBRANCH   1   2
BRANCH   1   4
ATOM      4  C   UNL     1       0.079   1.179   2.503  0.00  0.00    +0.151 C 
BRANCH   4   9
ATOM      5  C   UNL     1      -1.626   1.139   6.881  0.00  0.00    +0.042 C 
ATOM      6  C   UNL     1      -1.954   1.812   5.547  0.00  0.00    +0.113 C 
ATOM      7  C   UNL     1      -1.524   0.934   4.388  0.00  0.00    +0.247 C 
ATOM      8  O   UNL     1      -1.924  -0.180   4.126  0.00  0.00    -0.273 OA
ATOM      9  N   UNL     1      -0.607   1.651   3.708  0.00  0.00    -0.222 N 
ATOM     10  C   UNL     1      -0.396   2.845   4.274  0.00  0.00    +0.309 C 
ATOM     11  O   UNL     1       0.390   3.666   3.845  0.00  0.00    -0.252 OA
ATOM     12  N   UNL     1      -1.153   3.036   5.369  0.00  0.00    -0.285 N 
ATOM     13  H   UNL     1      -1.260   3.870   6.078  0.00  0.00    +0.151 HD
BRANCH   6  14
ATOM     14  C   UNL     1      -3.448   2.128   5.457  0.00  0.00    +0.021 C 
ATOM     15  C   UNL     1      -3.737   2.862   4.146  0.00  0.00    +0.006 C 
ATOM     16  C   UNL     1      -5.231   3.179   4.057  0.00  0.00    +0.000 C 
ATOM     17  C   UNL     1      -5.636   4.064   5.237  0.00  0.00    +0.000 C 
ATOM     18  C   UNL     1      -5.348   3.330   6.548  0.00  0.00    +0.000 C 
ATOM     19  C   UNL     1      -3.853   3.014   6.638  0.00  0.00    +0.006 C 
ENDBRANCH   6  14
ENDBRANCH   4   9
ENDBRANCH   1   4
BRANCH   1  20
ATOM     20  C   UNL     1      -0.013   1.086   0.008  0.00  0.00    +0.155 C 
BRANCH  20  21
ATOM     21  N   UNL     1      -0.721   1.571  -1.179  0.00  0.00    -0.337 N 
ATOM     22  C   UNL     1      -1.742   0.895  -1.822  0.00  0.00    +0.050 A 
ATOM     23  C   UNL     1      -2.365  -0.323  -1.567  0.00  0.00    +0.026 A 
ATOM     24  C   UNL     1      -3.385  -0.761  -2.385  0.00  0.00    +0.002 A 
ATOM     25  C   UNL     1      -3.804   0.004  -3.462  0.00  0.00    +0.001 A 
ATOM     26  C   UNL     1      -3.203   1.216  -3.727  0.00  0.00    +0.010 A 
ATOM     27  C   UNL     1      -2.172   1.671  -2.909  0.00  0.00    +0.008 A 
ATOM     28  C   UNL     1      -1.337   2.886  -2.910  0.00  0.00    +0.008 A 
ATOM     29  C   UNL     1      -0.461   2.769  -1.821  0.00  0.00    +0.050 A 
ATOM     30  C   UNL     1       0.456   3.785  -1.572  0.00  0.00    +0.026 A 
ATOM     31  C   UNL     1       0.499   4.892  -2.391  0.00  0.00    +0.002 A 
ATOM     32  C   UNL     1      -0.368   5.007  -3.467  0.00  0.00    +0.001 A 
ATOM     33  C   UNL     1      -1.284   4.011  -3.730  0.00  0.00    +0.010 A 
ENDBRANCH  20  21
ENDBRANCH   1  20
TORSDOF 6
