REMARK  Name = ZINC14129020
REMARK  7 active torsions:
REMARK  status: ('A' for Active; 'I' for Inactive)
REMARK    1  A    between atoms: C_1  and  C_2
REMARK    2  A    between atoms: C_2  and  C_25
REMARK    3  A    between atoms: N_5  and  C_9
REMARK    4  A    between atoms: C_9  and  C_10
REMARK    5  A    between atoms: C_10  and  C_12
REMARK    6  A    between atoms: N_20  and  S_21
REMARK    7  A    between atoms: S_21  and  C_24
REMARK                            x       y       z     vdW  Elec       q    Type
REMARK                         _______ _______ _______ _____ _____    ______ ____
ROOT
ATOM      1  C   UNL     1       5.793  -7.636   0.932  0.00  0.00    +0.047 C 
ATOM      2  C   UNL     1       6.754  -6.514   0.535  0.00  0.00    +0.136 C 
ATOM      3  C   UNL     1       6.263  -5.177   1.052  0.00  0.00    +0.251 C 
ATOM      4  O   UNL     1       6.096  -4.855   2.209  0.00  0.00    -0.272 OA
ATOM      5  N   UNL     1       6.048  -4.420  -0.042  0.00  0.00    -0.216 N 
ATOM      6  C   UNL     1       6.339  -5.083  -1.166  0.00  0.00    +0.310 C 
ATOM      7  O   UNL     1       6.229  -4.608  -2.279  0.00  0.00    -0.252 OA
ATOM      8  N   UNL     1       6.767  -6.336  -0.927  0.00  0.00    -0.281 N 
ATOM      9  H   UNL     1       7.033  -6.994  -1.589  0.00  0.00    +0.152 HD
ENDROOT
BRANCH   2  10
ATOM     10  C   UNL     1       8.142  -6.802   1.046  0.00  0.00    -0.008 A 
ATOM     11  C   UNL     1       9.184  -6.907   0.176  0.00  0.00    +0.007 A 
ATOM     12  C   UNL     1      10.474  -7.173   0.631  0.00  0.00    +0.001 A 
ATOM     13  C   UNL     1      10.730  -7.334   1.958  0.00  0.00    +0.008 A 
ATOM     14  C   UNL     1       9.681  -7.232   2.886  0.00  0.00    -0.018 A 
ATOM     15  C   UNL     1       8.369  -6.957   2.424  0.00  0.00    -0.012 A 
ATOM     16  C   UNL     1       7.318  -6.860   3.353  0.00  0.00    +0.009 A 
ATOM     17  C   UNL     1       7.574  -7.021   4.679  0.00  0.00    +0.001 A 
ATOM     18  C   UNL     1       8.865  -7.287   5.134  0.00  0.00    +0.001 A 
ATOM     19  C   UNL     1       9.906  -7.392   4.264  0.00  0.00    +0.008 A 
ENDBRANCH   2  10
BRANCH   5  20
ATOM     20  C   UNL     1       5.561  -3.038  -0.004  0.00  0.00    +0.197 C 
BRANCH  20  21
ATOM     21  C   UNL     1       4.055  -3.034  -0.060  0.00  0.00    +0.181 C 
ATOM     22  O   UNL     1       3.448  -4.083  -0.125  0.00  0.00    -0.290 OA
BRANCH  21  23
ATOM     23  C   UNL     1       3.323  -1.763  -0.036  0.00  0.00    +0.019 A 
ATOM     24  C   UNL     1       4.019  -0.549   0.039  0.00  0.00    +0.013 A 
ATOM     25  C   UNL     1       3.335   0.629   0.061  0.00  0.00    +0.026 A 
ATOM     26  C   UNL     1       1.935   0.641   0.009  0.00  0.00    +0.054 A 
ATOM     27  C   UNL     1       1.248  -0.566  -0.067  0.00  0.00    -0.023 A 
ATOM     28  C   UNL     1       1.923  -1.753  -0.089  0.00  0.00    +0.017 A 
ATOM     29  C   UNL     1      -0.235  -0.270  -0.111  0.00  0.00    +0.058 C 
ATOM     30  C   UNL     1      -0.322   1.264  -0.052  0.00  0.00    +0.136 C 
ATOM     31  N   UNL     1       1.067   1.725   0.019  0.00  0.00    -0.207 N 
BRANCH  31  32
ATOM     32  S   UNL     1       1.535   3.311   0.101  0.00  0.00    +0.043 S 
ATOM     33  O   UNL     1       2.844   3.332  -0.452  0.00  0.00    -0.155 OA
ATOM     34  O   UNL     1       0.477   4.033  -0.514  0.00  0.00    -0.155 OA
ATOM     35  C   UNL     1       1.600   3.687   1.874  0.00  0.00    +0.218 C 
ENDBRANCH  31  32
ENDBRANCH  21  23
ENDBRANCH  20  21
ENDBRANCH   5  20
TORSDOF 5
