REMARK  Name = ZINC40485768
REMARK  7 active torsions:
REMARK  status: ('A' for Active; 'I' for Inactive)
REMARK    1  A    between atoms: C_1  and  O_2
REMARK    2  A    between atoms: O_2  and  C_3
REMARK    3  A    between atoms: C_6  and  C_9
REMARK    4  A    between atoms: C_10  and  O_33
REMARK    5  A    between atoms: N_13  and  C_23
REMARK    6  A    between atoms: C_14  and  C_16
REMARK    7  A    between atoms: C_23  and  C_24
REMARK                            x       y       z     vdW  Elec       q    Type
REMARK                         _______ _______ _______ _____ _____    ______ ____
ROOT
ATOM      1  C   UNL     1       2.489  -2.489  -4.357  0.00  0.00    +0.031 C 
ATOM      2  C   UNL     1       3.802  -2.436  -4.675  0.00  0.00    +0.185 C 
ATOM      3  C   UNL     1       4.042  -3.221  -5.886  0.00  0.00    +0.282 C 
ATOM      4  O   UNL     1       5.126  -3.365  -6.420  0.00  0.00    -0.267 OA
ATOM      5  N   UNL     1       2.891  -3.762  -6.325  0.00  0.00    -0.279 N 
ATOM      6  C   UNL     1       1.824  -3.354  -5.402  0.00  0.00    +0.144 C 
ENDROOT
BRANCH   6   7
ATOM      7  C   UNL     1       0.776  -2.562  -6.141  0.00  0.00    +0.013 A 
ATOM      8  C   UNL     1       1.068  -2.012  -7.375  0.00  0.00    +0.008 A 
ATOM      9  C   UNL     1       0.107  -1.286  -8.053  0.00  0.00    +0.001 A 
ATOM     10  C   UNL     1      -1.147  -1.109  -7.498  0.00  0.00    +0.003 A 
ATOM     11  C   UNL     1      -1.441  -1.658  -6.265  0.00  0.00    +0.039 A 
ATOM     12  C   UNL     1      -0.481  -2.390  -5.587  0.00  0.00    +0.129 A 
ATOM     13  F   UNL     1      -0.769  -2.932  -4.383  0.00  0.00    -0.205 F 
ENDBRANCH   6   7
BRANCH   1  17
ATOM     14  C   UNL     1       0.605  -0.607  -1.055  0.00  0.00    +0.120 A 
ATOM     15  C   UNL     1       1.172   0.166  -2.061  0.00  0.00    +0.046 A 
ATOM     16  C   UNL     1       1.785  -0.440  -3.135  0.00  0.00    +0.012 A 
ATOM     17  C   UNL     1       1.837  -1.837  -3.212  0.00  0.00    -0.016 A 
ATOM     18  C   UNL     1       1.264  -2.610  -2.196  0.00  0.00    +0.012 A 
ATOM     19  C   UNL     1       0.658  -1.994  -1.123  0.00  0.00    +0.046 A 
BRANCH  14  21
ATOM     20  C   UNL     1      -0.017   1.425   0.010  0.00  0.00    +0.277 C 
ATOM     21  O   UNL     1       0.002  -0.004   0.002  0.00  0.00    -0.495 OA
ENDBRANCH  14  21
ENDBRANCH   1  17
BRANCH   2  22
ATOM     22  O   UNL     1       4.753  -1.759  -3.977  0.00  0.00    -0.502 OA
ATOM     23  H   UNL     1       5.642  -1.833  -4.351  0.00  0.00    +0.292 HD
ENDBRANCH   2  22
BRANCH   5  24
ATOM     24  C   UNL     1       2.731  -4.609  -7.509  0.00  0.00    +0.144 C 
BRANCH  24  25
ATOM     25  C   UNL     1       2.914  -6.054  -7.121  0.00  0.00    -0.026 A 
ATOM     26  C   UNL     1       4.173  -6.624  -7.161  0.00  0.00    +0.009 A 
ATOM     27  C   UNL     1       4.347  -7.949  -6.806  0.00  0.00    +0.050 A 
ATOM     28  C   UNL     1       3.258  -8.709  -6.409  0.00  0.00    +0.166 A 
ATOM     29  C   UNL     1       1.990  -8.134  -6.369  0.00  0.00    +0.167 A 
ATOM     30  C   UNL     1       1.825  -6.805  -6.721  0.00  0.00    +0.054 A 
ATOM     31  O   UNL     1       1.097  -9.078  -5.951  0.00  0.00    -0.453 OA
ATOM     32  C   UNL     1       1.762 -10.343  -6.128  0.00  0.00    +0.466 C 
ATOM     33  O   UNL     1       3.159 -10.012  -6.016  0.00  0.00    -0.453 OA
ENDBRANCH  24  25
ENDBRANCH   5  24
TORSDOF 6
