REMARK  Name = ZINC08424517
REMARK  6 active torsions:
REMARK  status: ('A' for Active; 'I' for Inactive)
REMARK    1  A    between atoms: C_1  and  O_2
REMARK    2  A    between atoms: O_2  and  C_3
REMARK    3  A    between atoms: C_5  and  C_11
REMARK    4  A    between atoms: C_8  and  O_9
REMARK    5  A    between atoms: N_15  and  C_25
REMARK    6  A    between atoms: N_17  and  C_18
REMARK                            x       y       z     vdW  Elec       q    Type
REMARK                         _______ _______ _______ _____ _____    ______ ____
ROOT
ATOM      1  C   UNL     1       3.380  -0.901   1.203  0.00  0.00    +0.028 C 
ATOM      2  C   UNL     1       3.551  -2.150   0.698  0.00  0.00    +0.078 C 
ATOM      3  C   UNL     1       4.695  -3.070   0.844  0.00  0.00    +0.263 C 
ATOM      4  O   UNL     1       5.680  -2.762   1.488  0.00  0.00    -0.269 OA
ATOM      5  N   UNL     1       4.602  -4.243   0.242  0.00  0.00    -0.214 N 
ATOM      6  C   UNL     1       3.476  -4.573  -0.484  0.00  0.00    +0.173 C 
ATOM      7  N   UNL     1       3.221  -5.684  -1.138  0.00  0.00    -0.225 NA
ATOM      8  S   UNL     1       2.446  -3.124  -0.313  0.00  0.00    -0.048 S 
ENDROOT
BRANCH   1  11
ATOM      9  C   UNL     1       0.875   1.884   1.018  0.00  0.00    +0.163 A 
ATOM     10  C   UNL     1       1.953   1.122   1.424  0.00  0.00    +0.057 A 
ATOM     11  C   UNL     1       2.235  -0.087   0.776  0.00  0.00    -0.019 A 
ATOM     12  C   UNL     1       1.423  -0.517  -0.280  0.00  0.00    +0.032 A 
ATOM     13  C   UNL     1       0.349   0.250  -0.678  0.00  0.00    +0.087 A 
ATOM     14  C   UNL     1       0.071   1.450  -0.035  0.00  0.00    +0.177 A 
ATOM     15 CL   UNL     1      -0.659  -0.284  -1.988  0.00  0.00    -0.080 Cl
BRANCH   9  17
ATOM     16  C   UNL     1       1.464   3.442   2.715  0.00  0.00    +0.277 C 
ATOM     17  O   UNL     1       0.599   3.059   1.645  0.00  0.00    -0.491 OA
ENDBRANCH   9  17
BRANCH  14  18
ATOM     18  O   UNL     1      -0.986   2.204  -0.435  0.00  0.00    -0.502 OA
ATOM     19  H   UNL     1      -1.813   1.996   0.019  0.00  0.00    +0.292 HD
ENDBRANCH  14  18
ENDBRANCH   1  11
BRANCH   7  20
ATOM     20  C   UNL     1       2.035  -5.828  -1.806  0.00  0.00    +0.067 A 
ATOM     21  C   UNL     1       0.836  -5.456  -1.195  0.00  0.00    +0.028 A 
ATOM     22  C   UNL     1      -0.355  -5.600  -1.877  0.00  0.00    +0.002 A 
ATOM     23  C   UNL     1      -0.363  -6.120  -3.159  0.00  0.00    +0.000 A 
ATOM     24  C   UNL     1       0.821  -6.496  -3.768  0.00  0.00    +0.002 A 
ATOM     25  C   UNL     1       2.019  -6.353  -3.100  0.00  0.00    +0.028 A 
ENDBRANCH   7  20
BRANCH   5  26
ATOM     26  C   UNL     1       5.656  -5.161   0.343  0.00  0.00    +0.043 A 
ATOM     27  C   UNL     1       6.664  -5.170  -0.612  0.00  0.00    +0.024 A 
ATOM     28  C   UNL     1       7.705  -6.072  -0.506  0.00  0.00    +0.002 A 
ATOM     29  C   UNL     1       7.737  -6.973   0.542  0.00  0.00    +0.000 A 
ATOM     30  C   UNL     1       6.732  -6.970   1.492  0.00  0.00    +0.002 A 
ATOM     31  C   UNL     1       5.691  -6.066   1.395  0.00  0.00    +0.024 A 
ENDBRANCH   5  26
TORSDOF 5
