REMARK  Name = ZINC18191273
REMARK  8 active torsions:
REMARK  status: ('A' for Active; 'I' for Inactive)
REMARK    1  A    between atoms: C_1  and  O_2
REMARK    2  A    between atoms: O_2  and  C_3
REMARK    3  A    between atoms: C_6  and  C_9
REMARK    4  A    between atoms: C_10  and  C_11
REMARK    5  A    between atoms: N_13  and  C_14
REMARK    6  A    between atoms: C_14  and  N_16
REMARK    7  A    between atoms: N_16  and  C_17
REMARK    8  A    between atoms: C_18  and  C_28
REMARK                            x       y       z     vdW  Elec       q    Type
REMARK                         _______ _______ _______ _____ _____    ______ ____
ROOT
ATOM      1  N   UNL     1      -2.389   4.121   0.036  0.00  0.00    -0.291 N 
ATOM      2  H   UNL     1      -3.222   3.624   0.037  0.00  0.00    +0.154 HD
ENDROOT
BRANCH   1   3
ATOM      3  C   UNL     1      -2.407   5.506   0.043  0.00  0.00    +0.084 A 
ATOM      4  C   UNL     1      -3.500   6.352   0.048  0.00  0.00    +0.068 A 
ATOM      5  C   UNL     1      -3.259   7.800   0.079  0.00  0.00    -0.023 A 
ATOM      6  C   UNL     1      -1.959   8.137   0.052  0.00  0.00    -0.004 A 
ATOM      7  S   UNL     1      -1.068   6.602   0.042  0.00  0.00    -0.077 S 
ATOM      8  C   UNL     1      -1.345   9.507  -0.023  0.00  0.00    +0.043 C 
ATOM      9  C   UNL     1      -1.403   9.939  -1.499  0.00  0.00    +0.005 C 
ATOM     10  C   UNL     1      -2.853   9.807  -1.981  0.00  0.00    +0.000 C 
ATOM     11  C   UNL     1      -3.650  10.767  -1.124  0.00  0.00    +0.000 C 
ATOM     12  C   UNL     1      -4.049  10.205   0.230  0.00  0.00    +0.005 C 
ATOM     13  C   UNL     1      -4.462   8.741   0.156  0.00  0.00    +0.037 C 
BRANCH   4  14
ATOM     14  C   UNL     1      -4.865   5.818   0.026  0.00  0.00    +0.244 C 
ATOM     15  O   UNL     1      -5.441   5.578   1.071  0.00  0.00    -0.270 OA
ATOM     16  N   UNL     1      -5.481   5.591  -1.151  0.00  0.00    -0.325 N 
ATOM     17  H   UNL     1      -5.021   5.782  -1.984  0.00  0.00    +0.145 HD
ATOM     18  H   UNL     1      -6.384   5.237  -1.166  0.00  0.00    +0.145 HD
ENDBRANCH   4  14
ENDBRANCH   1   3
BRANCH   1  19
ATOM     19  C   UNL     1      -1.212   3.463   0.027  0.00  0.00    +0.141 C 
ATOM     20  S   UNL     1       0.259   4.339   0.024  0.00  0.00    -0.018 S 
BRANCH  19  23
ATOM     21  C   UNL     1      -0.018   1.457   0.010  0.00  0.00    +0.242 C 
ATOM     22  O   UNL     1       1.028   2.080   0.003  0.00  0.00    -0.270 OA
ATOM     23  N   UNL     1      -1.194   2.115   0.019  0.00  0.00    -0.264 N 
ATOM     24  H   UNL     1      -2.027   1.619   0.021  0.00  0.00    +0.157 HD
BRANCH  21  26
ATOM     25  C   UNL     1       1.181  -0.663  -0.013  0.00  0.00    +0.013 C 
ATOM     26  C   UNL     1       0.002  -0.004   0.002  0.00  0.00    +0.068 C 
BRANCH  25  30
ATOM     27  C   UNL     1       1.238  -4.904  -0.035  0.00  0.00    +0.120 A 
ATOM     28  C   UNL     1       2.434  -4.195  -0.043  0.00  0.00    +0.046 A 
ATOM     29  C   UNL     1       2.421  -2.819  -0.036  0.00  0.00    +0.011 A 
ATOM     30  C   UNL     1       1.201  -2.133  -0.021  0.00  0.00    -0.025 A 
ATOM     31  C   UNL     1      -0.001  -2.852  -0.007  0.00  0.00    +0.011 A 
ATOM     32  C   UNL     1       0.024  -4.228  -0.019  0.00  0.00    +0.046 A 
BRANCH  27  34
ATOM     33  C   UNL     1      -0.008  -6.927  -0.033  0.00  0.00    +0.277 C 
ATOM     34  O   UNL     1       1.257  -6.261  -0.042  0.00  0.00    -0.495 OA
ENDBRANCH  27  34
ENDBRANCH  25  30
ENDBRANCH  21  26
ENDBRANCH  19  23
ENDBRANCH   1  19
TORSDOF 7
