REMARK  Name = ZINC22418155
REMARK  9 active torsions:
REMARK  status: ('A' for Active; 'I' for Inactive)
REMARK    1  A    between atoms: C_1  and  N_2
REMARK    2  A    between atoms: N_2  and  C_3
REMARK    3  A    between atoms: N_2  and  C_4
REMARK    4  A    between atoms: C_7  and  C_10
REMARK    5  A    between atoms: C_10  and  C_12
REMARK    6  A    between atoms: C_10  and  N_26
REMARK    7  A    between atoms: C_12  and  N_13
REMARK    8  A    between atoms: C_14  and  C_16
REMARK    9  A    between atoms: C_18  and  N_23
REMARK                            x       y       z     vdW  Elec       q    Type
REMARK                         _______ _______ _______ _____ _____    ______ ____
ROOT
ATOM      1  C   UNL     1      -5.826  -2.409   0.076  0.00  0.00    -0.020 C 
ENDROOT
BRANCH   1   2
ATOM      2  N   UNL     1      -4.864  -2.692  -0.997  0.00  0.00    +0.388 N 
ATOM      3  C   UNL     1      -4.599  -4.135  -1.101  0.00  0.00    -0.073 C 
ATOM      4  C   UNL     1      -3.901  -4.406  -2.434  0.00  0.00    +0.017 C 
ATOM      5  C   UNL     1      -2.728  -3.473  -2.599  0.00  0.00    -0.048 A 
ATOM      6  C   UNL     1      -1.767  -3.781  -3.550  0.00  0.00    +0.004 A 
ATOM      7  C   UNL     1      -0.682  -2.949  -3.740  0.00  0.00    +0.000 A 
ATOM      8  C   UNL     1      -0.552  -1.803  -2.977  0.00  0.00    +0.000 A 
ATOM      9  C   UNL     1      -1.507  -1.498  -2.029  0.00  0.00    +0.002 A 
ATOM     10  C   UNL     1      -2.598  -2.333  -1.836  0.00  0.00    -0.061 A 
ATOM     11  C   UNL     1      -3.611  -1.959  -0.786  0.00  0.00    -0.042 C 
ATOM     12  H   UNL     1      -5.308  -2.348  -1.943  0.00  0.00    -0.080 HD
ENDBRANCH   1   2
BRANCH   1  16
ATOM     13  C   UNL     1      -9.555  -4.295  -0.821  0.00  0.00    +0.029 A 
ATOM     14  C   UNL     1      -9.072  -4.291   0.482  0.00  0.00    +0.023 A 
ATOM     15  C   UNL     1      -7.867  -3.681   0.768  0.00  0.00    +0.004 A 
ATOM     16  C   UNL     1      -7.141  -3.074  -0.240  0.00  0.00    -0.059 A 
ATOM     17  C   UNL     1      -7.621  -3.071  -1.537  0.00  0.00    +0.004 A 
ATOM     18  C   UNL     1      -8.823  -3.685  -1.831  0.00  0.00    +0.023 A 
BRANCH  13  20
ATOM     19  C   UNL     1     -11.544  -5.554  -0.047  0.00  0.00    +0.129 C 
ATOM     20  N   UNL     1     -10.774  -4.912  -1.114  0.00  0.00    -0.336 N 
ATOM     21  C   UNL     1     -11.281  -4.915  -2.488  0.00  0.00    +0.129 C 
ENDBRANCH  13  20
ENDBRANCH   1  16
BRANCH   1  22
ATOM     22  C   UNL     1      -6.034  -0.897   0.190  0.00  0.00    +0.094 C 
BRANCH  22  23
ATOM     23  N   UNL     1      -6.920  -0.610   1.320  0.00  0.00    -0.313 N 
ATOM     24  C   UNL     1      -7.331   0.653   1.550  0.00  0.00    +0.246 C 
ATOM     25  O   UNL     1      -6.967   1.554   0.819  0.00  0.00    -0.270 OA
ATOM     26  H   UNL     1      -7.249  -1.424   1.982  0.00  0.00    +0.149 HD
BRANCH  24  27
ATOM     27  C   UNL     1      -8.225   0.943   2.690  0.00  0.00    +0.057 A 
ATOM     28  C   UNL     1      -8.645  -0.088   3.532  0.00  0.00    +0.047 A 
ATOM     29  C   UNL     1      -9.479   0.189   4.595  0.00  0.00    +0.127 A 
ATOM     30  C   UNL     1      -9.905   1.486   4.825  0.00  0.00    +0.034 A 
ATOM     31  C   UNL     1      -9.488   2.514   4.000  0.00  0.00    +0.023 A 
ATOM     32  C   UNL     1      -8.653   2.251   2.932  0.00  0.00    +0.053 A 
ATOM     33 CL   UNL     1      -8.136   3.542   1.892  0.00  0.00    -0.083 Cl
BRANCH  29  34
ATOM     34  N   UNL     1      -9.925  -0.904   5.488  0.00  0.00    +0.056 N 
ATOM     35  O   UNL     1      -9.556  -2.046   5.283  0.00  0.00    -0.126 OA
ATOM     36  O   UNL     1     -10.658  -0.660   6.430  0.00  0.00    -0.126 OA
ENDBRANCH  29  34
ENDBRANCH  24  27
ENDBRANCH  22  23
ENDBRANCH   1  22
TORSDOF 7
