REMARK  Name = ZINC15859342
REMARK  5 active torsions:
REMARK  status: ('A' for Active; 'I' for Inactive)
REMARK    1  A    between atoms: C_7  and  N_24
REMARK    2  A    between atoms: C_8  and  C_10
REMARK    3  A    between atoms: C_10  and  C_12
REMARK    4  A    between atoms: C_10  and  N_54
REMARK    5  A    between atoms: C_25  and  C_27
REMARK                            x       y       z     vdW  Elec       q    Type
REMARK                         _______ _______ _______ _____ _____    ______ ____
ROOT
ATOM      1  C   UNL     1      -0.451   3.524  -3.249  0.00  0.00    +0.001 A 
ATOM      2  C   UNL     1       0.808   3.870  -2.780  0.00  0.00    +0.004 A 
ATOM      3  C   UNL     1       0.986   4.271  -1.473  0.00  0.00    +0.047 A 
ATOM      4  C   UNL     1      -0.105   4.330  -0.614  0.00  0.00    +0.137 A 
ATOM      5  C   UNL     1      -1.377   3.978  -1.096  0.00  0.00    +0.042 A 
ATOM      6  C   UNL     1      -1.538   3.581  -2.421  0.00  0.00    +0.013 A 
ATOM      7  C   UNL     1      -2.291   4.146   0.045  0.00  0.00    +0.082 A 
ATOM      8  C   UNL     1      -1.531   4.566   1.072  0.00  0.00    +0.118 A 
ATOM      9  O   UNL     1      -0.246   4.673   0.682  0.00  0.00    -0.459 OA
ENDROOT
BRANCH   7  10
ATOM     10  N   UNL     1      -3.676   3.916   0.058  0.00  0.00    -0.276 N 
ATOM     11  C   UNL     1      -4.150   2.671   0.258  0.00  0.00    +0.284 C 
ATOM     12  O   UNL     1      -3.383   1.762   0.519  0.00  0.00    -0.266 OA
ATOM     13  H   UNL     1      -4.292   4.654  -0.077  0.00  0.00    +0.155 HD
BRANCH  11  14
ATOM     14  C   UNL     1      -5.590   2.410   0.161  0.00  0.00    +0.189 A 
ATOM     15  C   UNL     1      -6.200   1.202   0.340  0.00  0.00    +0.054 A 
ATOM     16  C   UNL     1      -7.576   1.413   0.155  0.00  0.00    +0.042 A 
ATOM     17  C   UNL     1      -7.743   2.724  -0.124  0.00  0.00    +0.196 A 
ATOM     18  O   UNL     1      -6.544   3.323  -0.114  0.00  0.00    -0.458 OA
ENDBRANCH  11  14
ENDBRANCH   7  10
BRANCH   8  19
ATOM     19  C   UNL     1      -2.042   4.872   2.457  0.00  0.00    +0.032 C 
BRANCH  19  20
ATOM     20  C   UNL     1      -2.093   6.364   2.655  0.00  0.00    -0.054 A 
ATOM     21  C   UNL     1      -0.940   7.059   2.971  0.00  0.00    +0.003 A 
ATOM     22  C   UNL     1      -0.985   8.429   3.149  0.00  0.00    +0.015 A 
ATOM     23  C   UNL     1      -2.186   9.104   3.021  0.00  0.00    +0.018 A 
ATOM     24  C   UNL     1      -3.340   8.407   2.711  0.00  0.00    +0.015 A 
ATOM     25  C   UNL     1      -3.293   7.038   2.528  0.00  0.00    +0.003 A 
ATOM     26 BR   UNL     1      -2.250  10.977   3.272  0.00  0.00    -0.050 Br
ENDBRANCH  19  20
BRANCH  19  32
ATOM     27  C   UNL     1      -0.990   2.832   3.227  0.00  0.00    -0.077 C 
ATOM     28  C   UNL     1       0.062   2.272   4.188  0.00  0.00    -0.019 C 
ATOM     29  C   UNL     1      -0.379   2.539   5.630  0.00  0.00    -0.004 C 
ATOM     30  C   UNL     1      -0.577   4.044   5.825  0.00  0.00    -0.019 C 
ATOM     31  C   UNL     1      -1.610   4.553   4.817  0.00  0.00    -0.077 C 
ATOM     32  N   UNL     1      -1.116   4.288   3.449  0.00  0.00    +0.389 N 
ATOM     33  H   UNL     1      -0.192   4.723   3.339  0.00  0.00    -0.080 HD
ENDBRANCH  19  32
ENDBRANCH   8  19
TORSDOF 5
