REMARK  Name = ZINC36629357
REMARK  9 active torsions:
REMARK  status: ('A' for Active; 'I' for Inactive)
REMARK    1  A    between atoms: C_1  and  C_2
REMARK    2  A    between atoms: C_2  and  C_3
REMARK    3  A    between atoms: C_3  and  N_4
REMARK    4  A    between atoms: C_10  and  N_15
REMARK    5  A    between atoms: C_11  and  C_12
REMARK    6  A    between atoms: C_16  and  C_18
REMARK    7  A    between atoms: C_27  and  O_28
REMARK    8  A    between atoms: O_28  and  C_29
REMARK    9  A    between atoms: C_29  and  C_30
REMARK                            x       y       z     vdW  Elec       q    Type
REMARK                         _______ _______ _______ _____ _____    ______ ____
ROOT
ATOM      1  N   UNL     1       0.762  -1.980   1.234  0.00  0.00    +0.383 N 
ATOM      2  C   UNL     1       1.362  -2.467   2.482  0.00  0.00    -0.074 C 
ATOM      3  C   UNL     1       1.113  -3.972   2.636  0.00  0.00    +0.018 C 
ATOM      4  C   UNL     1       1.567  -4.654   1.354  0.00  0.00    -0.027 A 
ATOM      5  C   UNL     1       1.756  -3.929   0.228  0.00  0.00    -0.021 A 
ATOM      6  S   UNL     1       2.273  -5.109  -0.982  0.00  0.00    -0.079 S 
ATOM      7  C   UNL     1       2.242  -6.507  -0.050  0.00  0.00    +0.085 A 
ATOM      8  C   UNL     1       1.833  -6.071   1.202  0.00  0.00    +0.068 A 
ATOM      9  C   UNL     1       1.555  -2.454   0.084  0.00  0.00    -0.035 C 
ATOM     10  H   UNL     1      -0.182  -2.328   1.157  0.00  0.00    -0.081 HD
ENDROOT
BRANCH   8  11
ATOM     11  C   UNL     1       1.677  -7.003   2.323  0.00  0.00    +0.244 C 
ATOM     12  O   UNL     1       0.606  -7.549   2.516  0.00  0.00    -0.270 OA
ATOM     13  N   UNL     1       2.718  -7.255   3.140  0.00  0.00    -0.325 N 
ATOM     14  H   UNL     1       3.571  -6.819   2.987  0.00  0.00    +0.145 HD
ATOM     15  H   UNL     1       2.615  -7.872   3.882  0.00  0.00    +0.145 HD
ENDBRANCH   8  11
BRANCH   7  16
ATOM     16  N   UNL     1       2.553  -7.798  -0.442  0.00  0.00    -0.275 N 
ATOM     17  C   UNL     1       2.937  -8.043  -1.711  0.00  0.00    +0.253 C 
ATOM     18  O   UNL     1       3.010  -7.130  -2.511  0.00  0.00    -0.270 OA
ATOM     19  H   UNL     1       2.495  -8.527   0.196  0.00  0.00    +0.156 HD
BRANCH  17  20
ATOM     20  C   UNL     1       3.268  -9.414  -2.127  0.00  0.00    +0.086 A 
ATOM     21  C   UNL     1       2.238 -10.298  -2.671  0.00  0.00    -0.002 A 
ATOM     22  C   UNL     1       0.911  -9.874  -2.813  0.00  0.00    +0.009 A 
ATOM     23  C   UNL     1      -0.019 -10.730  -3.324  0.00  0.00    +0.001 A 
ATOM     24  C   UNL     1       0.332 -12.022  -3.707  0.00  0.00    +0.001 A 
ATOM     25  C   UNL     1       1.614 -12.466  -3.582  0.00  0.00    +0.008 A 
ATOM     26  C   UNL     1       2.598 -11.611  -3.059  0.00  0.00    -0.017 A 
ATOM     27  C   UNL     1       3.932 -12.035  -2.916  0.00  0.00    +0.012 A 
ATOM     28  C   UNL     1       4.877 -11.202  -2.410  0.00  0.00    +0.047 A 
ATOM     29  C   UNL     1       4.572  -9.897  -2.018  0.00  0.00    +0.133 A 
BRANCH  29  30
ATOM     30  O   UNL     1       5.548  -9.097  -1.523  0.00  0.00    -0.491 OA
BRANCH  30  31
ATOM     31  C   UNL     1       6.862  -9.653  -1.438  0.00  0.00    +0.226 C 
ATOM     32  C   UNL     1       7.820  -8.610  -0.860  0.00  0.00    +0.048 C 
ENDBRANCH  30  31
ENDBRANCH  29  30
ENDBRANCH  17  20
ENDBRANCH   7  16
BRANCH   1  33
ATOM     33  C   UNL     1       0.742  -0.511   1.242  0.00  0.00    -0.079 C 
BRANCH  33  35
ATOM     34  C   UNL     1      -0.019   1.526   0.010  0.00  0.00    +0.002 C 
ATOM     35  C   UNL     1       0.002  -0.004   0.002  0.00  0.00    -0.022 C 
ENDBRANCH  33  35
ENDBRANCH   1  33
TORSDOF 7
