REMARK  Name = ZINC11854435
REMARK  9 active torsions:
REMARK  status: ('A' for Active; 'I' for Inactive)
REMARK    1  A    between atoms: C_1  and  C_2
REMARK    2  A    between atoms: C_11  and  N_20
REMARK    3  A    between atoms: C_13  and  C_15
REMARK    4  A    between atoms: C_21  and  C_23
REMARK    5  A    between atoms: C_23  and  O_24
REMARK    6  A    between atoms: O_24  and  C_25
REMARK    7  A    between atoms: C_28  and  C_31
REMARK    8  A    between atoms: C_31  and  C_32
REMARK    9  A    between atoms: C_31  and  C_33
REMARK                            x       y       z     vdW  Elec       q    Type
REMARK                         _______ _______ _______ _____ _____    ______ ____
ROOT
ATOM      1  C   UNL     1       6.452   3.522  -0.042  0.00  0.00    +0.066 C 
ATOM      2  C   UNL     1       5.976   4.951  -0.029  0.00  0.00    +0.047 A 
ATOM      3  C   UNL     1       6.881   5.971  -0.033  0.00  0.00    +0.093 A 
ATOM      4  C   UNL     1       6.411   7.298  -0.021  0.00  0.00    +0.253 A 
ATOM      5  O   UNL     1       7.192   8.235  -0.023  0.00  0.00    -0.268 OA
ATOM      6  N   UNL     1       5.078   7.512  -0.012  0.00  0.00    -0.291 N 
ATOM      7  H   UNL     1       4.731   8.418  -0.008  0.00  0.00    +0.172 HD
ATOM      8  C   UNL     1       4.223   6.455  -0.004  0.00  0.00    +0.234 A 
ATOM      9  N   UNL     1       4.671   5.217  -0.015  0.00  0.00    -0.217 NA
ATOM     10  N   UNL     1       2.861   6.683   0.011  0.00  0.00    -0.185 N 
ATOM     11  C   UNL     1       1.887   5.726   0.015  0.00  0.00    +0.132 A 
ATOM     12  C   UNL     1       0.687   6.360   0.024  0.00  0.00    +0.074 A 
ATOM     13  C   UNL     1       0.933   7.749   0.035  0.00  0.00    +0.102 A 
ATOM     14  N   UNL     1       2.237   7.936   0.023  0.00  0.00    -0.162 NA
ENDROOT
BRANCH  13  15
ATOM     15  C   UNL     1      -0.095   8.811   0.050  0.00  0.00    +0.039 A 
ATOM     16  C   UNL     1       0.069  10.171   0.055  0.00  0.00    +0.018 A 
ATOM     17  C   UNL     1      -1.052  10.973   0.069  0.00  0.00    +0.008 A 
ATOM     18  C   UNL     1      -2.280  10.394   0.077  0.00  0.00    +0.046 A 
ATOM     19  S   UNL     1      -1.874   8.655   0.057  0.00  0.00    -0.095 S 
ENDBRANCH  13  15
BRANCH  11  20
ATOM     20  N   UNL     1       2.088   4.347   0.005  0.00  0.00    -0.267 N 
ATOM     21  C   UNL     1       1.030   3.512   0.011  0.00  0.00    +0.256 C 
ATOM     22  O   UNL     1      -0.097   3.960   0.024  0.00  0.00    -0.272 OA
ATOM     23  H   UNL     1       2.989   3.989  -0.005  0.00  0.00    +0.156 HD
BRANCH  21  24
ATOM     24  C   UNL     1       1.248   2.021   0.001  0.00  0.00    +0.324 C 
BRANCH  24  25
ATOM     25  O   UNL     1      -0.016   1.355   0.009  0.00  0.00    -0.483 OA
BRANCH  25  26
ATOM     26  C   UNL     1       0.002  -0.004   0.002  0.00  0.00    +0.121 A 
ATOM     27  C   UNL     1       1.212  -0.682  -0.019  0.00  0.00    +0.046 A 
ATOM     28  C   UNL     1       1.228  -2.064  -0.020  0.00  0.00    +0.007 A 
ATOM     29  C   UNL     1       0.040  -2.770  -0.013  0.00  0.00    -0.045 A 
ATOM     30  C   UNL     1      -1.168  -2.096   0.002  0.00  0.00    +0.007 A 
ATOM     31  C   UNL     1      -1.189  -0.715   0.010  0.00  0.00    +0.046 A 
BRANCH  29  32
ATOM     32  C   UNL     1       0.060  -4.277  -0.021  0.00  0.00    +0.013 C 
ATOM     33  C   UNL     1       0.776  -4.771  -1.280  0.00  0.00    +0.012 C 
ATOM     34  C   UNL     1       0.800  -4.784   1.218  0.00  0.00    +0.012 C 
ENDBRANCH  29  32
ENDBRANCH  25  26
ENDBRANCH  24  25
ENDBRANCH  21  24
ENDBRANCH  11  20
TORSDOF 6
