REMARK  Name = ZINC21374413
REMARK  11 active torsions:
REMARK  status: ('A' for Active; 'I' for Inactive)
REMARK    1  A    between atoms: C_1  and  C_2
REMARK    2  A    between atoms: C_2  and  O_3
REMARK    3  A    between atoms: O_3  and  C_4
REMARK    4  A    between atoms: C_4  and  C_6
REMARK    5  A    between atoms: C_10  and  N_11
REMARK    6  A    between atoms: C_12  and  C_14
REMARK    7  A    between atoms: C_14  and  C_15
REMARK    8  A    between atoms: C_15  and  S_16
REMARK    9  A    between atoms: S_16  and  C_19
REMARK   10  A    between atoms: N_26  and  C_29
REMARK   11  A    between atoms: C_29  and  C_30
REMARK                            x       y       z     vdW  Elec       q    Type
REMARK                         _______ _______ _______ _____ _____    ______ ____
ROOT
ATOM      1  C   UNL     1       3.767   5.680  -5.249  0.00  0.00    +0.091 A 
ATOM      2  C   UNL     1       3.535   5.293  -3.869  0.00  0.00    -0.019 A 
ATOM      3  C   UNL     1       2.241   5.092  -3.535  0.00  0.00    +0.010 A 
ATOM      4  S   UNL     1       1.335   5.411  -5.021  0.00  0.00    -0.076 S 
ATOM      5  C   UNL     1       2.655   5.804  -6.073  0.00  0.00    +0.086 A 
ATOM      6  C   UNL     1       1.723   4.687  -2.190  0.00  0.00    +0.127 C 
ATOM      7  N   UNL     1       2.859   4.194  -1.388  0.00  0.00    -0.293 NA
ATOM      8  C   UNL     1       3.982   5.141  -1.440  0.00  0.00    +0.090 C 
ATOM      9  C   UNL     1       4.632   5.111  -2.826  0.00  0.00    +0.052 C 
ENDROOT
BRANCH   5  10
ATOM     10  N   UNL     1       2.612   6.157  -7.413  0.00  0.00    -0.279 N 
ATOM     11  C   UNL     1       1.428   6.227  -8.054  0.00  0.00    +0.219 C 
ATOM     12  O   UNL     1       0.401   5.980  -7.458  0.00  0.00    -0.275 OA
ATOM     13  H   UNL     1       3.544   6.381  -7.953  0.00  0.00    +0.155 HD
BRANCH  11  14
ATOM     14  C   UNL     1       1.381   6.611  -9.510  0.00  0.00    +0.119 C 
BRANCH  14  15
ATOM     15  C   UNL     1      -0.071   6.614  -9.990  0.00  0.00    +0.181 C 
BRANCH  15  16
ATOM     16  S   UNL     1      -0.128   7.077 -11.743  0.00  0.00    -0.003 S 
ATOM     17  O   UNL     1       0.258   8.435 -11.904  0.00  0.00    -0.169 OA
ATOM     18  O   UNL     1       0.462   6.057 -12.538  0.00  0.00    -0.169 OA
BRANCH  16  19
ATOM     19  C   UNL     1      -1.838   7.042 -12.166  0.00  0.00    +0.088 A 
ATOM     20  C   UNL     1      -2.409   5.878 -12.644  0.00  0.00    +0.027 A 
ATOM     21  C   UNL     1      -3.752   5.849 -12.971  0.00  0.00    +0.002 A 
ATOM     22  C   UNL     1      -4.522   6.989 -12.829  0.00  0.00    +0.000 A 
ATOM     23  C   UNL     1      -3.950   8.155 -12.356  0.00  0.00    +0.002 A 
ATOM     24  C   UNL     1      -2.608   8.182 -12.024  0.00  0.00    +0.027 A 
ENDBRANCH  16  19
ENDBRANCH  15  16
ENDBRANCH  14  15
ENDBRANCH  11  14
ENDBRANCH   5  10
BRANCH   1  25
ATOM     25  C   UNL     1       5.119   5.930  -5.752  0.00  0.00    +0.342 C 
ATOM     26  O   UNL     1       5.768   5.019  -6.231  0.00  0.00    -0.245 OA
BRANCH  25  27
ATOM     27  O   UNL     1       5.645   7.170  -5.684  0.00  0.00    -0.461 OA
BRANCH  27  29
ATOM     28  C   UNL     1       7.413   8.806  -6.041  0.00  0.00    +0.048 C 
ATOM     29  C   UNL     1       6.990   7.344  -6.202  0.00  0.00    +0.229 C 
ENDBRANCH  27  29
ENDBRANCH  25  27
ENDBRANCH   1  25
BRANCH   7  30
ATOM     30  C   UNL     1       2.451   3.937  -0.001  0.00  0.00    +0.120 C 
BRANCH  30  31
ATOM     31  C   UNL     1       1.156   3.165   0.008  0.00  0.00    -0.033 A 
ATOM     32  C   UNL     1       1.175   1.783   0.000  0.00  0.00    +0.005 A 
ATOM     33  C   UNL     1      -0.013   1.076   0.008  0.00  0.00    +0.000 A 
ATOM     34  C   UNL     1      -1.219   1.751   0.017  0.00  0.00    +0.000 A 
ATOM     35  C   UNL     1      -1.238   3.133   0.030  0.00  0.00    +0.000 A 
ATOM     36  C   UNL     1      -0.050   3.840   0.023  0.00  0.00    +0.005 A 
ENDBRANCH  30  31
ENDBRANCH   7  30
TORSDOF 10
