REMARK  Name = ZINC36500732
REMARK  12 active torsions:
REMARK  status: ('A' for Active; 'I' for Inactive)
REMARK    1  A    between atoms: C_1  and  C_2
REMARK    2  A    between atoms: C_2  and  C_3
REMARK    3  A    between atoms: C_2  and  C_4
REMARK    4  A    between atoms: C_2  and  N_5
REMARK    5  A    between atoms: C_6  and  C_8
REMARK    6  A    between atoms: C_8  and  C_10
REMARK    7  A    between atoms: C_8  and  N_24
REMARK    8  A    between atoms: N_24  and  C_25
REMARK    9  A    between atoms: C_25  and  C_26
REMARK   10  A    between atoms: C_31  and  C_33
REMARK   11  A    between atoms: C_37  and  O_40
REMARK   12  A    between atoms: C_38  and  O_39
REMARK                            x       y       z     vdW  Elec       q    Type
REMARK                         _______ _______ _______ _____ _____    ______ ____
ROOT
ATOM      1  C   UNL     1       2.619  -1.232  -2.924  0.00  0.00    +0.194 C 
ENDROOT
BRANCH   1   2
ATOM      2  C   UNL     1       2.579  -0.326  -4.127  0.00  0.00    -0.010 A 
ATOM      3  C   UNL     1       1.427   0.298  -4.445  0.00  0.00    +0.015 A 
ATOM      4  C   UNL     1       1.338   1.159  -5.564  0.00  0.00    -0.017 A 
ATOM      5  C   UNL     1       0.135   1.803  -5.886  0.00  0.00    +0.008 A 
ATOM      6  C   UNL     1       0.078   2.628  -6.971  0.00  0.00    +0.001 A 
ATOM      7  C   UNL     1       1.198   2.840  -7.766  0.00  0.00    +0.001 A 
ATOM      8  C   UNL     1       2.385   2.227  -7.479  0.00  0.00    +0.009 A 
ATOM      9  C   UNL     1       2.475   1.377  -6.375  0.00  0.00    -0.010 A 
ATOM     10  C   UNL     1       3.727   0.699  -6.030  0.00  0.00    -0.010 A 
ATOM     11  C   UNL     1       3.752  -0.143  -4.895  0.00  0.00    -0.012 A 
ATOM     12  C   UNL     1       4.947  -0.793  -4.553  0.00  0.00    +0.009 A 
ATOM     13  C   UNL     1       6.064  -0.599  -5.312  0.00  0.00    +0.001 A 
ATOM     14  C   UNL     1       6.036   0.235  -6.424  0.00  0.00    +0.001 A 
ATOM     15  C   UNL     1       4.885   0.872  -6.790  0.00  0.00    +0.009 A 
ENDBRANCH   1   2
BRANCH   1  17
ATOM     16  N   UNL     1       0.382  -2.239  -3.237  0.00  0.00    -0.309 N 
ATOM     17  C   UNL     1       1.213  -1.515  -2.462  0.00  0.00    +0.239 C 
ATOM     18  O   UNL     1       0.829  -1.092  -1.392  0.00  0.00    -0.273 OA
ATOM     19  H   UNL     1       0.663  -2.517  -4.123  0.00  0.00    +0.149 HD
BRANCH  16  21
ATOM     20  C   UNL     1      -1.744  -1.339  -2.430  0.00  0.00    +0.031 C 
ATOM     21  C   UNL     1      -0.948  -2.607  -2.742  0.00  0.00    +0.026 C 
ATOM     22  C   UNL     1      -0.804  -3.445  -1.470  0.00  0.00    +0.031 C 
ATOM     23  C   UNL     1      -1.682  -3.421  -3.809  0.00  0.00    +0.031 C 
ENDBRANCH  16  21
ENDBRANCH   1  17
BRANCH   1  24
ATOM     24  N   UNL     1       3.365  -0.580  -1.846  0.00  0.00    -0.274 N 
ATOM     25  C   UNL     1       4.416  -1.206  -1.279  0.00  0.00    +0.252 C 
ATOM     26  O   UNL     1       4.821  -2.255  -1.741  0.00  0.00    -0.270 OA
BRANCH  25  27
ATOM     27  C   UNL     1       5.074  -0.618  -0.096  0.00  0.00    +0.082 A 
ATOM     28  C   UNL     1       5.486   0.718  -0.113  0.00  0.00    +0.017 A 
ATOM     29  C   UNL     1       6.100   1.263   0.993  0.00  0.00    +0.005 A 
ATOM     30  C   UNL     1       6.313   0.494   2.126  0.00  0.00    +0.049 A 
ATOM     31  C   UNL     1       5.912  -0.830   2.157  0.00  0.00    +0.159 A 
ATOM     32  C   UNL     1       5.285  -1.394   1.050  0.00  0.00    +0.171 A 
BRANCH  32  33
ATOM     33  O   UNL     1       4.885  -2.691   1.079  0.00  0.00    -0.503 OA
ATOM     34  H   UNL     1       5.556  -3.316   0.773  0.00  0.00    +0.292 HD
ENDBRANCH  32  33
BRANCH  31  35
ATOM     35  O   UNL     1       6.125  -1.579   3.272  0.00  0.00    -0.503 OA
ATOM     36  H   UNL     1       5.399  -1.550   3.910  0.00  0.00    +0.292 HD
ENDBRANCH  31  35
ENDBRANCH  25  27
BRANCH  24  37
ATOM     37  C   UNL     1       2.971   0.753  -1.384  0.00  0.00    +0.183 C 
BRANCH  37  38
ATOM     38  C   UNL     1       3.457   1.789  -2.364  0.00  0.00    +0.122 A 
ATOM     39  C   UNL     1       2.717   2.369  -3.327  0.00  0.00    +0.046 A 
ATOM     40  C   UNL     1       3.566   3.272  -4.007  0.00  0.00    +0.041 A 
ATOM     41  C   UNL     1       4.774   3.189  -3.420  0.00  0.00    +0.195 A 
ATOM     42  O   UNL     1       4.700   2.294  -2.422  0.00  0.00    -0.466 OA
ENDBRANCH  37  38
ENDBRANCH  24  37
ENDBRANCH   1  24
TORSDOF 9
