REMARK  Name = ZINC03871666
REMARK  14 active torsions:
REMARK  status: ('A' for Active; 'I' for Inactive)
REMARK    1  A    between atoms: C_1  and  C_2
REMARK    2  A    between atoms: C_2  and  C_3
REMARK    3  A    between atoms: C_3  and  O_5
REMARK    4  A    between atoms: O_5  and  C_6
REMARK    5  A    between atoms: C_6  and  C_7
REMARK    6  A    between atoms: C_7  and  C_9
REMARK    7  A    between atoms: C_9  and  O_36
REMARK    8  A    between atoms: C_10  and  C_35
REMARK    9  A    between atoms: C_15  and  C_34
REMARK   10  A    between atoms: C_17  and  O_33
REMARK   11  A    between atoms: C_30  and  C_31
REMARK   12  A    between atoms: O_36  and  C_37
REMARK   13  A    between atoms: C_37  and  C_39
REMARK   14  A    between atoms: C_39  and  C_40
REMARK                            x       y       z     vdW  Elec       q    Type
REMARK                         _______ _______ _______ _____ _____    ______ ____
ROOT
ATOM      1  C   UNL     1       1.166  -3.921  -4.860  0.00  0.00    +0.182 C 
ATOM      2  C   UNL     1       2.399  -4.512  -4.131  0.00  0.00    +0.038 C 
ATOM      3  C   UNL     1       2.216  -6.058  -4.149  0.00  0.00    +0.012 C 
ATOM      4  C   UNL     1       1.276  -6.234  -5.353  0.00  0.00    +0.005 C 
ATOM      5  C   UNL     1       0.233  -5.133  -5.085  0.00  0.00    +0.021 C 
ATOM      6  C   UNL     1      -0.727  -5.010  -6.231  0.00  0.00    +0.044 C 
ATOM      7  C   UNL     1      -1.194  -6.351  -6.799  0.00  0.00    +0.137 C 
ATOM      8  C   UNL     1      -0.763  -7.576  -6.033  0.00  0.00    +0.086 C 
ATOM      9  C   UNL     1       0.702  -7.570  -5.625  0.00  0.00    +0.018 C 
ATOM     10  C   UNL     1       0.886  -8.630  -4.538  0.00  0.00    +0.010 C 
ATOM     11  C   UNL     1       0.869  -9.981  -5.264  0.00  0.00    +0.032 C 
ATOM     12  C   UNL     1      -0.050  -9.961  -6.462  0.00  0.00    -0.055 C 
ATOM     13  C   UNL     1       0.032 -11.031  -7.277  0.00  0.00    +0.051 C 
ATOM     14  C   UNL     1      -0.787 -11.068  -8.506  0.00  0.00    +0.179 C 
ATOM     15  O   UNL     1      -1.013 -12.123  -9.092  0.00  0.00    -0.288 OA
ATOM     16  C   UNL     1      -1.298  -9.782  -9.033  0.00  0.00    +0.047 C 
ATOM     17  C   UNL     1      -1.386  -8.732  -8.201  0.00  0.00    -0.011 C 
ATOM     18  C   UNL     1      -1.030  -8.883  -6.764  0.00  0.00    +0.029 C 
ATOM     19  C   UNL     1      -2.328  -9.377  -6.105  0.00  0.00    +0.022 C 
ATOM     20 CL   UNL     1      -1.787  -7.709  -4.553  0.00  0.00    -0.114 Cl
ATOM     21  C   UNL     1      -0.518  -5.330  -3.766  0.00  0.00    +0.016 C 
ATOM     22  C   UNL     1       2.477  -3.999  -2.695  0.00  0.00    +0.012 C 
ENDROOT
BRANCH   1  23
ATOM     23  C   UNL     1       0.475  -2.904  -3.994  0.00  0.00    +0.214 C 
ATOM     24  O   UNL     1       0.496  -3.021  -2.792  0.00  0.00    -0.289 OA
BRANCH  23  25
ATOM     25  C   UNL     1      -0.243  -1.740  -4.625  0.00  0.00    +0.310 C 
BRANCH  25  26
ATOM     26  O   UNL     1      -0.916  -0.989  -3.612  0.00  0.00    -0.457 OA
BRANCH  26  27
ATOM     27  C   UNL     1      -1.608   0.089  -4.012  0.00  0.00    +0.307 C 
ATOM     28  O   UNL     1      -1.642   0.386  -5.183  0.00  0.00    -0.251 OA
BRANCH  27  30
ATOM     29  C   UNL     1      -3.045   2.088  -3.713  0.00  0.00    +0.015 C 
ATOM     30  C   UNL     1      -2.344   0.930  -3.000  0.00  0.00    +0.117 C 
ENDBRANCH  27  30
ENDBRANCH  26  27
ENDBRANCH  25  26
ENDBRANCH  23  25
ENDBRANCH   1  23
BRANCH   7  31
ATOM     31  O   UNL     1      -2.630  -6.327  -6.899  0.00  0.00    -0.390 OA
ATOM     32  H   UNL     1      -2.973  -5.628  -7.473  0.00  0.00    +0.210 HD
ENDBRANCH   7  31
BRANCH   1  33
ATOM     33  O   UNL     1       1.546  -3.354  -6.109  0.00  0.00    -0.449 OA
BRANCH  33  34
ATOM     34  C   UNL     1       2.420  -2.336  -6.076  0.00  0.00    +0.308 C 
ATOM     35  O   UNL     1       2.906  -1.991  -5.024  0.00  0.00    -0.251 OA
BRANCH  34  36
ATOM     36  C   UNL     1       2.797  -1.623  -7.349  0.00  0.00    +0.117 C 
ATOM     37  C   UNL     1       3.801  -0.513  -7.035  0.00  0.00    +0.015 C 
ENDBRANCH  34  36
ENDBRANCH  33  34
ENDBRANCH   1  33
TORSDOF 9
