REMARK  Name = ZINC20102257
REMARK  16 active torsions:
REMARK  status: ('A' for Active; 'I' for Inactive)
REMARK    1  A    between atoms: C_1  and  C_2
REMARK    2  A    between atoms: C_2  and  O_3
REMARK    3  A    between atoms: O_3  and  C_4
REMARK    4  A    between atoms: C_4  and  C_6
REMARK    5  A    between atoms: C_6  and  S_7
REMARK    6  A    between atoms: S_7  and  C_8
REMARK    7  A    between atoms: C_9  and  C_31
REMARK    8  A    between atoms: C_10  and  C_22
REMARK    9  A    between atoms: C_12  and  C_16
REMARK   10  A    between atoms: C_13  and  C_15
REMARK   11  A    between atoms: C_16  and  O_18
REMARK   12  A    between atoms: O_18  and  C_19
REMARK   13  A    between atoms: C_19  and  C_20
REMARK   14  A    between atoms: C_25  and  O_30
REMARK   15  A    between atoms: C_26  and  O_28
REMARK   16  A    between atoms: O_28  and  C_29
REMARK                            x       y       z     vdW  Elec       q    Type
REMARK                         _______ _______ _______ _____ _____    ______ ____
ROOT
ATOM      1  C   UNL     1       2.221  -4.642   3.970  0.00  0.00    +0.080 C 
ATOM      2  C   UNL     1       2.397  -5.980   4.143  0.00  0.00    +0.069 C 
ATOM      3  C   UNL     1       3.272  -6.515   5.240  0.00  0.00    +0.100 C 
ATOM      4  C   UNL     1       3.549  -5.456   6.268  0.00  0.00    +0.066 C 
ATOM      5  C   UNL     1       3.332  -4.154   6.016  0.00  0.00    +0.016 C 
ATOM      6  N   UNL     1       2.844  -3.742   4.806  0.00  0.00    -0.312 N 
ATOM      7  C   UNL     1       3.636  -3.132   7.081  0.00  0.00    +0.061 C 
ATOM      8  H   UNL     1       2.933  -2.814   4.537  0.00  0.00    +0.152 HD
ENDROOT
BRANCH   3   9
ATOM      9  C   UNL     1       4.577  -6.985   4.650  0.00  0.00    -0.031 A 
ATOM     10  C   UNL     1       5.392  -6.092   3.979  0.00  0.00    +0.008 A 
ATOM     11  C   UNL     1       6.589  -6.518   3.436  0.00  0.00    +0.049 A 
ATOM     12  C   UNL     1       6.976  -7.843   3.563  0.00  0.00    +0.158 A 
ATOM     13  C   UNL     1       6.156  -8.741   4.239  0.00  0.00    +0.162 A 
ATOM     14  C   UNL     1       4.959  -8.307   4.785  0.00  0.00    +0.054 A 
BRANCH  13  15
ATOM     15  O   UNL     1       6.531 -10.042   4.366  0.00  0.00    -0.491 OA
ATOM     16  C   UNL     1       5.639 -10.908   5.072  0.00  0.00    +0.277 C 
ENDBRANCH  13  15
BRANCH  12  17
ATOM     17  O   UNL     1       8.153  -8.263   3.029  0.00  0.00    -0.503 OA
ATOM     18  H   UNL     1       8.906  -8.192   3.632  0.00  0.00    +0.292 HD
ENDBRANCH  12  17
ENDBRANCH   3   9
BRANCH   4  19
ATOM     19  C   UNL     1       4.051  -5.838   7.533  0.00  0.00    +0.338 C 
ATOM     20  O   UNL     1       3.315  -6.369   8.344  0.00  0.00    -0.245 OA
BRANCH  19  21
ATOM     21  O   UNL     1       5.345  -5.615   7.841  0.00  0.00    -0.457 OA
BRANCH  21  22
ATOM     22  C   UNL     1       5.784  -6.027   9.137  0.00  0.00    +0.259 C 
BRANCH  22  23
ATOM     23  C   UNL     1       7.246  -5.699   9.300  0.00  0.00    +0.006 C 
ATOM     24  C   UNL     1       7.673  -5.143  10.407  0.00  0.00    +0.007 C 
ENDBRANCH  22  23
ENDBRANCH  21  22
ENDBRANCH  19  21
ENDBRANCH   4  19
BRANCH   2  25
ATOM     25  C   UNL     1       1.736  -6.894   3.261  0.00  0.00    +0.098 C 
ATOM     26  N   UNL     1       1.212  -7.620   2.563  0.00  0.00    -0.191 NA
ENDBRANCH   2  25
BRANCH   1  27
ATOM     27  S   UNL     1       1.195  -4.057   2.663  0.00  0.00    -0.098 S 
BRANCH  27  28
ATOM     28  C   UNL     1       1.270  -2.251   2.821  0.00  0.00    +0.196 C 
BRANCH  28  29
ATOM     29  C   UNL     1       0.423  -1.617   1.748  0.00  0.00    +0.317 C 
ATOM     30  O   UNL     1      -0.170  -2.312   0.957  0.00  0.00    -0.250 OA
BRANCH  29  31
ATOM     31  O   UNL     1       0.328  -0.281   1.670  0.00  0.00    -0.464 OA
BRANCH  31  33
ATOM     32  C   UNL     1      -0.478   1.780   0.698  0.00  0.00    +0.048 C 
ATOM     33  C   UNL     1      -0.492   0.252   0.628  0.00  0.00    +0.229 C 
ENDBRANCH  31  33
ENDBRANCH  29  31
ENDBRANCH  28  29
ENDBRANCH  27  28
ENDBRANCH   1  27
TORSDOF 13
