REMARK  Name = ZINC06254524
REMARK  4 active torsions:
REMARK  status: ('A' for Active; 'I' for Inactive)
REMARK    1  A    between atoms: C_1  and  C_2
REMARK    2  A    between atoms: C_9  and  C_16
REMARK    3  A    between atoms: C_11  and  C_12
REMARK    4  A    between atoms: N_14  and  N_15
REMARK                            x       y       z     vdW  Elec       q    Type
REMARK                         _______ _______ _______ _____ _____    ______ ____
ROOT
ATOM      1  C   UNL     1      -6.951   1.800  -5.146  0.00  0.00    +0.047 C 
ATOM      2  C   UNL     1      -6.177   1.242  -3.980  0.00  0.00    -0.006 A 
ATOM      3  C   UNL     1      -6.731   0.282  -3.188  0.00  0.00    +0.046 A 
ATOM      4  C   UNL     1      -6.032  -0.248  -2.104  0.00  0.00    +0.021 A 
ATOM      5  C   UNL     1      -4.769   0.173  -1.814  0.00  0.00    +0.012 A 
ATOM      6  C   UNL     1      -4.165   1.150  -2.614  0.00  0.00    +0.013 A 
ATOM      7  C   UNL     1      -4.873   1.697  -3.715  0.00  0.00    +0.077 A 
ATOM      8  N   UNL     1      -4.298   2.624  -4.482  0.00  0.00    -0.246 NA
ATOM      9  C   UNL     1      -3.079   3.068  -4.257  0.00  0.00    +0.072 A 
ATOM     10  C   UNL     1      -2.295   2.598  -3.192  0.00  0.00    +0.042 A 
ATOM     11  C   UNL     1      -2.811   1.632  -2.341  0.00  0.00    +0.049 A 
ATOM     12 CL   UNL     1      -8.339  -0.280  -3.525  0.00  0.00    -0.083 Cl
ENDROOT
BRANCH   9  13
ATOM     13  C   UNL     1      -2.515   4.100  -5.160  0.00  0.00    +0.002 A 
ATOM     14  C   UNL     1      -3.272   4.585  -6.226  0.00  0.00    +0.011 A 
ATOM     15  C   UNL     1      -2.743   5.546  -7.064  0.00  0.00    +0.022 A 
ATOM     16  C   UNL     1      -1.463   6.028  -6.847  0.00  0.00    +0.059 A 
ATOM     17  C   UNL     1      -0.707   5.550  -5.790  0.00  0.00    +0.060 A 
ATOM     18  C   UNL     1      -1.230   4.592  -4.942  0.00  0.00    +0.031 A 
ATOM     19 CL   UNL     1       0.897   6.159  -5.525  0.00  0.00    -0.082 Cl
ATOM     20 CL   UNL     1      -0.803   7.236  -7.906  0.00  0.00    -0.082 Cl
ENDBRANCH   9  13
BRANCH  11  21
ATOM     21  C   UNL     1      -2.022   1.107  -1.206  0.00  0.00    +0.258 C 
ATOM     22  O   UNL     1      -2.533   0.339  -0.414  0.00  0.00    -0.269 OA
ATOM     23  N   UNL     1      -0.736   1.479  -1.049  0.00  0.00    -0.250 N 
ATOM     24  H   UNL     1      -0.328   2.092  -1.681  0.00  0.00    +0.169 HD
BRANCH  23  25
ATOM     25  N   UNL     1      -0.007   0.994  -0.001  0.00  0.00    -0.254 NA
ATOM     26  H   UNL     1      -0.003  -0.015   0.001  0.00  0.00    +0.140 HD
ATOM     27  H   UNL     1       0.933   1.359  -0.014  0.00  0.00    +0.140 HD
ENDBRANCH  23  25
ENDBRANCH  11  21
TORSDOF 3
