REMARK  Name = ZINC13215350
REMARK  9 active torsions:
REMARK  status: ('A' for Active; 'I' for Inactive)
REMARK    1  A    between atoms: C_1  and  C_2
REMARK    2  A    between atoms: C_5  and  C_9
REMARK    3  A    between atoms: C_6  and  C_8
REMARK    4  A    between atoms: C_9  and  C_11
REMARK    5  A    between atoms: N_15  and  C_27
REMARK    6  A    between atoms: C_16  and  C_18
REMARK    7  A    between atoms: C_23  and  N_24
REMARK    8  A    between atoms: C_29  and  C_34
REMARK    9  A    between atoms: C_32  and  C_33
REMARK                            x       y       z     vdW  Elec       q    Type
REMARK                         _______ _______ _______ _____ _____    ______ ____
ROOT
ATOM      1  C   UNL     1       0.111  -4.980  -1.143  0.00  0.00    +0.077 C 
ATOM      2  C   UNL     1       0.353  -6.298  -1.335  0.00  0.00    +0.250 C 
ATOM      3  C   UNL     1       0.316  -6.593  -2.782  0.00  0.00    +0.292 C 
ATOM      4  O   UNL     1       0.495  -7.689  -3.275  0.00  0.00    -0.266 OA
ATOM      5  N   UNL     1       0.054  -5.469  -3.474  0.00  0.00    -0.253 N 
ATOM      6  C   UNL     1      -0.101  -4.373  -2.511  0.00  0.00    +0.152 C 
ATOM      7  O   UNL     1       0.591  -7.202  -0.356  0.00  0.00    -0.282 OA
ENDROOT
BRANCH   5   8
ATOM      8  C   UNL     1      -0.055  -5.365  -4.863  0.00  0.00    +0.041 A 
ATOM      9  C   UNL     1      -1.303  -5.417  -5.466  0.00  0.00    +0.039 A 
ATOM     10  C   UNL     1      -1.407  -5.313  -6.854  0.00  0.00    +0.065 A 
ATOM     11  C   UNL     1      -0.252  -5.157  -7.626  0.00  0.00    +0.015 A 
ATOM     12  C   UNL     1       0.984  -5.106  -7.016  0.00  0.00    +0.006 A 
ATOM     13  C   UNL     1       1.086  -5.204  -5.640  0.00  0.00    -0.029 A 
ATOM     14  C   UNL     1       2.440  -5.142  -4.981  0.00  0.00    +0.045 C 
BRANCH  10  15
ATOM     15  C   UNL     1      -2.730  -5.367  -7.504  0.00  0.00    +0.387 C 
ATOM     16  O   UNL     1      -3.739  -5.504  -6.827  0.00  0.00    -0.241 OA
ATOM     17  O   UNL     1      -2.818  -5.276  -8.720  0.00  0.00    -0.241 OA
ENDBRANCH  10  15
ENDBRANCH   5   8
BRANCH   6  18
ATOM     18  C   UNL     1       0.934  -3.308  -2.771  0.00  0.00    +0.008 A 
ATOM     19  C   UNL     1       2.115  -3.302  -2.052  0.00  0.00    +0.008 A 
ATOM     20  C   UNL     1       3.064  -2.326  -2.291  0.00  0.00    +0.000 A 
ATOM     21  C   UNL     1       2.832  -1.356  -3.248  0.00  0.00    +0.002 A 
ATOM     22  C   UNL     1       1.652  -1.363  -3.967  0.00  0.00    +0.033 A 
ATOM     23  C   UNL     1       0.705  -2.342  -3.732  0.00  0.00    +0.131 A 
BRANCH  23  24
ATOM     24  N   UNL     1      -0.557  -2.352  -4.505  0.00  0.00    +0.057 N 
ATOM     25  O   UNL     1      -0.708  -1.584  -5.427  0.00  0.00    -0.126 OA
ATOM     26  O   UNL     1      -1.438  -3.128  -4.215  0.00  0.00    -0.126 OA
ENDBRANCH  23  24
ENDBRANCH   6  18
BRANCH   1  27
ATOM     27  C   UNL     1       0.058  -4.278   0.142  0.00  0.00    +0.195 C 
ATOM     28  O   UNL     1       0.344  -4.866   1.168  0.00  0.00    -0.287 OA
BRANCH  27  33
ATOM     29  C   UNL     1      -1.500   1.258   0.336  0.00  0.00    +0.044 C 
ATOM     30  C   UNL     1      -1.092  -0.191   0.285  0.00  0.00    -0.050 A 
ATOM     31  C   UNL     1       0.235  -0.540   0.467  0.00  0.00    +0.004 A 
ATOM     32  C   UNL     1       0.615  -1.865   0.422  0.00  0.00    +0.012 A 
ATOM     33  C   UNL     1      -0.342  -2.856   0.193  0.00  0.00    +0.025 A 
ATOM     34  C   UNL     1      -1.679  -2.497   0.010  0.00  0.00    -0.039 A 
ATOM     35  C   UNL     1      -2.047  -1.168   0.063  0.00  0.00    +0.007 A 
ATOM     36  C   UNL     1      -2.719  -3.559  -0.238  0.00  0.00    +0.044 C 
ENDBRANCH  27  33
ENDBRANCH   1  27
TORSDOF 6
