REMARK  Name = ZINC49871959
REMARK  7 active torsions:
REMARK  status: ('A' for Active; 'I' for Inactive)
REMARK    1  A    between atoms: C_5  and  S_16
REMARK    2  A    between atoms: C_6  and  N_7
REMARK    3  A    between atoms: N_7  and  C_8
REMARK    4  A    between atoms: S_16  and  N_19
REMARK    5  A    between atoms: C_20  and  C_21
REMARK    6  A    between atoms: C_21  and  N_22
REMARK    7  A    between atoms: N_25  and  C_26
REMARK                            x       y       z     vdW  Elec       q    Type
REMARK                         _______ _______ _______ _____ _____    ______ ____
ROOT
ATOM      1  S   UNL     1       0.762  -2.426  -0.159  0.00  0.00    +0.103 S 
ATOM      2  O   UNL     1      -0.267  -2.998  -0.955  0.00  0.00    -0.146 OA
ATOM      3  O   UNL     1       2.141  -2.609  -0.450  0.00  0.00    -0.146 OA
ENDROOT
BRANCH   1   8
ATOM      4  C   UNL     1      -0.965   1.202   0.145  0.00  0.00    +0.042 A 
ATOM      5  C   UNL     1       0.115   2.014  -0.132  0.00  0.00    +0.084 A 
ATOM      6  N   UNL     1       1.300   1.496  -0.395  0.00  0.00    -0.365 N 
ATOM      7  C   UNL     1       1.505   0.192  -0.407  0.00  0.00    +0.113 A 
ATOM      8  C   UNL     1       0.477  -0.688  -0.141  0.00  0.00    +0.149 A 
ATOM      9  C   UNL     1      -0.791  -0.181   0.143  0.00  0.00    +0.057 A 
ATOM     10  H   UNL     1       2.042   2.091  -0.587  0.00  0.00    +0.165 HD
BRANCH   9  11
ATOM     11  N   UNL     1      -1.856  -1.035   0.417  0.00  0.00    -0.339 N 
ATOM     12  H   UNL     1      -1.720  -1.996   0.412  0.00  0.00    +0.146 HD
BRANCH  11  13
ATOM     13  C   UNL     1      -3.180  -0.483   0.713  0.00  0.00    +0.070 C 
ATOM     14  C   UNL     1      -3.267  -0.135   2.200  0.00  0.00    +0.022 C 
ATOM     15  C   UNL     1      -4.463   0.788   2.439  0.00  0.00    +0.002 C 
ATOM     16  C   UNL     1      -4.501   1.866   1.353  0.00  0.00    +0.000 C 
ATOM     17  C   UNL     1      -5.733   1.658   0.470  0.00  0.00    +0.000 C 
ATOM     18  C   UNL     1      -5.486   0.483  -0.479  0.00  0.00    +0.000 C 
ATOM     19  C   UNL     1      -5.618  -0.832   0.292  0.00  0.00    +0.002 C 
ATOM     20  C   UNL     1      -4.253  -1.518   0.368  0.00  0.00    +0.022 C 
ENDBRANCH  11  13
ENDBRANCH   9  11
ENDBRANCH   1   8
BRANCH   1  21
ATOM     21  N   UNL     1       0.527  -2.977   1.385  0.00  0.00    -0.116 NA
ATOM     22  C   UNL     1       0.636  -4.239   1.645  0.00  0.00    +0.144 C 
ATOM     23  N   UNL     1       0.320  -4.712   2.891  0.00  0.00    -0.327 N 
ATOM     24  H   UNL     1       0.464  -5.647   3.106  0.00  0.00    +0.148 HD
BRANCH  23  25
ATOM     25  C   UNL     1      -0.236  -3.806   3.899  0.00  0.00    +0.072 C 
ATOM     26  C   UNL     1       0.919  -3.034   4.568  0.00  0.00    +0.022 C 
ATOM     27  C   UNL     1       0.359  -1.788   5.198  0.00  0.00    +0.002 C 
ATOM     28  C   UNL     1       0.009  -1.985   6.686  0.00  0.00    +0.000 C 
ATOM     29  C   UNL     1      -0.672  -3.338   6.965  0.00  0.00    +0.000 C 
ATOM     30  C   UNL     1      -1.692  -3.696   5.918  0.00  0.00    +0.002 C 
ATOM     31  C   UNL     1      -1.012  -4.582   4.854  0.00  0.00    +0.022 C 
ENDBRANCH  23  25
BRANCH  22  32
ATOM     32  C   UNL     1       1.111  -5.190   0.576  0.00  0.00    +0.283 C 
BRANCH  32  33
ATOM     33  N   UNL     1       0.992  -6.568   1.060  0.00  0.00    +0.030 N 
ATOM     34  O   UNL     1      -0.061  -6.964   1.503  0.00  0.00    -0.131 OA
ATOM     35  O   UNL     1       1.946  -7.309   1.017  0.00  0.00    -0.131 OA
ENDBRANCH  32  33
ENDBRANCH  22  32
ENDBRANCH   1  21
TORSDOF 7
