REMARK  Name = ZINC35886294
REMARK  6 active torsions:
REMARK  status: ('A' for Active; 'I' for Inactive)
REMARK    1  A    between atoms: C_4  and  C_7
REMARK    2  A    between atoms: C_7  and  C_8
REMARK    3  A    between atoms: N_11  and  C_14
REMARK    4  A    between atoms: C_14  and  C_15
REMARK    5  A    between atoms: C_20  and  C_22
REMARK    6  A    between atoms: C_29  and  C_31
REMARK                            x       y       z     vdW  Elec       q    Type
REMARK                         _______ _______ _______ _____ _____    ______ ____
ROOT
ATOM      1  C   UNL     1       7.711  -1.545   4.572  0.00  0.00    -0.001 C 
ATOM      2  C   UNL     1       7.651  -2.789   3.660  0.00  0.00    +0.110 C 
ATOM      3  N   UNL     1       8.511  -3.789   4.335  0.00  0.00    -0.297 N 
ATOM      4  C   UNL     1       8.212  -3.617   5.775  0.00  0.00    +0.116 C 
ATOM      5  C   UNL     1       8.082  -2.088   5.967  0.00  0.00    +0.039 C 
ATOM      6  C   UNL     1       9.371  -4.658   3.767  0.00  0.00    +0.247 C 
ATOM      7  O   UNL     1       9.589  -4.604   2.572  0.00  0.00    -0.270 OA
ENDROOT
BRANCH   6   8
ATOM      8  C   UNL     1      10.049  -5.674   4.596  0.00  0.00    +0.041 A 
ATOM      9  C   UNL     1       9.505  -6.049   5.827  0.00  0.00    +0.017 A 
ATOM     10  C   UNL     1      10.138  -6.998   6.599  0.00  0.00    +0.050 A 
ATOM     11  C   UNL     1      11.317  -7.585   6.159  0.00  0.00    +0.166 A 
ATOM     12  C   UNL     1      11.866  -7.214   4.930  0.00  0.00    +0.167 A 
ATOM     13  C   UNL     1      11.232  -6.267   4.149  0.00  0.00    +0.062 A 
ATOM     14  O   UNL     1      13.012  -7.929   4.732  0.00  0.00    -0.453 OA
ATOM     15  C   UNL     1      13.376  -8.438   6.028  0.00  0.00    +0.466 C 
ATOM     16  O   UNL     1      12.120  -8.530   6.725  0.00  0.00    -0.453 OA
ENDBRANCH   6   8
BRANCH   5  17
ATOM     17  C   UNL     1       6.990  -1.775   6.958  0.00  0.00    -0.040 A 
ATOM     18  C   UNL     1       5.752  -2.377   6.836  0.00  0.00    +0.004 A 
ATOM     19  C   UNL     1       4.750  -2.091   7.745  0.00  0.00    +0.003 A 
ATOM     20  C   UNL     1       4.985  -1.201   8.775  0.00  0.00    +0.038 A 
ATOM     21  C   UNL     1       6.225  -0.597   8.899  0.00  0.00    +0.124 A 
ATOM     22  C   UNL     1       7.230  -0.889   7.992  0.00  0.00    +0.042 A 
ATOM     23  F   UNL     1       6.456   0.274   9.906  0.00  0.00    -0.205 F 
ENDBRANCH   5  17
BRANCH   1  24
ATOM     24  C   UNL     1       6.348  -0.852   4.615  0.00  0.00    -0.073 C 
BRANCH  24  28
ATOM     25  C   UNL     1       6.122   3.254   5.733  0.00  0.00    -0.010 C 
ATOM     26  C   UNL     1       5.222   2.232   6.433  0.00  0.00    -0.015 C 
ATOM     27  C   UNL     1       5.121   0.973   5.570  0.00  0.00    -0.079 C 
ATOM     28  N   UNL     1       6.458   0.399   5.378  0.00  0.00    +0.380 N 
ATOM     29  C   UNL     1       7.306   1.345   4.644  0.00  0.00    -0.079 C 
ATOM     30  C   UNL     1       7.491   2.619   5.471  0.00  0.00    -0.015 C 
ATOM     31  H   UNL     1       6.873   0.206   6.278  0.00  0.00    -0.082 HD
BRANCH  25  32
ATOM     32  C   UNL     1       6.292   4.484   6.626  0.00  0.00    +0.038 C 
BRANCH  32  36
ATOM     33  C   UNL     1       2.527   6.454   7.070  0.00  0.00    +0.000 A 
ATOM     34  C   UNL     1       2.900   5.466   7.963  0.00  0.00    +0.000 A 
ATOM     35  C   UNL     1       4.118   4.829   7.819  0.00  0.00    +0.003 A 
ATOM     36  C   UNL     1       4.963   5.179   6.782  0.00  0.00    -0.047 A 
ATOM     37  C   UNL     1       4.590   6.166   5.889  0.00  0.00    +0.003 A 
ATOM     38  C   UNL     1       3.372   6.804   6.034  0.00  0.00    +0.000 A 
ENDBRANCH  32  36
ENDBRANCH  25  32
ENDBRANCH  24  28
ENDBRANCH   1  24
TORSDOF 6
