REMARK  Name = ZINC35497787
REMARK  15 active torsions:
REMARK  status: ('A' for Active; 'I' for Inactive)
REMARK    1  A    between atoms: C_1  and  C_2
REMARK    2  A    between atoms: C_5  and  C_8
REMARK    3  A    between atoms: C_8  and  C_10
REMARK    4  A    between atoms: C_8  and  C_21
REMARK    5  A    between atoms: C_10  and  C_11
REMARK    6  A    between atoms: N_13  and  C_14
REMARK    7  A    between atoms: C_14  and  C_15
REMARK    8  A    between atoms: C_15  and  C_16
REMARK    9  A    between atoms: C_16  and  C_17
REMARK   10  A    between atoms: C_17  and  C_18
REMARK   11  A    between atoms: C_18  and  C_19
REMARK   12  A    between atoms: C_19  and  N_20
REMARK   13  A    between atoms: N_23  and  C_33
REMARK   14  A    between atoms: C_27  and  N_30
REMARK   15  A    between atoms: C_33  and  C_34
REMARK                            x       y       z     vdW  Elec       q    Type
REMARK                         _______ _______ _______ _____ _____    ______ ____
ROOT
ATOM      1  C   UNL     1       0.059  -4.275  -0.021  0.00  0.00    +0.060 C 
ENDROOT
BRANCH   1   2
ATOM      2  C   UNL     1      -1.161  -4.797   0.693  0.00  0.00    -0.014 A 
ATOM      3  C   UNL     1      -1.500  -4.561   1.970  0.00  0.00    +0.091 A 
ATOM      4  N   UNL     1      -2.673  -5.201   2.267  0.00  0.00    -0.342 N 
ATOM      5  C   UNL     1      -3.128  -5.881   1.160  0.00  0.00    +0.050 A 
ATOM      6  C   UNL     1      -2.204  -5.653   0.123  0.00  0.00    +0.006 A 
ATOM      7  C   UNL     1      -2.414  -6.222  -1.134  0.00  0.00    +0.043 A 
ATOM      8  C   UNL     1      -3.519  -6.995  -1.353  0.00  0.00    +0.127 A 
ATOM      9  C   UNL     1      -4.435  -7.220  -0.336  0.00  0.00    +0.035 A 
ATOM     10  C   UNL     1      -4.243  -6.676   0.916  0.00  0.00    +0.028 A 
BRANCH   8  11
ATOM     11  N   UNL     1      -3.740  -7.598  -2.687  0.00  0.00    +0.056 N 
ATOM     12  O   UNL     1      -2.945  -7.405  -3.577  0.00  0.00    -0.126 OA
ATOM     13  O   UNL     1      -4.716  -8.283  -2.886  0.00  0.00    -0.126 OA
ENDBRANCH   8  11
BRANCH   4  14
ATOM     14  C   UNL     1      -3.343  -5.167   3.569  0.00  0.00    +0.157 C 
BRANCH  14  15
ATOM     15  C   UNL     1      -2.936  -6.373   4.375  0.00  0.00    -0.028 A 
ATOM     16  C   UNL     1      -3.664  -7.545   4.284  0.00  0.00    +0.005 A 
ATOM     17  C   UNL     1      -3.290  -8.651   5.023  0.00  0.00    +0.000 A 
ATOM     18  C   UNL     1      -2.188  -8.586   5.855  0.00  0.00    +0.000 A 
ATOM     19  C   UNL     1      -1.459  -7.415   5.946  0.00  0.00    +0.000 A 
ATOM     20  C   UNL     1      -1.830  -6.310   5.203  0.00  0.00    +0.005 A 
ENDBRANCH  14  15
ENDBRANCH   4  14
ENDBRANCH   1   2
BRANCH   1  25
ATOM     21  C   UNL     1      -0.018   1.503   0.010  0.00  0.00    +0.044 C 
ATOM     22  C   UNL     1       0.002  -0.004   0.002  0.00  0.00    -0.050 A 
ATOM     23  C   UNL     1       0.006  -0.689  -1.199  0.00  0.00    +0.003 A 
ATOM     24  C   UNL     1       0.025  -2.071  -1.206  0.00  0.00    +0.004 A 
ATOM     25  C   UNL     1       0.040  -2.768  -0.013  0.00  0.00    -0.039 A 
ATOM     26  C   UNL     1       0.037  -2.084   1.188  0.00  0.00    +0.004 A 
ATOM     27  C   UNL     1       0.023  -0.702   1.195  0.00  0.00    +0.003 A 
ENDBRANCH   1  25
BRANCH   1  28
ATOM     28  C   UNL     1       1.319  -4.773   0.690  0.00  0.00    +0.108 C 
BRANCH  28  29
ATOM     29  C   UNL     1       2.537  -4.354  -0.093  0.00  0.00    +0.214 C 
ATOM     30  O   UNL     1       2.410  -3.720  -1.119  0.00  0.00    -0.276 OA
ATOM     31  N   UNL     1       3.767  -4.684   0.347  0.00  0.00    -0.315 N 
ATOM     32  H   UNL     1       3.869  -5.192   1.168  0.00  0.00    +0.149 HD
BRANCH  31  33
ATOM     33  C   UNL     1       4.951  -4.277  -0.414  0.00  0.00    +0.104 C 
BRANCH  33  34
ATOM     34  C   UNL     1       6.211  -4.775   0.298  0.00  0.00    +0.019 C 
BRANCH  34  35
ATOM     35  C   UNL     1       7.447  -4.350  -0.497  0.00  0.00    +0.001 C 
BRANCH  35  36
ATOM     36  C   UNL     1       8.707  -4.848   0.215  0.00  0.00    -0.002 C 
BRANCH  36  37
ATOM     37  C   UNL     1       9.943  -4.423  -0.580  0.00  0.00    -0.020 C 
BRANCH  37  38
ATOM     38  C   UNL     1      11.203  -4.920   0.132  0.00  0.00    -0.086 C 
BRANCH  38  39
ATOM     39  N   UNL     1      12.390  -4.512  -0.631  0.00  0.00    +0.378 N 
ATOM     40  H   UNL     1      12.417  -3.506  -0.699  0.00  0.00    -0.090 HD
ATOM     41  H   UNL     1      13.221  -4.840  -0.162  0.00  0.00    -0.090 HD
ATOM     42  H   UNL     1      12.348  -4.910  -1.558  0.00  0.00    -0.090 HD
ENDBRANCH  38  39
ENDBRANCH  37  38
ENDBRANCH  36  37
ENDBRANCH  35  36
ENDBRANCH  34  35
ENDBRANCH  33  34
ENDBRANCH  31  33
ENDBRANCH  28  29
ENDBRANCH   1  28
TORSDOF 14
