REMARK  Name = ZINC35745131
REMARK  12 active torsions:
REMARK  status: ('A' for Active; 'I' for Inactive)
REMARK    1  A    between atoms: C_5  and  C_7
REMARK    2  A    between atoms: C_7  and  N_8
REMARK    3  A    between atoms: N_8  and  C_9
REMARK    4  A    between atoms: N_8  and  C_15
REMARK    5  A    between atoms: C_9  and  C_10
REMARK    6  A    between atoms: C_15  and  C_16
REMARK    7  A    between atoms: C_19  and  C_21
REMARK    8  A    between atoms: C_21  and  C_22
REMARK    9  A    between atoms: C_21  and  C_27
REMARK   10  A    between atoms: C_21  and  O_32
REMARK   11  A    between atoms: C_22  and  C_23
REMARK   12  A    between atoms: C_27  and  C_28
REMARK                            x       y       z     vdW  Elec       q    Type
REMARK                         _______ _______ _______ _____ _____    ______ ____
ROOT
ATOM      1  C   UNL     1       1.645  -4.527   2.825  0.00  0.00    +0.089 A 
ATOM      2  C   UNL     1       0.651  -4.800   3.689  0.00  0.00    +0.043 A 
ATOM      3  C   UNL     1       1.260  -5.221   4.893  0.00  0.00    +0.048 A 
ATOM      4  C   UNL     1       2.589  -5.180   4.693  0.00  0.00    +0.137 A 
ATOM      5  O   UNL     1       2.816  -4.764   3.436  0.00  0.00    -0.464 OA
ENDROOT
BRANCH   1   6
ATOM      6  C   UNL     1       1.472  -4.042   1.408  0.00  0.00    -0.002 C 
BRANCH   6   7
ATOM      7  N   UNL     1       1.450  -2.573   1.392  0.00  0.00    +0.392 N 
ATOM      8  H   UNL     1       0.734  -2.241   2.021  0.00  0.00    -0.080 HD
BRANCH   7   9
ATOM      9  C   UNL     1       1.162  -2.103   0.031  0.00  0.00    -0.039 C 
BRANCH   9  14
ATOM     10  C   UNL     1      -1.711  -3.925  -1.605  0.00  0.00    +0.000 A 
ATOM     11  C   UNL     1      -2.801  -3.261  -1.071  0.00  0.00    +0.003 A 
ATOM     12  C   UNL     1      -2.609  -2.222  -0.181  0.00  0.00    +0.038 A 
ATOM     13  C   UNL     1      -1.325  -1.846   0.177  0.00  0.00    +0.125 A 
ATOM     14  C   UNL     1      -0.235  -2.511  -0.358  0.00  0.00    -0.029 A 
ATOM     15  C   UNL     1      -0.430  -3.550  -1.248  0.00  0.00    +0.004 A 
ATOM     16  F   UNL     1      -1.136  -0.830   1.048  0.00  0.00    -0.205 F 
ENDBRANCH   9  14
ENDBRANCH   7   9
BRANCH   7  17
ATOM     17  C   UNL     1       2.757  -2.059   1.823  0.00  0.00    -0.002 C 
BRANCH  17  18
ATOM     18  C   UNL     1       2.691  -0.558   1.942  0.00  0.00    +0.089 A 
ATOM     19  C   UNL     1       2.255   0.128   3.013  0.00  0.00    +0.042 A 
ATOM     20  C   UNL     1       2.366   1.501   2.694  0.00  0.00    +0.041 A 
ATOM     21  C   UNL     1       2.864   1.572   1.446  0.00  0.00    +0.195 A 
ATOM     22  O   UNL     1       3.064   0.322   0.998  0.00  0.00    -0.470 OA
ENDBRANCH  17  18
ENDBRANCH   7  17
ENDBRANCH   6   7
ENDBRANCH   1   6
BRANCH   4  23
ATOM     23  C   UNL     1       3.645  -5.544   5.705  0.00  0.00    +0.124 C 
BRANCH  23  24
ATOM     24  O   UNL     1       3.133  -6.544   6.588  0.00  0.00    -0.381 OA
ATOM     25  H   UNL     1       2.348  -6.270   7.081  0.00  0.00    +0.211 HD
ENDBRANCH  23  24
BRANCH  23  26
ATOM     26  C   UNL     1       4.880  -6.085   4.982  0.00  0.00    +0.046 C 
BRANCH  26  27
ATOM     27  C   UNL     1       4.472  -7.251   4.079  0.00  0.00    -0.008 C 
ATOM     28  C   UNL     1       4.476  -8.613   4.793  0.00  0.00    +0.003 C 
ATOM     29  C   UNL     1       5.077  -9.198   3.504  0.00  0.00    +0.001 C 
ATOM     30  C   UNL     1       5.622  -7.790   3.212  0.00  0.00    +0.003 C 
ENDBRANCH  26  27
ENDBRANCH  23  26
BRANCH  23  31
ATOM     31  C   UNL     1       4.029  -4.301   6.511  0.00  0.00    +0.046 C 
BRANCH  31  32
ATOM     32  C   UNL     1       5.187  -4.641   7.451  0.00  0.00    -0.008 C 
ATOM     33  C   UNL     1       4.733  -5.200   8.810  0.00  0.00    +0.003 C 
ATOM     34  C   UNL     1       5.850  -4.353   9.443  0.00  0.00    +0.001 C 
ATOM     35  C   UNL     1       5.732  -3.427   8.222  0.00  0.00    +0.003 C 
ENDBRANCH  31  32
ENDBRANCH  23  31
ENDBRANCH   4  23
TORSDOF 12
