REMARK  Name = ZINC09292597
REMARK  10 active torsions:
REMARK  status: ('A' for Active; 'I' for Inactive)
REMARK    1  A    between atoms: C_1  and  C_2
REMARK    2  A    between atoms: C_2  and  C_3
REMARK    3  A    between atoms: C_3  and  O_4
REMARK    4  A    between atoms: O_4  and  C_5
REMARK    5  A    between atoms: C_9  and  C_11
REMARK    6  A    between atoms: C_13  and  C_14
REMARK    7  A    between atoms: C_14  and  C_15
REMARK    8  A    between atoms: C_22  and  C_25
REMARK    9  A    between atoms: N_31  and  C_32
REMARK   10  A    between atoms: C_32  and  C_33
REMARK                            x       y       z     vdW  Elec       q    Type
REMARK                         _______ _______ _______ _____ _____    ______ ____
ROOT
ATOM      1  C   UNL     1      -6.273   2.006  -0.125  0.00  0.00    +0.145 C 
ATOM      2  C   UNL     1      -4.886   1.415  -0.025  0.00  0.00    +0.076 C 
ATOM      3  C   UNL     1      -5.052   0.023  -0.038  0.00  0.00    +0.249 C 
ATOM      4  O   UNL     1      -4.160  -0.804   0.025  0.00  0.00    -0.282 OA
ATOM      5  C   UNL     1      -6.507  -0.270  -0.144  0.00  0.00    +0.288 C 
ATOM      6  O   UNL     1      -6.993  -1.382  -0.180  0.00  0.00    -0.266 OA
ATOM      7  N   UNL     1      -7.205   0.877  -0.203  0.00  0.00    -0.279 N 
ENDROOT
BRANCH   1  12
ATOM      8  C   UNL     1      -6.410   5.005  -2.421  0.00  0.00    +0.121 A 
ATOM      9  C   UNL     1      -6.591   4.397  -3.655  0.00  0.00    +0.045 A 
ATOM     10  C   UNL     1      -6.669   3.021  -3.741  0.00  0.00    +0.004 A 
ATOM     11  C   UNL     1      -6.561   2.248  -2.600  0.00  0.00    +0.006 A 
ATOM     12  C   UNL     1      -6.385   2.851  -1.368  0.00  0.00    -0.019 A 
ATOM     13  C   UNL     1      -6.307   4.227  -1.276  0.00  0.00    +0.051 A 
BRANCH   8  14
ATOM     14  O   UNL     1      -6.332   6.359  -2.333  0.00  0.00    -0.492 OA
BRANCH  14  15
ATOM     15  C   UNL     1      -6.447   7.095  -3.552  0.00  0.00    +0.229 C 
BRANCH  15  17
ATOM     16  C   UNL     1      -6.458   9.381  -4.561  0.00  0.00    +0.007 C 
ATOM     17  C   UNL     1      -6.336   8.592  -3.256  0.00  0.00    +0.038 C 
ENDBRANCH  15  17
ENDBRANCH  14  15
ENDBRANCH   8  14
ENDBRANCH   1  12
BRANCH   2  18
ATOM     18  C   UNL     1      -3.693   2.108   0.063  0.00  0.00    +0.195 C 
ATOM     19  O   UNL     1      -3.701   3.450   0.212  0.00  0.00    -0.287 OA
BRANCH  18  20
ATOM     20  C   UNL     1      -2.415   1.383  -0.005  0.00  0.00    +0.023 A 
ATOM     21  C   UNL     1      -1.431   1.593   0.968  0.00  0.00    +0.015 A 
ATOM     22  C   UNL     1      -0.239   0.913   0.903  0.00  0.00    +0.046 A 
ATOM     23  C   UNL     1       0.004   0.007  -0.132  0.00  0.00    +0.124 A 
ATOM     24  C   UNL     1      -0.977  -0.195  -1.101  0.00  0.00    -0.002 A 
ATOM     25  C   UNL     1      -2.171   0.478  -1.047  0.00  0.00    +0.019 A 
ATOM     26  C   UNL     1      -0.425  -1.210  -2.084  0.00  0.00    +0.083 C 
ATOM     27  C   UNL     1       1.084  -1.196  -1.743  0.00  0.00    +0.175 C 
ATOM     28  O   UNL     1       1.098  -0.764  -0.372  0.00  0.00    -0.488 OA
ATOM     29  C   UNL     1       1.831  -0.201  -2.632  0.00  0.00    +0.052 C 
ENDBRANCH  18  20
ENDBRANCH   2  18
BRANCH   7  30
ATOM     30  C   UNL     1      -8.662   0.982  -0.316  0.00  0.00    +0.144 C 
BRANCH  30  31
ATOM     31  C   UNL     1      -9.270   1.017   1.063  0.00  0.00    -0.027 A 
ATOM     32  C   UNL     1      -9.648  -0.154   1.702  0.00  0.00    +0.025 A 
ATOM     33  C   UNL     1     -10.198  -0.084   2.967  0.00  0.00    +0.111 A 
ATOM     34  N   UNL     1     -10.375   1.080   3.562  0.00  0.00    -0.263 NA
ATOM     35  C   UNL     1     -10.033   2.214   2.982  0.00  0.00    +0.111 A 
ATOM     36  C   UNL     1      -9.472   2.221   1.720  0.00  0.00    +0.025 A 
ENDBRANCH  30  31
ENDBRANCH   7  30
TORSDOF 8
