REMARK  Name = ZINC22313946
REMARK  12 active torsions:
REMARK  status: ('A' for Active; 'I' for Inactive)
REMARK    1  A    between atoms: C_1  and  C_2
REMARK    2  A    between atoms: C_5  and  O_8
REMARK    3  A    between atoms: O_8  and  C_9
REMARK    4  A    between atoms: C_9  and  C_10
REMARK    5  A    between atoms: C_10  and  C_12
REMARK    6  A    between atoms: C_10  and  N_13
REMARK    7  A    between atoms: C_14  and  C_16
REMARK    8  A    between atoms: C_16  and  N_17
REMARK    9  A    between atoms: N_17  and  C_18
REMARK   10  A    between atoms: N_17  and  S_27
REMARK   11  A    between atoms: C_21  and  N_24
REMARK   12  A    between atoms: S_27  and  C_30
REMARK                            x       y       z     vdW  Elec       q    Type
REMARK                         _______ _______ _______ _____ _____    ______ ____
ROOT
ATOM      1  N   UNL     1       4.345  -1.062  -1.630  0.00  0.00    -0.194 N 
ENDROOT
BRANCH   1   2
ATOM      2  C   UNL     1       4.018  -2.260  -2.269  0.00  0.00    +0.052 A 
ATOM      3  C   UNL     1       3.369  -2.239  -3.497  0.00  0.00    +0.027 A 
ATOM      4  C   UNL     1       3.053  -3.425  -4.130  0.00  0.00    +0.034 A 
ATOM      5  C   UNL     1       3.371  -4.633  -3.536  0.00  0.00    +0.126 A 
ATOM      6  C   UNL     1       4.012  -4.657  -2.311  0.00  0.00    +0.034 A 
ATOM      7  C   UNL     1       4.336  -3.475  -1.676  0.00  0.00    +0.027 A 
BRANCH   5   8
ATOM      8  N   UNL     1       3.026  -5.902  -4.214  0.00  0.00    +0.056 N 
ATOM      9  O   UNL     1       3.305  -6.967  -3.693  0.00  0.00    -0.126 OA
ATOM     10  O   UNL     1       2.461  -5.882  -5.293  0.00  0.00    -0.126 OA
ENDBRANCH   5   8
ENDBRANCH   1   2
BRANCH   1  11
ATOM     11  S   UNL     1       3.729  -0.729  -0.129  0.00  0.00    +0.075 S 
ATOM     12  O   UNL     1       4.682   0.094   0.528  0.00  0.00    -0.150 OA
ATOM     13  O   UNL     1       3.289  -1.967   0.413  0.00  0.00    -0.150 OA
BRANCH  11  14
ATOM     14  C   UNL     1       2.288   0.257  -0.364  0.00  0.00    +0.109 A 
ATOM     15  C   UNL     1       1.053  -0.347  -0.512  0.00  0.00    +0.029 A 
ATOM     16  C   UNL     1      -0.077   0.427  -0.697  0.00  0.00    +0.002 A 
ATOM     17  C   UNL     1       0.027   1.805  -0.734  0.00  0.00    +0.000 A 
ATOM     18  C   UNL     1       1.262   2.409  -0.586  0.00  0.00    +0.002 A 
ATOM     19  C   UNL     1       2.392   1.635  -0.401  0.00  0.00    +0.029 A 
ENDBRANCH  11  14
ENDBRANCH   1  11
BRANCH   1  20
ATOM     20  C   UNL     1       5.233  -0.099  -2.287  0.00  0.00    +0.227 C 
BRANCH  20  22
ATOM     21  N   UNL     1       7.666   0.280  -2.518  0.00  0.00    -0.308 N 
ATOM     22  C   UNL     1       6.667  -0.469  -2.011  0.00  0.00    +0.232 C 
ATOM     23  O   UNL     1       6.923  -1.442  -1.333  0.00  0.00    -0.274 OA
ATOM     24  H   UNL     1       7.434   1.162  -3.134  0.00  0.00    +0.149 HD
BRANCH  21  25
ATOM     25  C   UNL     1       9.061  -0.080  -2.251  0.00  0.00    +0.107 C 
ATOM     26  C   UNL     1       9.492   0.515  -0.909  0.00  0.00    +0.031 C 
BRANCH  25  27
ATOM     27  C   UNL     1       9.953   0.471  -3.364  0.00  0.00    +0.251 C 
BRANCH  27  28
ATOM     28  O   UNL     1       9.919   1.900  -3.338  0.00  0.00    -0.490 OA
BRANCH  28  33
ATOM     29  C   UNL     1      13.005   4.602  -7.198  0.00  0.00    +0.044 C 
ATOM     30  C   UNL     1      12.179   3.879  -6.165  0.00  0.00    -0.050 A 
ATOM     31  C   UNL     1      11.435   4.599  -5.249  0.00  0.00    +0.007 A 
ATOM     32  C   UNL     1      10.678   3.939  -4.301  0.00  0.00    +0.046 A 
ATOM     33  C   UNL     1      10.664   2.552  -4.269  0.00  0.00    +0.121 A 
ATOM     34  C   UNL     1      11.416   1.832  -5.186  0.00  0.00    +0.046 A 
ATOM     35  C   UNL     1      12.167   2.497  -6.136  0.00  0.00    +0.007 A 
ENDBRANCH  28  33
ENDBRANCH  27  28
ENDBRANCH  25  27
ENDBRANCH  21  25
ENDBRANCH  20  22
ENDBRANCH   1  20
TORSDOF 10
