REMARK  Name = ZINC03421828
REMARK  9 active torsions:
REMARK  status: ('A' for Active; 'I' for Inactive)
REMARK    1  A    between atoms: C_1  and  N_56
REMARK    2  A    between atoms: C_2  and  N_56
REMARK    3  A    between atoms: C_3  and  C_5
REMARK    4  A    between atoms: C_3  and  C_28
REMARK    5  A    between atoms: C_3  and  N_56
REMARK    6  A    between atoms: C_5  and  N_6
REMARK    7  A    between atoms: C_7  and  C_9
REMARK    8  A    between atoms: C_13  and  S_15
REMARK    9  A    between atoms: S_15  and  N_18
REMARK                            x       y       z     vdW  Elec       q    Type
REMARK                         _______ _______ _______ _____ _____    ______ ____
ROOT
ATOM      1  C   UNL     1       3.893   2.843   0.143  0.00  0.00    +0.039 A 
ATOM      2  C   UNL     1       3.314   2.307  -1.009  0.00  0.00    +0.014 A 
ATOM      3  C   UNL     1       3.846   2.604  -2.246  0.00  0.00    +0.023 A 
ATOM      4  C   UNL     1       4.958   3.424  -2.346  0.00  0.00    +0.068 A 
ATOM      5  C   UNL     1       5.539   3.954  -1.207  0.00  0.00    +0.128 A 
ATOM      6  C   UNL     1       5.013   3.669   0.036  0.00  0.00    +0.043 A 
ATOM      7 CL   UNL     1       5.626   3.788  -3.907  0.00  0.00    -0.082 Cl
ENDROOT
BRANCH   1   9
ATOM      8  N   UNL     1       2.242   1.736   1.573  0.00  0.00    -0.313 N 
ATOM      9  C   UNL     1       3.324   2.533   1.472  0.00  0.00    +0.244 C 
ATOM     10  O   UNL     1       3.833   2.998   2.474  0.00  0.00    -0.270 OA
ATOM     11  H   UNL     1       1.837   1.365   0.773  0.00  0.00    +0.149 HD
BRANCH   8  12
ATOM     12  C   UNL     1       1.679   1.429   2.890  0.00  0.00    +0.094 C 
BRANCH  12  13
ATOM     13  C   UNL     1       0.542   0.416   2.735  0.00  0.00    -0.014 C 
BRANCH  13  14
ATOM     14  C   UNL     1      -0.127   0.204   4.068  0.00  0.00    -0.022 A 
ATOM     15  C   UNL     1      -0.109  -0.891   4.867  0.00  0.00    +0.009 A 
ATOM     16  C   UNL     1      -0.801  -0.858   6.064  0.00  0.00    +0.008 A 
ATOM     17  C   UNL     1      -1.486   0.263   6.397  0.00  0.00    +0.045 A 
ATOM     18  S   UNL     1      -1.155   1.326   5.001  0.00  0.00    -0.103 S 
ENDBRANCH  13  14
BRANCH  13  21
ATOM     19  C   UNL     1      -0.934   2.251   2.172  0.00  0.00    -0.096 C 
ATOM     20  C   UNL     1      -1.550  -0.019   1.597  0.00  0.00    -0.096 C 
ATOM     21  N   UNL     1      -0.427   0.930   1.744  0.00  0.00    +0.382 N 
ATOM     22  H   UNL     1       0.045   1.031   0.838  0.00  0.00    -0.082 HD
ENDBRANCH  13  21
ENDBRANCH  12  13
ENDBRANCH   8  12
ENDBRANCH   1   9
BRANCH   5  23
ATOM     23  S   UNL     1       6.953   4.997  -1.344  0.00  0.00    +0.076 S 
ATOM     24  O   UNL     1       6.676   5.921  -2.388  0.00  0.00    -0.150 OA
ATOM     25  O   UNL     1       7.281   5.413  -0.026  0.00  0.00    -0.150 OA
BRANCH  23  26
ATOM     26  N   UNL     1       8.208   4.053  -1.869  0.00  0.00    -0.202 N 
ATOM     27  C   UNL     1       8.647   3.937  -3.262  0.00  0.00    +0.136 C 
ATOM     28  C   UNL     1       9.831   2.957  -3.232  0.00  0.00    +0.058 C 
ATOM     29  C   UNL     1       9.970   2.574  -1.776  0.00  0.00    -0.023 A 
ATOM     30  C   UNL     1       8.999   3.246  -1.049  0.00  0.00    +0.054 A 
ATOM     31  C   UNL     1       8.929   3.049   0.332  0.00  0.00    +0.025 A 
ATOM     32  C   UNL     1       9.815   2.199   0.959  0.00  0.00    +0.002 A 
ATOM     33  C   UNL     1      10.779   1.534   0.225  0.00  0.00    +0.000 A 
ATOM     34  C   UNL     1      10.855   1.723  -1.143  0.00  0.00    +0.005 A 
ENDBRANCH  23  26
ENDBRANCH   5  23
TORSDOF 7
