REMARK  Name = ZINC00952437
REMARK  8 active torsions:
REMARK  status: ('A' for Active; 'I' for Inactive)
REMARK    1  A    between atoms: C_1  and  C_2
REMARK    2  A    between atoms: C_2  and  C_3
REMARK    3  A    between atoms: C_2  and  O_4
REMARK    4  A    between atoms: O_4  and  C_5
REMARK    5  A    between atoms: C_8  and  C_11
REMARK    6  A    between atoms: C_14  and  C_15
REMARK    7  A    between atoms: C_18  and  O_21
REMARK    8  A    between atoms: O_21  and  C_22
REMARK                            x       y       z     vdW  Elec       q    Type
REMARK                         _______ _______ _______ _____ _____    ______ ____
ROOT
ATOM      1  C   UNL     1       0.281  -0.043   0.031  0.00  0.00    +0.232 C 
ATOM      2  N   UNL     1       0.314   1.195   0.443  0.00  0.00    -0.205 NA
ATOM      3  C   UNL     1       1.548   1.718   0.188  0.00  0.00    +0.152 C 
ATOM      4  C   UNL     1       1.989   2.994   0.469  0.00  0.00    +0.043 C 
ATOM      5  C   UNL     1       2.311   0.631  -0.452  0.00  0.00    +0.364 C 
ATOM      6  O   UNL     1       3.461   0.668  -0.845  0.00  0.00    -0.243 OA
ATOM      7  O   UNL     1       1.458  -0.414  -0.510  0.00  0.00    -0.402 OA
ENDROOT
BRANCH   1  11
ATOM      8  C   UNL     1      -3.108  -2.580   0.353  0.00  0.00    +0.121 A 
ATOM      9  C   UNL     1      -1.937  -3.058  -0.222  0.00  0.00    +0.046 A 
ATOM     10  C   UNL     1      -0.835  -2.239  -0.328  0.00  0.00    +0.017 A 
ATOM     11  C   UNL     1      -0.896  -0.924   0.143  0.00  0.00    +0.037 A 
ATOM     12  C   UNL     1      -2.074  -0.449   0.726  0.00  0.00    +0.017 A 
ATOM     13  C   UNL     1      -3.173  -1.274   0.823  0.00  0.00    +0.046 A 
BRANCH   8  14
ATOM     14  O   UNL     1      -4.192  -3.391   0.456  0.00  0.00    -0.489 OA
BRANCH  14  16
ATOM     15  C   UNL     1      -5.009  -5.634   0.836  0.00  0.00    +0.051 C 
ATOM     16  C   UNL     1      -4.021  -4.755   0.066  0.00  0.00    +0.167 C 
ATOM     17  C   UNL     1      -4.279  -4.893  -1.435  0.00  0.00    +0.051 C 
ENDBRANCH  14  16
ENDBRANCH   8  14
ENDBRANCH   1  11
BRANCH   4  18
ATOM     18  C   UNL     1       3.404   3.333   0.304  0.00  0.00    -0.023 A 
ATOM     19  C   UNL     1       4.396   2.420   0.690  0.00  0.00    +0.011 A 
ATOM     20  C   UNL     1       5.720   2.741   0.528  0.00  0.00    +0.046 A 
ATOM     21  C   UNL     1       6.078   3.974  -0.008  0.00  0.00    +0.127 A 
ATOM     22  C   UNL     1       5.099   4.886  -0.387  0.00  0.00    +0.046 A 
ATOM     23  C   UNL     1       3.772   4.574  -0.236  0.00  0.00    +0.011 A 
BRANCH  21  24
ATOM     24  O   UNL     1       7.390   4.288  -0.160  0.00  0.00    -0.434 OA
BRANCH  24  25
ATOM     25  C   UNL     1       8.344   3.307   0.250  0.00  0.00    +0.541 C 
ATOM     26  F   UNL     1       8.179   3.036   1.612  0.00  0.00    -0.166 F 
ATOM     27  F   UNL     1       8.151   2.132  -0.486  0.00  0.00    -0.166 F 
ENDBRANCH  24  25
ENDBRANCH  21  24
ENDBRANCH   4  18
TORSDOF 6
