REMARK  Name = ZINC62789310
REMARK  3 active torsions:
REMARK  status: ('A' for Active; 'I' for Inactive)
REMARK    1  A    between atoms: N_9  and  C_10
REMARK    2  A    between atoms: C_15  and  C_16
REMARK    3  A    between atoms: N_17  and  O_18
REMARK                            x       y       z     vdW  Elec       q    Type
REMARK                         _______ _______ _______ _____ _____    ______ ____
ROOT
ATOM      1  C   UNL     1       4.829  -0.362  -0.055  0.00  0.00    +0.046 A 
ATOM      2  C   UNL     1       5.485  -0.065   1.132  0.00  0.00    +0.044 A 
ATOM      3  C   UNL     1       6.826   0.267   1.117  0.00  0.00    +0.043 A 
ATOM      4  C   UNL     1       7.524   0.307  -0.081  0.00  0.00    +0.021 A 
ATOM      5  C   UNL     1       6.886   0.015  -1.268  0.00  0.00    +0.015 A 
ATOM      6  C   UNL     1       5.534  -0.328  -1.266  0.00  0.00    +0.039 A 
ATOM      7 CL   UNL     1       7.641   0.637   2.604  0.00  0.00    -0.083 Cl
ENDROOT
BRANCH   1  16
ATOM      8  C   UNL     1       0.077   1.708  -0.008  0.00  0.00    +0.000 A 
ATOM      9  C   UNL     1       1.302   2.351  -0.019  0.00  0.00    +0.002 A 
ATOM     10  C   UNL     1       2.469   1.619  -0.031  0.00  0.00    +0.024 A 
ATOM     11  C   UNL     1       2.425   0.222  -0.031  0.00  0.00    +0.037 A 
ATOM     12  C   UNL     1       1.193  -0.412  -0.020  0.00  0.00    -0.025 A 
ATOM     13  C   UNL     1       0.025   0.327  -0.008  0.00  0.00    +0.005 A 
ATOM     14  C   UNL     1       1.421  -1.907  -0.022  0.00  0.00    +0.056 C 
ATOM     15  C   UNL     1       2.950  -2.064  -0.037  0.00  0.00    +0.116 C 
ATOM     16  N   UNL     1       3.477  -0.696  -0.042  0.00  0.00    -0.299 N 
ENDBRANCH   1  16
BRANCH   6  17
ATOM     17  C   UNL     1       4.847  -0.647  -2.535  0.00  0.00    +0.164 C 
ATOM     18  N   UNL     1       5.307  -1.592  -3.304  0.00  0.00    -0.071 NA
ATOM     19  N   UNL     1       3.714   0.058  -2.906  0.00  0.00    -0.340 N 
ATOM     20  H   UNL     1       3.372   0.761  -2.333  0.00  0.00    +0.144 HD
ATOM     21  H   UNL     1       3.263  -0.152  -3.739  0.00  0.00    +0.144 HD
BRANCH  18  22
ATOM     22  O   UNL     1       6.393  -2.391  -2.872  0.00  0.00    -0.408 OA
ATOM     23  H   UNL     1       6.615  -3.113  -3.476  0.00  0.00    +0.328 HD
ENDBRANCH  18  22
ENDBRANCH   6  17
TORSDOF 3
