REMARK  Name = ZINC62056868
REMARK  4 active torsions:
REMARK  status: ('A' for Active; 'I' for Inactive)
REMARK    1  A    between atoms: C_1  and  O_2
REMARK    2  A    between atoms: O_2  and  C_3
REMARK    3  A    between atoms: C_5  and  C_9
REMARK    4  A    between atoms: C_9  and  N_10
REMARK                            x       y       z     vdW  Elec       q    Type
REMARK                         _______ _______ _______ _____ _____    ______ ____
ROOT
ATOM      1  N   UNL     1       0.161  -4.589  -3.031  0.00  0.00    -0.305 N 
ATOM      2  C   UNL     1      -1.050  -4.958  -2.466  0.00  0.00    +0.109 A 
ATOM      3  C   UNL     1      -1.871  -5.362  -3.531  0.00  0.00    +0.094 A 
ATOM      4  C   UNL     1      -3.173  -5.796  -3.272  0.00  0.00    +0.033 A 
ATOM      5  C   UNL     1      -3.641  -5.824  -1.976  0.00  0.00    +0.043 A 
ATOM      6  C   UNL     1      -2.827  -5.424  -0.925  0.00  0.00    +0.161 A 
ATOM      7  C   UNL     1      -1.535  -4.992  -1.166  0.00  0.00    +0.184 A 
ATOM      8  F   UNL     1      -0.748  -4.604  -0.139  0.00  0.00    -0.200 F 
ATOM      9  F   UNL     1      -3.300  -5.457   0.340  0.00  0.00    -0.202 F 
ATOM     10  N   UNL     1      -1.142  -5.226  -4.671  0.00  0.00    -0.215 NA
ATOM     11  C   UNL     1       0.049  -4.766  -4.380  0.00  0.00    +0.194 A 
ATOM     12  N   UNL     1       1.044  -4.504  -5.299  0.00  0.00    -0.329 N 
ATOM     13  H   UNL     1       1.903  -4.166  -5.001  0.00  0.00    +0.145 HD
ATOM     14  H   UNL     1       0.884  -4.657  -6.243  0.00  0.00    +0.145 HD
ENDROOT
BRANCH   1  15
ATOM     15  C   UNL     1       1.339  -4.096  -2.314  0.00  0.00    +0.160 C 
BRANCH  15  18
ATOM     16  C   UNL     1       0.605  -0.606  -1.054  0.00  0.00    +0.215 A 
ATOM     17  C   UNL     1       0.651  -1.993  -1.121  0.00  0.00    +0.072 A 
ATOM     18  C   UNL     1       1.268  -2.595  -2.204  0.00  0.00    -0.021 A 
ATOM     19  C   UNL     1       1.820  -1.784  -3.186  0.00  0.00    +0.025 A 
ATOM     20  C   UNL     1       1.738  -0.412  -3.054  0.00  0.00    +0.115 A 
ATOM     21  N   UNL     1       1.138   0.133  -2.012  0.00  0.00    -0.221 NA
BRANCH  16  23
ATOM     22  C   UNL     1      -0.017   1.425   0.010  0.00  0.00    +0.279 C 
ATOM     23  O   UNL     1       0.002  -0.004   0.002  0.00  0.00    -0.480 OA
ENDBRANCH  16  23
ENDBRANCH  15  18
ENDBRANCH   1  15
TORSDOF 3
