REMARK  Name = ZINC44649555
REMARK  13 active torsions:
REMARK  status: ('A' for Active; 'I' for Inactive)
REMARK    1  A    between atoms: C_1  and  C_2
REMARK    2  A    between atoms: C_4  and  C_34
REMARK    3  A    between atoms: C_5  and  C_33
REMARK    4  A    between atoms: C_6  and  C_8
REMARK    5  A    between atoms: C_8  and  C_10
REMARK    6  A    between atoms: C_10  and  C_12
REMARK    7  A    between atoms: C_10  and  S_13
REMARK    8  A    between atoms: S_13  and  C_14
REMARK    9  A    between atoms: C_17  and  C_26
REMARK   10  A    between atoms: N_18  and  C_19
REMARK   11  A    between atoms: C_26  and  N_27
REMARK   12  A    between atoms: C_34  and  O_36
REMARK   13  A    between atoms: O_36  and  C_37
REMARK                            x       y       z     vdW  Elec       q    Type
REMARK                         _______ _______ _______ _____ _____    ______ ____
ROOT
ATOM      1  C   UNL     1       3.408  -3.024   5.392  0.00  0.00    +0.197 A 
ATOM      2  N   UNL     1       4.216  -2.040   5.072  0.00  0.00    -0.122 NA
ATOM      3  N   UNL     1       5.356  -2.207   5.640  0.00  0.00    -0.135 NA
ATOM      4  C   UNL     1       5.347  -3.299   6.352  0.00  0.00    +0.122 A 
ATOM      5  N   UNL     1       4.103  -3.857   6.225  0.00  0.00    -0.276 N 
ENDROOT
BRANCH   5   6
ATOM      6  C   UNL     1       3.639  -5.039   6.822  0.00  0.00    +0.050 A 
ATOM      7  C   UNL     1       3.508  -5.116   8.201  0.00  0.00    +0.029 A 
ATOM      8  C   UNL     1       3.051  -6.280   8.787  0.00  0.00    +0.040 A 
ATOM      9  C   UNL     1       2.723  -7.371   7.999  0.00  0.00    +0.124 A 
ATOM     10  C   UNL     1       2.853  -7.296   6.622  0.00  0.00    +0.040 A 
ATOM     11  C   UNL     1       3.305  -6.131   6.033  0.00  0.00    +0.029 A 
ATOM     12  F   UNL     1       2.276  -8.509   8.573  0.00  0.00    -0.205 F 
ENDBRANCH   5   6
BRANCH   1  13
ATOM     13  S   UNL     1       1.741  -3.227   4.858  0.00  0.00    -0.074 S 
BRANCH  13  14
ATOM     14  C   UNL     1       1.445  -1.793   3.787  0.00  0.00    +0.124 C 
ATOM     15  C   UNL     1       1.516  -0.512   4.620  0.00  0.00    +0.028 C 
BRANCH  14  16
ATOM     16  C   UNL     1       0.081  -1.909   3.158  0.00  0.00    +0.194 C 
ATOM     17  O   UNL     1      -0.782  -2.557   3.702  0.00  0.00    -0.289 OA
BRANCH  16  22
ATOM     18  C   UNL     1      -0.019   1.526   0.010  0.00  0.00    +0.038 C 
ATOM     19  C   UNL     1       0.002  -0.004   0.002  0.00  0.00    +0.140 C 
ATOM     20  C   UNL     1      -1.410  -0.546   0.041  0.00  0.00    +0.065 C 
ATOM     21  C   UNL     1      -1.496  -1.272   1.173  0.00  0.00    -0.010 C 
ATOM     22  C   UNL     1      -0.203  -1.226   1.873  0.00  0.00    +0.106 C 
ATOM     23  N   UNL     1       0.656  -0.509   1.215  0.00  0.00    -0.272 NA
ATOM     24  C   UNL     1      -2.720  -2.011   1.647  0.00  0.00    +0.046 C 
BRANCH  20  25
ATOM     25  C   UNL     1      -2.470  -0.326  -0.952  0.00  0.00    +0.337 C 
ATOM     26  O   UNL     1      -3.566  -0.826  -0.792  0.00  0.00    -0.245 OA
BRANCH  25  27
ATOM     27  O   UNL     1      -2.227   0.432  -2.041  0.00  0.00    -0.465 OA
ATOM     28  C   UNL     1      -3.304   0.604  -2.965  0.00  0.00    +0.280 C 
ENDBRANCH  25  27
ENDBRANCH  20  25
ENDBRANCH  16  22
ENDBRANCH  14  16
ENDBRANCH  13  14
ENDBRANCH   1  13
BRANCH   4  29
ATOM     29  C   UNL     1       6.491  -3.843   7.168  0.00  0.00    -0.001 C 
BRANCH  29  30
ATOM     30  N   UNL     1       6.421  -3.300   8.532  0.00  0.00    +0.384 N 
ATOM     31  C   UNL     1       6.620  -1.847   8.489  0.00  0.00    -0.078 C 
ATOM     32  C   UNL     1       6.468  -1.265   9.896  0.00  0.00    -0.019 C 
ATOM     33  C   UNL     1       7.513  -1.898  10.819  0.00  0.00    -0.004 C 
ATOM     34  C   UNL     1       7.343  -3.420  10.799  0.00  0.00    -0.019 C 
ATOM     35  C   UNL     1       7.463  -3.921   9.358  0.00  0.00    -0.078 C 
ATOM     36  H   UNL     1       5.515  -3.502   8.927  0.00  0.00    -0.081 HD
ENDBRANCH  29  30
ENDBRANCH   4  29
TORSDOF 9
