REMARK  Name = ZINC40346983
REMARK  5 active torsions:
REMARK  status: ('A' for Active; 'I' for Inactive)
REMARK    1  A    between atoms: C_5  and  C_6
REMARK    2  A    between atoms: C_6  and  N_7
REMARK    3  A    between atoms: N_7  and  S_8
REMARK    4  A    between atoms: S_8  and  C_11
REMARK    5  A    between atoms: C_12  and  N_19
REMARK                            x       y       z     vdW  Elec       q    Type
REMARK                         _______ _______ _______ _____ _____    ______ ____
ROOT
ATOM      1  S   UNL     1      -2.782  -3.066  -1.871  0.00  0.00    +0.062 S 
ATOM      2  O   UNL     1      -3.109  -3.078  -3.254  0.00  0.00    -0.153 OA
ATOM      3  O   UNL     1      -2.367  -4.234  -1.176  0.00  0.00    -0.153 OA
ENDROOT
BRANCH   1   4
ATOM      4  C   UNL     1      -4.200  -2.454  -1.023  0.00  0.00    +0.144 A 
ATOM      5  C   UNL     1      -4.369  -2.716   0.331  0.00  0.00    +0.054 A 
ATOM      6  C   UNL     1      -5.487  -2.232   0.996  0.00  0.00    +0.044 A 
ATOM      7  C   UNL     1      -6.430  -1.489   0.309  0.00  0.00    +0.044 A 
ATOM      8  C   UNL     1      -6.260  -1.230  -1.039  0.00  0.00    +0.042 A 
ATOM      9  C   UNL     1      -5.144  -1.707  -1.703  0.00  0.00    +0.070 A 
ATOM     10 CL   UNL     1      -4.931  -1.372  -3.393  0.00  0.00    -0.081 Cl
ATOM     11 CL   UNL     1      -7.829  -0.884   1.140  0.00  0.00    -0.083 Cl
BRANCH   5  12
ATOM     12  N   UNL     1      -3.414  -3.466   1.022  0.00  0.00    -0.356 N 
ATOM     13  H   UNL     1      -2.529  -3.591   0.644  0.00  0.00    +0.142 HD
ATOM     14  H   UNL     1      -3.637  -3.863   1.878  0.00  0.00    +0.142 HD
ENDBRANCH   5  12
ENDBRANCH   1   4
BRANCH   1  15
ATOM     15  N   UNL     1      -1.576  -1.948  -1.679  0.00  0.00    -0.185 NA
ATOM     16  H   UNL     1      -1.231  -1.470  -2.449  0.00  0.00    +0.148 HD
BRANCH  15  17
ATOM     17  C   UNL     1      -1.031  -1.679  -0.346  0.00  0.00    +0.148 C 
BRANCH  17  22
ATOM     18  C   UNL     1       0.476   0.413  -0.518  0.00  0.00    +0.013 A 
ATOM     19  C   UNL     1       1.769   0.887  -0.643  0.00  0.00    +0.023 A 
ATOM     20  C   UNL     1       2.790  -0.003  -0.719  0.00  0.00    +0.055 A 
ATOM     21  S   UNL     1       1.929  -1.563  -0.615  0.00  0.00    -0.085 S 
ATOM     22  C   UNL     1       0.267  -0.925  -0.476  0.00  0.00    +0.006 A 
ATOM     23 BR   UNL     1       4.644   0.325  -0.892  0.00  0.00    -0.043 Br
ENDBRANCH  17  22
ENDBRANCH  15  17
ENDBRANCH   1  15
TORSDOF 5
