REMARK  Name = ZINC22345565
REMARK  14 active torsions:
REMARK  status: ('A' for Active; 'I' for Inactive)
REMARK    1  A    between atoms: C_1  and  C_2
REMARK    2  A    between atoms: C_2  and  C_3
REMARK    3  A    between atoms: C_3  and  C_5
REMARK    4  A    between atoms: C_3  and  N_13
REMARK    5  A    between atoms: C_8  and  C_12
REMARK    6  A    between atoms: C_10  and  C_11
REMARK    7  A    between atoms: C_14  and  C_16
REMARK    8  A    between atoms: C_16  and  N_17
REMARK    9  A    between atoms: N_17  and  C_18
REMARK   10  A    between atoms: N_17  and  S_27
REMARK   11  A    between atoms: C_21  and  O_24
REMARK   12  A    between atoms: O_24  and  C_25
REMARK   13  A    between atoms: C_25  and  C_26
REMARK   14  A    between atoms: S_27  and  C_30
REMARK                            x       y       z     vdW  Elec       q    Type
REMARK                         _______ _______ _______ _____ _____    ______ ____
ROOT
ATOM      1  N   UNL     1       1.223  -2.923  -1.606  0.00  0.00    -0.194 N 
ENDROOT
BRANCH   1   2
ATOM      2  C   UNL     1       0.014  -3.243  -2.234  0.00  0.00    +0.052 A 
ATOM      3  C   UNL     1      -0.302  -2.678  -3.462  0.00  0.00    +0.028 A 
ATOM      4  C   UNL     1      -1.493  -3.000  -4.084  0.00  0.00    +0.047 A 
ATOM      5  C   UNL     1      -2.378  -3.877  -3.475  0.00  0.00    +0.121 A 
ATOM      6  C   UNL     1      -2.066  -4.437  -2.245  0.00  0.00    +0.047 A 
ATOM      7  C   UNL     1      -0.873  -4.122  -1.625  0.00  0.00    +0.028 A 
BRANCH   5   8
ATOM      8  O   UNL     1      -3.554  -4.188  -4.085  0.00  0.00    -0.492 OA
BRANCH   8   9
ATOM      9  C   UNL     1      -3.811  -3.574  -5.350  0.00  0.00    +0.225 C 
ATOM     10  C   UNL     1      -5.169  -4.041  -5.876  0.00  0.00    +0.048 C 
ENDBRANCH   8   9
ENDBRANCH   5   8
ENDBRANCH   1   2
BRANCH   1  11
ATOM     11  S   UNL     1       1.217  -2.213  -0.110  0.00  0.00    +0.075 S 
ATOM     12  O   UNL     1       2.413  -2.623   0.539  0.00  0.00    -0.150 OA
ATOM     13  O   UNL     1      -0.070  -2.448   0.446  0.00  0.00    -0.150 OA
BRANCH  11  14
ATOM     14  C   UNL     1       1.349  -0.474  -0.357  0.00  0.00    +0.109 A 
ATOM     15  C   UNL     1       0.207   0.293  -0.500  0.00  0.00    +0.030 A 
ATOM     16  C   UNL     1       0.310   1.657  -0.693  0.00  0.00    +0.022 A 
ATOM     17  C   UNL     1       1.556   2.256  -0.746  0.00  0.00    +0.041 A 
ATOM     18  C   UNL     1       2.698   1.489  -0.605  0.00  0.00    +0.022 A 
ATOM     19  C   UNL     1       2.594   0.124  -0.410  0.00  0.00    +0.030 A 
ATOM     20 CL   UNL     1       1.686   3.970  -0.990  0.00  0.00    -0.084 Cl
ENDBRANCH  11  14
ENDBRANCH   1  11
BRANCH   1  21
ATOM     21  C   UNL     1       2.494  -3.215  -2.273  0.00  0.00    +0.227 C 
BRANCH  21  23
ATOM     22  N   UNL     1       4.036  -5.135  -2.507  0.00  0.00    -0.307 N 
ATOM     23  C   UNL     1       2.893  -4.641  -1.992  0.00  0.00    +0.233 C 
ATOM     24  O   UNL     1       2.185  -5.344  -1.302  0.00  0.00    -0.274 OA
ATOM     25  H   UNL     1       4.678  -4.497  -3.132  0.00  0.00    +0.149 HD
BRANCH  22  26
ATOM     26  C   UNL     1       4.424  -6.521  -2.233  0.00  0.00    +0.103 C 
BRANCH  26  27
ATOM     27  C   UNL     1       5.324  -7.018  -3.336  0.00  0.00    -0.024 A 
ATOM     28  C   UNL     1       6.065  -6.119  -4.080  0.00  0.00    +0.006 A 
ATOM     29  C   UNL     1       6.890  -6.575  -5.091  0.00  0.00    +0.004 A 
ATOM     30  C   UNL     1       6.974  -7.929  -5.357  0.00  0.00    -0.050 A 
ATOM     31  C   UNL     1       6.234  -8.827  -4.612  0.00  0.00    +0.007 A 
ATOM     32  C   UNL     1       5.411  -8.372  -3.598  0.00  0.00    -0.045 A 
ATOM     33  C   UNL     1       4.608  -9.351  -2.783  0.00  0.00    +0.044 C 
ATOM     34  C   UNL     1       7.874  -8.426  -6.460  0.00  0.00    +0.044 C 
ENDBRANCH  26  27
BRANCH  26  36
ATOM     35  C   UNL     1       4.216  -6.203   0.236  0.00  0.00    +0.006 C 
ATOM     36  C   UNL     1       5.168  -6.589  -0.898  0.00  0.00    +0.024 C 
ENDBRANCH  26  36
ENDBRANCH  22  26
ENDBRANCH  21  23
ENDBRANCH   1  21
TORSDOF 10
