REMARK  Name = ZINC43743798
REMARK  6 active torsions:
REMARK  status: ('A' for Active; 'I' for Inactive)
REMARK    1  A    between atoms: C_1  and  C_2
REMARK    2  A    between atoms: C_19  and  C_21
REMARK    3  A    between atoms: C_21  and  N_22
REMARK    4  A    between atoms: C_25  and  C_28
REMARK    5  A    between atoms: C_25  and  O_35
REMARK    6  A    between atoms: C_28  and  C_29
REMARK                            x       y       z     vdW  Elec       q    Type
REMARK                         _______ _______ _______ _____ _____    ______ ____
ROOT
ATOM      1  C   UNL     1      -1.810  -2.068   4.257  0.00  0.00    -0.064 C 
ENDROOT
BRANCH   1  17
ATOM      2  C   UNL     1      -0.019   1.526   0.010  0.00  0.00    +0.012 C 
ATOM      3  C   UNL     1       0.002  -0.004   0.002  0.00  0.00    -0.022 C 
ATOM      4  C   UNL     1       0.719  -0.500  -1.252  0.00  0.00    +0.007 C 
ATOM      5  C   UNL     1       2.124   0.103  -1.315  0.00  0.00    +0.005 C 
ATOM      6  C   UNL     1       2.947  -0.385  -0.119  0.00  0.00    +0.030 C 
ATOM      7  C   UNL     1       2.187  -0.074   1.153  0.00  0.00    -0.073 C 
ATOM      8  C   UNL     1       2.762   0.560   2.144  0.00  0.00    +0.008 C 
ATOM      9  C   UNL     1       0.744  -0.516   1.245  0.00  0.00    +0.021 C 
ATOM     10  C   UNL     1       0.093   0.123   2.471  0.00  0.00    +0.016 C 
ATOM     11  C   UNL     1      -1.368  -0.240   2.570  0.00  0.00    +0.042 C 
ATOM     12  C   UNL     1      -2.163   0.002   1.272  0.00  0.00    +0.181 C 
ATOM     13  C   UNL     1      -1.427  -0.535   0.053  0.00  0.00    +0.052 C 
ATOM     14  O   UNL     1      -3.312  -0.866   1.477  0.00  0.00    -0.461 OA
ATOM     15  C   UNL     1      -2.858  -2.029   1.992  0.00  0.00    +0.309 C 
ATOM     16  O   UNL     1      -3.372  -3.112   1.845  0.00  0.00    -0.251 OA
ATOM     17  C   UNL     1      -1.595  -1.750   2.775  0.00  0.00    +0.088 C 
ENDBRANCH   1  17
BRANCH   1  18
ATOM     18  N   UNL     1      -1.903  -3.523   4.437  0.00  0.00    +0.380 N 
ATOM     19  C   UNL     1      -0.621  -4.142   4.080  0.00  0.00    -0.076 C 
ATOM     20  C   UNL     1      -0.737  -5.664   4.189  0.00  0.00    +0.016 C 
ATOM     21  C   UNL     1      -1.106  -6.041   5.626  0.00  0.00    +0.067 C 
ATOM     22  C   UNL     1      -2.406  -5.330   6.013  0.00  0.00    +0.016 C 
ATOM     23  C   UNL     1      -2.228  -3.821   5.837  0.00  0.00    -0.076 C 
ATOM     24  H   UNL     1      -2.629  -3.889   3.839  0.00  0.00    -0.082 HD
BRANCH  21  25
ATOM     25  O   UNL     1      -0.059  -5.635   6.510  0.00  0.00    -0.388 OA
ATOM     26  H   UNL     1      -0.226  -5.843   7.440  0.00  0.00    +0.210 HD
ENDBRANCH  21  25
BRANCH  21  27
ATOM     27  C   UNL     1      -1.302  -7.555   5.724  0.00  0.00    +0.069 C 
BRANCH  27  28
ATOM     28  C   UNL     1      -1.784  -7.912   7.106  0.00  0.00    -0.045 A 
ATOM     29  C   UNL     1      -0.870  -8.193   8.105  0.00  0.00    +0.004 A 
ATOM     30  C   UNL     1      -1.312  -8.520   9.374  0.00  0.00    +0.000 A 
ATOM     31  C   UNL     1      -2.667  -8.565   9.643  0.00  0.00    +0.000 A 
ATOM     32  C   UNL     1      -3.580  -8.283   8.645  0.00  0.00    +0.000 A 
ATOM     33  C   UNL     1      -3.139  -7.952   7.378  0.00  0.00    +0.004 A 
ENDBRANCH  27  28
ENDBRANCH  21  27
ENDBRANCH   1  18
TORSDOF 5
