REMARK  Name = ZINC37946308
REMARK  7 active torsions:
REMARK  status: ('A' for Active; 'I' for Inactive)
REMARK    1  A    between atoms: C_1  and  C_2
REMARK    2  A    between atoms: C_2  and  C_3
REMARK    3  A    between atoms: C_2  and  C_4
REMARK    4  A    between atoms: C_4  and  N_5
REMARK    5  A    between atoms: N_5  and  C_6
REMARK    6  A    between atoms: C_6  and  C_8
REMARK    7  A    between atoms: C_6  and  C_19
REMARK                            x       y       z     vdW  Elec       q    Type
REMARK                         _______ _______ _______ _____ _____    ______ ____
ROOT
ATOM      1  C   UNL     1      -3.485  -0.656  -1.224  0.00  0.00    +0.047 C 
ENDROOT
BRANCH   1   2
ATOM      2  C   UNL     1      -4.214  -0.157  -2.444  0.00  0.00    -0.048 A 
ATOM      3  C   UNL     1      -5.529   0.257  -2.342  0.00  0.00    +0.052 A 
ATOM      4  C   UNL     1      -6.203   0.717  -3.463  0.00  0.00    +0.163 A 
ATOM      5  C   UNL     1      -5.551   0.764  -4.690  0.00  0.00    +0.176 A 
ATOM      6  C   UNL     1      -4.232   0.347  -4.787  0.00  0.00    +0.063 A 
ATOM      7  C   UNL     1      -3.565  -0.107  -3.663  0.00  0.00    +0.021 A 
ATOM      8 BR   UNL     1      -3.342   0.405  -6.455  0.00  0.00    -0.046 Br
ATOM      9  O   UNL     1      -6.191   1.219  -5.802  0.00  0.00    -0.484 OA
ATOM     10  C   UNL     1      -7.621   1.277  -5.743  0.00  0.00    +0.270 C 
ATOM     11  C   UNL     1      -8.022   1.921  -4.409  0.00  0.00    +0.270 C 
ATOM     12  O   UNL     1      -7.499   1.116  -3.347  0.00  0.00    -0.485 OA
ENDBRANCH   1   2
BRANCH   1  13
ATOM     13  C   UNL     1      -3.465  -2.163  -1.232  0.00  0.00    +0.201 C 
ATOM     14  O   UNL     1      -2.407  -2.755  -1.245  0.00  0.00    -0.277 OA
ATOM     15  N   UNL     1      -4.623  -2.852  -1.224  0.00  0.00    -0.330 N 
ATOM     16  H   UNL     1      -5.469  -2.379  -1.214  0.00  0.00    +0.145 HD
ATOM     17  H   UNL     1      -4.610  -3.822  -1.230  0.00  0.00    +0.145 HD
ENDBRANCH   1  13
BRANCH   1  18
ATOM     18  N   UNL     1      -2.107  -0.147  -1.234  0.00  0.00    +0.389 N 
ATOM     19  H   UNL     1      -2.120   0.859  -1.311  0.00  0.00    -0.084 HD
ATOM     20  H   UNL     1      -1.610  -0.539  -2.020  0.00  0.00    -0.084 HD
BRANCH  18  21
ATOM     21  C   UNL     1      -1.433  -0.534   0.013  0.00  0.00    -0.078 C 
BRANCH  21  23
ATOM     22  C   UNL     1      -0.019   1.526   0.010  0.00  0.00    +0.005 C 
ATOM     23  C   UNL     1       0.002  -0.004   0.002  0.00  0.00    -0.034 C 
ATOM     24  C   UNL     1       0.742  -0.511   1.242  0.00  0.00    +0.005 C 
ENDBRANCH  21  23
ENDBRANCH  18  21
ENDBRANCH   1  18
TORSDOF 5
