REMARK  Name = ZINC38889879
REMARK  12 active torsions:
REMARK  status: ('A' for Active; 'I' for Inactive)
REMARK    1  A    between atoms: C_1  and  C_2
REMARK    2  A    between atoms: C_5  and  C_8
REMARK    3  A    between atoms: C_10  and  C_13
REMARK    4  A    between atoms: C_13  and  N_14
REMARK    5  A    between atoms: C_18  and  C_21
REMARK    6  A    between atoms: N_23  and  C_24
REMARK    7  A    between atoms: C_24  and  C_25
REMARK    8  A    between atoms: C_24  and  C_28
REMARK    9  A    between atoms: C_25  and  C_26
REMARK   10  A    between atoms: C_25  and  C_27
REMARK   11  A    between atoms: C_28  and  C_29
REMARK   12  A    between atoms: C_28  and  C_30
REMARK                            x       y       z     vdW  Elec       q    Type
REMARK                         _______ _______ _______ _____ _____    ______ ____
ROOT
ATOM      1  N   UNL     1      -0.012  -7.607   3.493  0.00  0.00    +0.386 N 
ATOM      2  C   UNL     1      -0.341  -7.910   2.095  0.00  0.00    -0.078 C 
ATOM      3  C   UNL     1      -1.841  -8.188   1.969  0.00  0.00    -0.018 C 
ATOM      4  C   UNL     1      -2.208  -9.384   2.853  0.00  0.00    +0.009 C 
ATOM      5  C   UNL     1      -1.792  -9.087   4.296  0.00  0.00    +0.058 C 
ATOM      6  C   UNL     1      -0.294  -8.775   4.336  0.00  0.00    -0.065 C 
ATOM      7  H   UNL     1      -0.568  -6.825   3.806  0.00  0.00    -0.081 HD
ENDROOT
BRANCH   5   8
ATOM      8  C   UNL     1      -2.080 -10.287   5.160  0.00  0.00    +0.215 C 
ATOM      9  O   UNL     1      -1.177 -10.838   5.753  0.00  0.00    -0.276 OA
ATOM     10  N   UNL     1      -3.341 -10.749   5.274  0.00  0.00    -0.312 N 
ATOM     11  H   UNL     1      -4.064 -10.308   4.800  0.00  0.00    +0.149 HD
BRANCH  10  12
ATOM     12  C   UNL     1      -3.621 -11.916   6.114  0.00  0.00    +0.078 C 
BRANCH  12  13
ATOM     13  C   UNL     1      -5.078 -11.871   6.580  0.00  0.00    +0.003 C 
ATOM     14  C   UNL     1      -5.347 -13.043   7.527  0.00  0.00    +0.009 C 
ATOM     15  C   UNL     1      -5.339 -10.553   7.312  0.00  0.00    +0.009 C 
ENDBRANCH  12  13
BRANCH  12  16
ATOM     16  C   UNL     1      -3.383 -13.194   5.308  0.00  0.00    +0.003 C 
ATOM     17  C   UNL     1      -4.204 -13.144   4.018  0.00  0.00    +0.009 C 
ATOM     18  C   UNL     1      -1.897 -13.309   4.962  0.00  0.00    +0.009 C 
ENDBRANCH  12  16
ENDBRANCH  10  12
ENDBRANCH   5   8
BRANCH   1  19
ATOM     19  C   UNL     1       1.413  -7.265   3.595  0.00  0.00    +0.022 C 
BRANCH  19  22
ATOM     20  C   UNL     1       1.917  -3.891   2.354  0.00  0.00    +0.202 A 
ATOM     21  N   UNL     1       1.617  -4.787   3.312  0.00  0.00    -0.193 NA
ATOM     22  C   UNL     1       1.681  -5.995   2.829  0.00  0.00    +0.211 A 
ATOM     23  O   UNL     1       2.025  -5.918   1.537  0.00  0.00    -0.340 OA
ATOM     24  N   UNL     1       2.170  -4.536   1.243  0.00  0.00    -0.056 NA
BRANCH  20  29
ATOM     25  C   UNL     1       2.038   1.828   3.022  0.00  0.00    +0.044 C 
ATOM     26  C   UNL     1       2.007   0.332   2.847  0.00  0.00    -0.050 A 
ATOM     27  C   UNL     1       2.297  -0.224   1.615  0.00  0.00    +0.004 A 
ATOM     28  C   UNL     1       2.269  -1.594   1.449  0.00  0.00    +0.012 A 
ATOM     29  C   UNL     1       1.948  -2.417   2.527  0.00  0.00    +0.022 A 
ATOM     30  C   UNL     1       1.657  -1.852   3.766  0.00  0.00    +0.012 A 
ATOM     31  C   UNL     1       1.693  -0.481   3.922  0.00  0.00    +0.004 A 
ENDBRANCH  20  29
ENDBRANCH  19  22
ENDBRANCH   1  19
TORSDOF 7
