REMARK  Name = ZINC13235787
REMARK  9 active torsions:
REMARK  status: ('A' for Active; 'I' for Inactive)
REMARK    1  A    between atoms: C_3  and  C_7
REMARK    2  A    between atoms: C_7  and  N_8
REMARK    3  A    between atoms: N_8  and  C_9
REMARK    4  A    between atoms: C_17  and  C_19
REMARK    5  A    between atoms: C_19  and  S_20
REMARK    6  A    between atoms: S_20  and  C_21
REMARK    7  A    between atoms: C_25  and  C_28
REMARK    8  A    between atoms: C_28  and  C_29
REMARK    9  A    between atoms: C_29  and  C_30
REMARK                            x       y       z     vdW  Elec       q    Type
REMARK                         _______ _______ _______ _____ _____    ______ ____
ROOT
ATOM      1  N   UNL     1       4.045  -0.598  -1.370  0.00  0.00    -0.294 N 
ATOM      2  C   UNL     1       3.910  -1.888  -1.004  0.00  0.00    +0.226 C 
ATOM      3  O   UNL     1       3.429  -2.165   0.074  0.00  0.00    -0.275 OA
ENDROOT
BRANCH   1   4
ATOM      4  C   UNL     1       4.732  -0.259  -2.619  0.00  0.00    +0.099 C 
ATOM      5  C   UNL     1       3.808   0.607  -3.491  0.00  0.00    +0.046 C 
ATOM      6  C   UNL     1       4.656   1.208  -4.648  0.00  0.00    +0.168 C 
ATOM      7  S   UNL     1       6.202   1.639  -3.744  0.00  0.00    -0.029 S 
ATOM      8  O   UNL     1       6.117   2.985  -3.297  0.00  0.00    -0.174 OA
ATOM      9  O   UNL     1       7.321   1.229  -4.519  0.00  0.00    -0.174 OA
ATOM     10  C   UNL     1       6.031   0.517  -2.297  0.00  0.00    +0.188 C 
ENDBRANCH   1   4
BRANCH   1  11
ATOM     11  C   UNL     1       3.505   0.465  -0.519  0.00  0.00    +0.139 C 
BRANCH  11  14
ATOM     12  C   UNL     1      -0.071   1.406   0.060  0.00  0.00    +0.031 C 
ATOM     13  C   UNL     1       1.433   1.796   0.048  0.00  0.00    +0.035 C 
ATOM     14  C   UNL     1       2.022   0.667  -0.836  0.00  0.00    +0.136 C 
ATOM     15  O   UNL     1       1.272  -0.508  -0.491  0.00  0.00    -0.375 OA
ATOM     16  C   UNL     1      -0.009  -0.136   0.030  0.00  0.00    +0.160 C 
ENDBRANCH  11  14
ENDBRANCH   1  11
BRANCH   2  17
ATOM     17  C   UNL     1       4.358  -2.986  -1.934  0.00  0.00    +0.173 C 
BRANCH  17  18
ATOM     18  S   UNL     1       3.913  -4.596  -1.226  0.00  0.00    -0.075 S 
BRANCH  18  19
ATOM     19  C   UNL     1       4.496  -5.759  -2.415  0.00  0.00    +0.213 A 
ATOM     20  N   UNL     1       4.326  -7.058  -2.200  0.00  0.00    -0.180 NA
ATOM     21  C   UNL     1       4.767  -7.931  -3.099  0.00  0.00    +0.296 A 
ATOM     22  O   UNL     1       4.607  -9.263  -2.907  0.00  0.00    -0.264 OA
ATOM     23  C   UNL     1       5.398  -7.449  -4.247  0.00  0.00    +0.130 A 
ATOM     24  N   UNL     1       5.538  -6.146  -4.406  0.00  0.00    -0.146 NA
ATOM     25  N   UNL     1       5.095  -5.327  -3.518  0.00  0.00    -0.122 NA
BRANCH  23  26
ATOM     26  C   UNL     1       5.914  -8.404  -5.292  0.00  0.00    +0.074 C 
BRANCH  26  27
ATOM     27  C   UNL     1       4.816  -8.674  -6.323  0.00  0.00    +0.131 C 
BRANCH  27  28
ATOM     28  C   UNL     1       5.331  -9.629  -7.368  0.00  0.00    +0.356 C 
ATOM     29  O   UNL     1       6.471 -10.055  -7.295  0.00  0.00    -0.246 OA
ATOM     30  O   UNL     1       4.608  -9.976  -8.286  0.00  0.00    -0.246 OA
ENDBRANCH  27  28
ENDBRANCH  26  27
ENDBRANCH  23  26
ENDBRANCH  18  19
ENDBRANCH  17  18
ENDBRANCH   2  17
TORSDOF 9
