REMARK  Name = ZINC41512151
REMARK  8 active torsions:
REMARK  status: ('A' for Active; 'I' for Inactive)
REMARK    1  A    between atoms: C_1  and  C_2
REMARK    2  A    between atoms: C_4  and  O_31
REMARK    3  A    between atoms: C_5  and  C_22
REMARK    4  A    between atoms: C_11  and  C_12
REMARK    5  A    between atoms: C_17  and  O_18
REMARK    6  A    between atoms: O_18  and  C_19
REMARK    7  A    between atoms: C_22  and  N_23
REMARK    8  A    between atoms: C_27  and  C_30
REMARK                            x       y       z     vdW  Elec       q    Type
REMARK                         _______ _______ _______ _____ _____    ______ ____
ROOT
ATOM      1  C   UNL     1      -1.788   1.414   0.326  0.00  0.00    +0.045 C 
ATOM      2  C   UNL     1      -1.455  -0.053   0.235  0.00  0.00    -0.033 A 
ATOM      3  C   UNL     1      -1.587  -0.713  -0.954  0.00  0.00    +0.050 A 
ATOM      4  C   UNL     1      -1.279  -2.067  -1.040  0.00  0.00    +0.122 A 
ATOM      5  C   UNL     1      -0.836  -2.762   0.074  0.00  0.00    +0.020 A 
ATOM      6  C   UNL     1      -0.695  -2.106   1.291  0.00  0.00    +0.145 A 
ATOM      7  C   UNL     1      -1.004  -0.738   1.364  0.00  0.00    +0.071 A 
ATOM      8  C   UNL     1      -0.754  -0.330   2.758  0.00  0.00    +0.232 C 
ATOM      9  O   UNL     1      -0.900   0.776   3.250  0.00  0.00    -0.283 OA
ATOM     10  C   UNL     1      -0.288  -1.555   3.424  0.00  0.00    +0.176 C 
ATOM     11  C   UNL     1       0.068  -1.674   4.729  0.00  0.00    +0.061 C 
ATOM     12  O   UNL     1      -0.289  -2.547   2.501  0.00  0.00    -0.451 OA
ENDROOT
BRANCH  11  13
ATOM     13  C   UNL     1       0.169  -0.478   5.573  0.00  0.00    +0.021 A 
ATOM     14  C   UNL     1       0.758   0.690   5.074  0.00  0.00    +0.027 A 
ATOM     15  C   UNL     1       0.850   1.808   5.873  0.00  0.00    +0.019 A 
ATOM     16  C   UNL     1       0.360   1.783   7.170  0.00  0.00    +0.019 A 
ATOM     17  C   UNL     1      -0.224   0.638   7.676  0.00  0.00    +0.047 A 
ATOM     18  C   UNL     1      -0.331  -0.496   6.886  0.00  0.00    +0.127 A 
ATOM     19 BR   UNL     1       1.647   3.385   5.199  0.00  0.00    -0.050 Br
BRANCH  18  20
ATOM     20  O   UNL     1      -0.909  -1.619   7.380  0.00  0.00    -0.495 OA
ATOM     21  C   UNL     1      -1.394  -1.562   8.724  0.00  0.00    +0.277 C 
ENDBRANCH  18  20
ENDBRANCH  11  13
BRANCH   4  22
ATOM     22  O   UNL     1      -1.414  -2.714  -2.226  0.00  0.00    -0.506 OA
ATOM     23  H   UNL     1      -0.619  -2.698  -2.776  0.00  0.00    +0.292 HD
ENDBRANCH   4  22
BRANCH   5  24
ATOM     24  C   UNL     1      -0.506  -4.228  -0.034  0.00  0.00    -0.036 C 
BRANCH  24  25
ATOM     25  N   UNL     1       0.910  -4.387  -0.392  0.00  0.00    +0.383 N 
ATOM     26  C   UNL     1       1.749  -3.871   0.696  0.00  0.00    -0.078 C 
ATOM     27  C   UNL     1       3.223  -3.959   0.295  0.00  0.00    -0.018 C 
ATOM     28  C   UNL     1       3.584  -5.421   0.019  0.00  0.00    -0.001 C 
ATOM     29  C   UNL     1       2.654  -5.971  -1.066  0.00  0.00    -0.031 C 
ATOM     30  C   UNL     1       1.201  -5.808  -0.614  0.00  0.00    -0.075 C 
ATOM     31  C   UNL     1       2.955  -7.454  -1.295  0.00  0.00    +0.005 C 
ATOM     32  H   UNL     1       1.102  -3.869  -1.236  0.00  0.00    -0.081 HD
ENDBRANCH  24  25
ENDBRANCH   5  24
TORSDOF 5
