REMARK  Name = ZINC32622190
REMARK  8 active torsions:
REMARK  status: ('A' for Active; 'I' for Inactive)
REMARK    1  A    between atoms: C_1  and  C_2
REMARK    2  A    between atoms: C_2  and  C_3
REMARK    3  A    between atoms: C_6  and  C_9
REMARK    4  A    between atoms: C_9  and  C_11
REMARK    5  A    between atoms: C_9  and  N_27
REMARK    6  A    between atoms: C_11  and  N_12
REMARK    7  A    between atoms: C_13  and  C_15
REMARK    8  A    between atoms: C_17  and  C_20
REMARK                            x       y       z     vdW  Elec       q    Type
REMARK                         _______ _______ _______ _____ _____    ______ ____
ROOT
ATOM      1  C   UNL     1       5.000  -1.347  -0.484  0.00  0.00    +0.094 C 
ENDROOT
BRANCH   1   2
ATOM      2  N   UNL     1       3.873  -1.902  -1.236  0.00  0.00    -0.311 N 
ATOM      3  C   UNL     1       2.898  -1.089  -1.687  0.00  0.00    +0.266 C 
ATOM      4  O   UNL     1       2.953   0.105  -1.469  0.00  0.00    -0.268 OA
ATOM      5  H   UNL     1       3.823  -2.983  -1.434  0.00  0.00    +0.149 HD
BRANCH   3   6
ATOM      6  C   UNL     1       1.756  -1.651  -2.449  0.00  0.00    +0.168 A 
ATOM      7  C   UNL     1       0.657  -0.934  -2.988  0.00  0.00    +0.086 A 
ATOM      8  C   UNL     1      -0.102  -1.901  -3.588  0.00  0.00    +0.168 A 
ATOM      9  O   UNL     1       0.541  -3.064  -3.388  0.00  0.00    -0.354 OA
ATOM     10  N   UNL     1       1.562  -2.910  -2.760  0.00  0.00    -0.073 NA
BRANCH   8  11
ATOM     11  C   UNL     1      -1.373  -1.704  -4.316  0.00  0.00    +0.020 A 
ATOM     12  C   UNL     1      -1.922  -0.426  -4.435  0.00  0.00    +0.013 A 
ATOM     13  C   UNL     1      -3.106  -0.249  -5.121  0.00  0.00    +0.021 A 
ATOM     14  C   UNL     1      -3.755  -1.336  -5.681  0.00  0.00    +0.041 A 
ATOM     15  C   UNL     1      -3.218  -2.607  -5.560  0.00  0.00    +0.021 A 
ATOM     16  C   UNL     1      -2.033  -2.797  -4.882  0.00  0.00    +0.013 A 
ATOM     17 CL   UNL     1      -5.248  -1.106  -6.535  0.00  0.00    -0.084 Cl
ENDBRANCH   8  11
ENDBRANCH   3   6
ENDBRANCH   1   2
BRANCH   1  18
ATOM     18  C   UNL     1       5.865  -2.488   0.057  0.00  0.00    -0.020 C 
BRANCH  18  22
ATOM     19  C   UNL     1       9.482  -0.892   1.673  0.00  0.00    -0.048 A 
ATOM     20  C   UNL     1       9.514  -1.631   0.506  0.00  0.00    +0.004 A 
ATOM     21  C   UNL     1       8.343  -2.147  -0.018  0.00  0.00    +0.002 A 
ATOM     22  C   UNL     1       7.141  -1.925   0.627  0.00  0.00    -0.059 A 
ATOM     23  C   UNL     1       7.108  -1.182   1.792  0.00  0.00    +0.002 A 
ATOM     24  C   UNL     1       8.280  -0.669   2.318  0.00  0.00    +0.004 A 
BRANCH  19  26
ATOM     25  C   UNL     1      11.000   1.069   1.668  0.00  0.00    +0.009 C 
ATOM     26  C   UNL     1      10.758  -0.328   2.244  0.00  0.00    +0.032 C 
ENDBRANCH  19  26
ENDBRANCH  18  22
BRANCH  18  27
ATOM     27  N   UNL     1       5.131  -3.202   1.110  0.00  0.00    +0.385 N 
ATOM     28  C   UNL     1       3.922  -3.867   0.559  0.00  0.00    -0.078 C 
ATOM     29  C   UNL     1       3.599  -4.950   1.619  0.00  0.00    -0.020 C 
ATOM     30  C   UNL     1       5.000  -5.434   2.057  0.00  0.00    -0.020 C 
ATOM     31  C   UNL     1       5.956  -4.283   1.691  0.00  0.00    -0.078 C 
ATOM     32  H   UNL     1       4.873  -2.443   1.862  0.00  0.00    -0.081 HD
ENDBRANCH  18  27
ENDBRANCH   1  18
TORSDOF 7
