REMARK  Name = ZINC39710210
REMARK  11 active torsions:
REMARK  status: ('A' for Active; 'I' for Inactive)
REMARK    1  A    between atoms: C_1  and  C_2
REMARK    2  A    between atoms: C_9  and  C_14
REMARK    3  A    between atoms: C_14  and  C_16
REMARK    4  A    between atoms: C_14  and  N_26
REMARK    5  A    between atoms: N_21  and  C_22
REMARK    6  A    between atoms: C_22  and  C_23
REMARK    7  A    between atoms: C_22  and  C_24
REMARK    8  A    between atoms: C_22  and  C_25
REMARK    9  A    between atoms: N_29  and  C_32
REMARK   10  A    between atoms: C_36  and  C_39
REMARK   11  A    between atoms: C_37  and  C_38
REMARK                            x       y       z     vdW  Elec       q    Type
REMARK                         _______ _______ _______ _____ _____    ______ ____
ROOT
ATOM      1  C   UNL     1      -1.080  -4.770   3.495  0.00  0.00    -0.009 C 
ENDROOT
BRANCH   1  10
ATOM      2  C   UNL     1      -2.123  -8.507  -2.502  0.00  0.00    +0.044 C 
ATOM      3  C   UNL     1      -1.259  -7.909  -1.421  0.00  0.00    -0.050 A 
ATOM      4  C   UNL     1       0.003  -8.452  -1.177  0.00  0.00    +0.005 A 
ATOM      5  C   UNL     1       0.837  -7.967  -0.220  0.00  0.00    +0.024 A 
ATOM      6  C   UNL     1       0.451  -6.874   0.577  0.00  0.00    +0.040 A 
ATOM      7  N   UNL     1       1.277  -6.407   1.512  0.00  0.00    -0.285 N 
ATOM      8  C   UNL     1       0.977  -5.384   2.296  0.00  0.00    +0.223 C 
ATOM      9  O   UNL     1       1.773  -5.002   3.132  0.00  0.00    -0.275 OA
ATOM     10  C   UNL     1      -0.359  -4.692   2.147  0.00  0.00    +0.088 C 
ATOM     11  C   UNL     1      -1.303  -5.221   1.085  0.00  0.00    -0.006 C 
ATOM     12  C   UNL     1      -0.877  -6.281   0.341  0.00  0.00    -0.007 A 
ATOM     13  C   UNL     1      -1.722  -6.850  -0.709  0.00  0.00    +0.012 A 
ATOM     14  H   UNL     1       2.140  -6.836   1.624  0.00  0.00    +0.155 HD
ENDBRANCH   1  10
BRANCH   1  15
ATOM     15  N   UNL     1      -1.019  -6.146   4.005  0.00  0.00    +0.387 N 
ATOM     16  C   UNL     1      -2.129  -6.370   4.939  0.00  0.00    -0.059 C 
ATOM     17  C   UNL     1      -2.134  -7.836   5.383  0.00  0.00    +0.086 C 
ATOM     18  N   UNL     1      -0.807  -8.163   5.927  0.00  0.00    -0.333 N 
ATOM     19  C   UNL     1       0.376  -7.821   5.123  0.00  0.00    +0.086 C 
ATOM     20  C   UNL     1       0.263  -6.355   4.691  0.00  0.00    -0.059 C 
ATOM     21  H   UNL     1      -1.095  -6.793   3.234  0.00  0.00    -0.081 HD
BRANCH  18  22
ATOM     22  C   UNL     1      -0.674  -8.781   7.173  0.00  0.00    +0.033 A 
ATOM     23  C   UNL     1      -0.650 -10.168   7.263  0.00  0.00    +0.023 A 
ATOM     24  C   UNL     1      -0.518 -10.775   8.496  0.00  0.00    +0.002 A 
ATOM     25  C   UNL     1      -0.410 -10.006   9.640  0.00  0.00    +0.004 A 
ATOM     26  C   UNL     1      -0.434  -8.626   9.554  0.00  0.00    -0.046 A 
ATOM     27  C   UNL     1      -0.560  -8.011   8.323  0.00  0.00    -0.027 A 
ATOM     28  C   UNL     1      -0.579  -6.508   8.229  0.00  0.00    +0.046 C 
ATOM     29  C   UNL     1      -0.317  -7.792  10.803  0.00  0.00    +0.044 C 
ENDBRANCH  18  22
ENDBRANCH   1  15
BRANCH   1  30
ATOM     30  C   UNL     1      -2.542  -4.357   3.315  0.00  0.00    +0.205 C 
ATOM     31  N   UNL     1      -3.182  -5.174   2.276  0.00  0.00    -0.152 NA
ATOM     32  N   UNL     1      -3.557  -4.436   1.363  0.00  0.00    -0.070 NA
ATOM     33  N   UNL     1      -3.265  -3.092   1.597  0.00  0.00    -0.179 N 
ATOM     34  N   UNL     1      -2.628  -2.972   2.807  0.00  0.00    -0.183 NA
ATOM     35  H   UNL     1      -3.478  -2.359   0.999  0.00  0.00    +0.191 HD
BRANCH  34  36
ATOM     36  C   UNL     1      -1.291  -2.387   2.643  0.00  0.00    +0.035 C 
ATOM     37  C   UNL     1      -0.751  -2.729   1.254  0.00  0.00    +0.029 C 
ATOM     38  C   UNL     1      -1.377  -0.867   2.797  0.00  0.00    +0.029 C 
ATOM     39  C   UNL     1      -0.352  -2.955   3.709  0.00  0.00    +0.029 C 
ENDBRANCH  34  36
ENDBRANCH   1  30
TORSDOF 5
