REMARK  Name = ZINC44787096
REMARK  11 active torsions:
REMARK  status: ('A' for Active; 'I' for Inactive)
REMARK    1  A    between atoms: C_1  and  C_2
REMARK    2  A    between atoms: C_2  and  O_3
REMARK    3  A    between atoms: O_3  and  C_4
REMARK    4  A    between atoms: C_8  and  C_10
REMARK    5  A    between atoms: C_10  and  N_11
REMARK    6  A    between atoms: C_14  and  C_17
REMARK    7  A    between atoms: N_19  and  C_20
REMARK    8  A    between atoms: C_21  and  C_29
REMARK    9  A    between atoms: C_29  and  O_31
REMARK   10  A    between atoms: O_31  and  C_32
REMARK   11  A    between atoms: C_32  and  C_33
REMARK                            x       y       z     vdW  Elec       q    Type
REMARK                         _______ _______ _______ _____ _____    ______ ____
ROOT
ATOM      1  C   UNL     1      -6.192  -6.251   5.028  0.00  0.00    +0.221 C 
ATOM      2  O   UNL     1      -5.410  -5.966   5.910  0.00  0.00    -0.275 OA
ATOM      3  N   UNL     1      -7.445  -6.637   5.337  0.00  0.00    -0.279 N 
ATOM      4  H   UNL     1      -8.071  -6.865   4.632  0.00  0.00    +0.155 HD
ENDROOT
BRANCH   3   5
ATOM      5  C   UNL     1      -7.841  -6.708   6.664  0.00  0.00    +0.086 A 
ATOM      6  C   UNL     1      -9.078  -7.087   7.165  0.00  0.00    +0.091 A 
ATOM      7  C   UNL     1      -9.239  -7.077   8.609  0.00  0.00    -0.021 A 
ATOM      8  C   UNL     1      -8.136  -6.691   9.286  0.00  0.00    -0.004 A 
ATOM      9  S   UNL     1      -6.932  -6.363   8.033  0.00  0.00    -0.077 S 
ATOM     10  C   UNL     1      -7.986  -6.577  10.772  0.00  0.00    +0.043 C 
ATOM     11  C   UNL     1      -9.387  -6.602  11.401  0.00  0.00    +0.005 C 
ATOM     12  C   UNL     1     -10.181  -7.764  10.798  0.00  0.00    +0.005 C 
ATOM     13  C   UNL     1     -10.519  -7.461   9.337  0.00  0.00    +0.037 C 
BRANCH   6  14
ATOM     14  C   UNL     1     -10.174  -7.479   6.277  0.00  0.00    +0.342 C 
ATOM     15  O   UNL     1     -10.306  -8.643   5.952  0.00  0.00    -0.245 OA
BRANCH  14  16
ATOM     16  O   UNL     1     -11.038  -6.548   5.821  0.00  0.00    -0.461 OA
BRANCH  16  17
ATOM     17  C   UNL     1     -12.084  -7.002   4.959  0.00  0.00    +0.229 C 
ATOM     18  C   UNL     1     -12.956  -5.814   4.547  0.00  0.00    +0.048 C 
ENDBRANCH  16  17
ENDBRANCH  14  16
ENDBRANCH   6  14
ENDBRANCH   3   5
BRANCH   1  22
ATOM     19  N   UNL     1      -4.759  -4.566   1.394  0.00  0.00    +0.382 N 
ATOM     20  C   UNL     1      -3.896  -5.561   2.044  0.00  0.00    -0.078 C 
ATOM     21  C   UNL     1      -4.302  -5.713   3.511  0.00  0.00    -0.006 C 
ATOM     22  C   UNL     1      -5.761  -6.174   3.586  0.00  0.00    +0.072 C 
ATOM     23  C   UNL     1      -6.643  -5.168   2.841  0.00  0.00    -0.006 C 
ATOM     24  C   UNL     1      -6.150  -5.035   1.399  0.00  0.00    -0.078 C 
ATOM     25  H   UNL     1      -4.698  -3.693   1.895  0.00  0.00    -0.081 HD
BRANCH  19  26
ATOM     26  C   UNL     1      -4.316  -4.366   0.008  0.00  0.00    -0.043 C 
BRANCH  26  31
ATOM     27  C   UNL     1      -1.498  -1.848   0.006  0.00  0.00    +0.121 A 
ATOM     28  C   UNL     1      -0.387  -2.679  -0.003  0.00  0.00    +0.045 A 
ATOM     29  C   UNL     1      -0.552  -4.051  -0.008  0.00  0.00    +0.004 A 
ATOM     30  C   UNL     1      -1.823  -4.596  -0.004  0.00  0.00    +0.002 A 
ATOM     31  C   UNL     1      -2.932  -3.769   0.004  0.00  0.00    -0.060 A 
ATOM     32  C   UNL     1      -2.772  -2.397   0.016  0.00  0.00    +0.047 A 
BRANCH  27  33
ATOM     33  O   UNL     1      -1.339  -0.499   0.012  0.00  0.00    -0.492 OA
BRANCH  33  35
ATOM     34  C   UNL     1      -0.019   1.526   0.010  0.00  0.00    +0.048 C 
ATOM     35  C   UNL     1       0.002  -0.004   0.002  0.00  0.00    +0.225 C 
ENDBRANCH  33  35
ENDBRANCH  27  33
ENDBRANCH  26  31
ENDBRANCH  19  26
ENDBRANCH   1  22
TORSDOF 9
