REMARK  Name = ZINC26478770
REMARK  8 active torsions:
REMARK  status: ('A' for Active; 'I' for Inactive)
REMARK    1  A    between atoms: C_1  and  C_2
REMARK    2  A    between atoms: C_5  and  N_9
REMARK    3  A    between atoms: C_10  and  C_12
REMARK    4  A    between atoms: C_12  and  C_14
REMARK    5  A    between atoms: C_12  and  N_15
REMARK    6  A    between atoms: N_15  and  C_16
REMARK    7  A    between atoms: N_15  and  C_17
REMARK    8  A    between atoms: C_17  and  C_18
REMARK                            x       y       z     vdW  Elec       q    Type
REMARK                         _______ _______ _______ _____ _____    ______ ____
ROOT
ATOM      1  N   UNL     1      -2.420   0.235   0.004  0.00  0.00    +0.390 N 
ATOM      2  C   UNL     1      -2.465   1.014  -1.240  0.00  0.00    -0.095 C 
ATOM      3  H   UNL     1      -2.233   0.934   0.833  0.00  0.00    -0.081 HD
ENDROOT
BRANCH   1   4
ATOM      4  C   UNL     1      -3.705  -0.430   0.256  0.00  0.00    +0.017 C 
ATOM      5  C   UNL     1      -4.037  -1.357  -0.916  0.00  0.00    -0.004 C 
BRANCH   4   7
ATOM      6  N   UNL     1      -6.059   0.226   0.635  0.00  0.00    -0.286 N 
ATOM      7  C   UNL     1      -4.789   0.607   0.399  0.00  0.00    +0.203 C 
ATOM      8  O   UNL     1      -4.517   1.785   0.301  0.00  0.00    -0.277 OA
ATOM      9  H   UNL     1      -6.319  -0.843   0.651  0.00  0.00    +0.155 HD
BRANCH   6  14
ATOM     10  C   UNL     1     -10.069   4.135   1.551  0.00  0.00    +0.044 C 
ATOM     11  C   UNL     1      -9.005   3.096   1.308  0.00  0.00    -0.049 A 
ATOM     12  C   UNL     1      -7.977   3.356   0.419  0.00  0.00    +0.005 A 
ATOM     13  C   UNL     1      -7.000   2.407   0.194  0.00  0.00    +0.024 A 
ATOM     14  C   UNL     1      -7.049   1.190   0.861  0.00  0.00    +0.047 A 
ATOM     15  C   UNL     1      -8.085   0.929   1.749  0.00  0.00    +0.039 A 
ATOM     16  C   UNL     1      -9.057   1.885   1.974  0.00  0.00    +0.020 A 
ATOM     17 BR   UNL     1      -8.162  -0.730   2.654  0.00  0.00    -0.048 Br
ENDBRANCH   6  14
ENDBRANCH   4   7
ENDBRANCH   1   4
BRANCH   1  18
ATOM     18  C   UNL     1      -1.319  -0.737  -0.023  0.00  0.00    -0.003 C 
BRANCH  18  19
ATOM     19  C   UNL     1      -0.002  -0.005  -0.036  0.00  0.00    +0.094 A 
ATOM     20  N   UNL     1       1.142  -0.738  -0.061  0.00  0.00    -0.312 N 
ATOM     21  H   UNL     1       1.091  -1.837  -0.071  0.00  0.00    +0.170 HD
ATOM     22  C   UNL     1       2.350  -0.128  -0.074  0.00  0.00    +0.259 A 
ATOM     23  O   UNL     1       3.383  -0.772  -0.097  0.00  0.00    -0.267 OA
ATOM     24  C   UNL     1       2.367   1.342  -0.059  0.00  0.00    +0.065 A 
ATOM     25  C   UNL     1       3.557   2.066  -0.071  0.00  0.00    +0.015 A 
ATOM     26  C   UNL     1       3.515   3.443  -0.056  0.00  0.00    +0.001 A 
ATOM     27  C   UNL     1       2.298   4.112  -0.030  0.00  0.00    +0.002 A 
ATOM     28  C   UNL     1       1.110   3.415  -0.019  0.00  0.00    +0.028 A 
ATOM     29  C   UNL     1       1.127   2.019  -0.033  0.00  0.00    +0.078 A 
ATOM     30  N   UNL     1      -0.019   1.293  -0.022  0.00  0.00    -0.236 NA
ENDBRANCH  18  19
ENDBRANCH   1  18
TORSDOF 5
