REMARK  Name = ZINC22313387
REMARK  12 active torsions:
REMARK  status: ('A' for Active; 'I' for Inactive)
REMARK    1  A    between atoms: C_1  and  C_2
REMARK    2  A    between atoms: C_7  and  O_8
REMARK    3  A    between atoms: O_8  and  C_9
REMARK    4  A    between atoms: C_9  and  C_10
REMARK    5  A    between atoms: C_10  and  C_12
REMARK    6  A    between atoms: C_10  and  N_13
REMARK    7  A    between atoms: C_14  and  C_16
REMARK    8  A    between atoms: C_16  and  N_17
REMARK    9  A    between atoms: N_17  and  C_18
REMARK   10  A    between atoms: N_17  and  S_27
REMARK   11  A    between atoms: C_22  and  N_24
REMARK   12  A    between atoms: S_27  and  C_30
REMARK                            x       y       z     vdW  Elec       q    Type
REMARK                         _______ _______ _______ _____ _____    ______ ____
ROOT
ATOM      1  N   UNL     1      -0.688   1.539   1.206  0.00  0.00    -0.194 N 
ENDROOT
BRANCH   1   2
ATOM      2  C   UNL     1      -0.385   2.805   1.713  0.00  0.00    +0.054 A 
ATOM      3  C   UNL     1      -0.493   3.053   3.075  0.00  0.00    +0.025 A 
ATOM      4  C   UNL     1      -0.189   4.304   3.574  0.00  0.00    +0.004 A 
ATOM      5  C   UNL     1       0.212   5.313   2.717  0.00  0.00    +0.033 A 
ATOM      6  C   UNL     1       0.315   5.071   1.360  0.00  0.00    +0.128 A 
ATOM      7  C   UNL     1       0.018   3.820   0.855  0.00  0.00    +0.057 A 
BRANCH   6   8
ATOM      8  N   UNL     1       0.745   6.154   0.447  0.00  0.00    +0.056 N 
ATOM      9  O   UNL     1       0.835   5.942  -0.749  0.00  0.00    -0.126 OA
ATOM     10  O   UNL     1       1.007   7.257   0.891  0.00  0.00    -0.126 OA
ENDBRANCH   6   8
ENDBRANCH   1   2
BRANCH   1  11
ATOM     11  S   UNL     1      -2.185   0.880   1.462  0.00  0.00    +0.075 S 
ATOM     12  O   UNL     1      -3.043   1.952   1.828  0.00  0.00    -0.150 OA
ATOM     13  O   UNL     1      -2.453   0.035   0.352  0.00  0.00    -0.150 OA
BRANCH  11  14
ATOM     14  C   UNL     1      -2.058  -0.167   2.873  0.00  0.00    +0.109 A 
ATOM     15  C   UNL     1      -1.614  -1.468   2.731  0.00  0.00    +0.029 A 
ATOM     16  C   UNL     1      -1.510  -2.289   3.839  0.00  0.00    +0.002 A 
ATOM     17  C   UNL     1      -1.860  -1.811   5.088  0.00  0.00    +0.000 A 
ATOM     18  C   UNL     1      -2.310  -0.511   5.229  0.00  0.00    +0.002 A 
ATOM     19  C   UNL     1      -2.409   0.310   4.122  0.00  0.00    +0.029 A 
ENDBRANCH  11  14
ENDBRANCH   1  11
BRANCH   1  20
ATOM     20  C   UNL     1       0.320   0.794   0.447  0.00  0.00    +0.227 C 
BRANCH  20  22
ATOM     21  N   UNL     1       1.125   0.669  -1.889  0.00  0.00    -0.308 N 
ATOM     22  C   UNL     1       0.280   1.224  -0.997  0.00  0.00    +0.232 C 
ATOM     23  O   UNL     1      -0.512   2.068  -1.357  0.00  0.00    -0.274 OA
ATOM     24  H   UNL     1       1.843  -0.098  -1.563  0.00  0.00    +0.149 HD
BRANCH  21  25
ATOM     25  C   UNL     1       1.086   1.086  -3.293  0.00  0.00    +0.107 C 
ATOM     26  C   UNL     1       0.012   0.286  -4.033  0.00  0.00    +0.031 C 
BRANCH  25  27
ATOM     27  C   UNL     1       2.449   0.830  -3.939  0.00  0.00    +0.251 C 
BRANCH  27  28
ATOM     28  O   UNL     1       2.705  -0.576  -3.969  0.00  0.00    -0.490 OA
BRANCH  28  35
ATOM     29  C   UNL     1       3.231  -3.350  -4.039  0.00  0.00    +0.047 C 
ATOM     30  C   UNL     1       4.197  -2.327  -4.577  0.00  0.00    -0.009 A 
ATOM     31  C   UNL     1       5.395  -2.732  -5.133  0.00  0.00    +0.007 A 
ATOM     32  C   UNL     1       6.281  -1.793  -5.628  0.00  0.00    +0.000 A 
ATOM     33  C   UNL     1       5.971  -0.447  -5.567  0.00  0.00    +0.004 A 
ATOM     34  C   UNL     1       4.772  -0.037  -5.018  0.00  0.00    +0.046 A 
ATOM     35  C   UNL     1       3.883  -0.977  -4.516  0.00  0.00    +0.123 A 
ENDBRANCH  28  35
ENDBRANCH  27  28
ENDBRANCH  25  27
ENDBRANCH  21  25
ENDBRANCH  20  22
ENDBRANCH   1  20
TORSDOF 10
