REMARK  Name = ZINC34750020
REMARK  10 active torsions:
REMARK  status: ('A' for Active; 'I' for Inactive)
REMARK    1  A    between atoms: C_1  and  C_2
REMARK    2  A    between atoms: C_5  and  C_35
REMARK    3  A    between atoms: C_6  and  C_8
REMARK    4  A    between atoms: C_8  and  N_9
REMARK    5  A    between atoms: C_22  and  S_24
REMARK    6  A    between atoms: S_24  and  C_25
REMARK    7  A    between atoms: C_25  and  C_26
REMARK    8  A    between atoms: C_26  and  C_28
REMARK    9  A    between atoms: C_31  and  C_33
REMARK   10  A    between atoms: C_31  and  C_34
REMARK                            x       y       z     vdW  Elec       q    Type
REMARK                         _______ _______ _______ _____ _____    ______ ____
ROOT
ATOM      1  N   UNL     1       2.397  -2.985   1.912  0.00  0.00    +0.384 N 
ATOM      2  C   UNL     1       3.806  -3.395   1.849  0.00  0.00    -0.059 C 
ATOM      3  C   UNL     1       4.135  -4.275   3.060  0.00  0.00    +0.088 C 
ATOM      4  N   UNL     1       3.769  -3.541   4.282  0.00  0.00    -0.318 N 
ATOM      5  C   UNL     1       2.424  -2.953   4.361  0.00  0.00    +0.088 C 
ATOM      6  C   UNL     1       2.175  -2.135   3.089  0.00  0.00    -0.059 C 
ATOM      7  C   UNL     1       4.666  -3.410   5.327  0.00  0.00    +0.134 A 
ATOM      8  C   UNL     1       4.628  -4.314   6.425  0.00  0.00    +0.051 A 
ATOM      9  C   UNL     1       3.730  -5.446   6.651  0.00  0.00    -0.020 A 
ATOM     10  C   UNL     1       3.906  -6.153   7.787  0.00  0.00    +0.021 A 
ATOM     11  S   UNL     1       5.260  -5.369   8.614  0.00  0.00    -0.071 S 
ATOM     12  C   UNL     1       5.588  -4.087   7.432  0.00  0.00    +0.115 A 
ATOM     13  N   UNL     1       6.456  -3.097   7.348  0.00  0.00    -0.215 NA
ATOM     14  C   UNL     1       6.444  -2.284   6.301  0.00  0.00    +0.191 A 
ATOM     15  N   UNL     1       5.570  -2.446   5.314  0.00  0.00    -0.206 NA
ATOM     16  C   UNL     1       3.106  -7.342   8.224  0.00  0.00    +0.203 C 
ATOM     17  O   UNL     1       1.930  -7.409   7.402  0.00  0.00    -0.368 OA
ATOM     18  C   UNL     1       2.204  -7.284   6.004  0.00  0.00    +0.068 C 
ATOM     19  C   UNL     1       2.627  -5.849   5.676  0.00  0.00    +0.071 C 
ATOM     20  C   UNL     1       3.331  -8.245   5.620  0.00  0.00    +0.041 C 
ATOM     21  C   UNL     1       0.947  -7.638   5.207  0.00  0.00    +0.041 C 
ATOM     22  H   UNL     1       1.813  -3.805   1.975  0.00  0.00    -0.081 HD
ENDROOT
BRANCH   1  23
ATOM     23  C   UNL     1       2.054  -2.234   0.697  0.00  0.00    -0.043 C 
BRANCH  23  29
ATOM     24  C   UNL     1       4.610  -3.870  -3.283  0.00  0.00    +0.044 C 
ATOM     25  C   UNL     1       3.386  -3.923  -2.406  0.00  0.00    -0.050 A 
ATOM     26  C   UNL     1       2.362  -4.804  -2.701  0.00  0.00    +0.003 A 
ATOM     27  C   UNL     1       1.239  -4.854  -1.898  0.00  0.00    +0.004 A 
ATOM     28  C   UNL     1       1.139  -4.022  -0.798  0.00  0.00    -0.049 A 
ATOM     29  C   UNL     1       2.163  -3.141  -0.502  0.00  0.00    -0.061 A 
ATOM     30  C   UNL     1       3.288  -3.095  -1.304  0.00  0.00    +0.005 A 
ATOM     31  C   UNL     1      -0.086  -4.075   0.078  0.00  0.00    +0.044 C 
ENDBRANCH  23  29
ENDBRANCH   1  23
BRANCH  14  32
ATOM     32  S   UNL     1       7.613  -0.968   6.213  0.00  0.00    -0.082 S 
BRANCH  32  33
ATOM     33  C   UNL     1       8.581  -1.140   7.738  0.00  0.00    +0.107 C 
BRANCH  33  34
ATOM     34  C   UNL     1       9.632  -0.061   7.790  0.00  0.00    -0.069 C 
ATOM     35  C   UNL     1       9.480   0.964   8.591  0.00  0.00    +0.008 C 
ATOM     36  C   UNL     1      10.858  -0.161   6.920  0.00  0.00    +0.039 C 
ENDBRANCH  33  34
ENDBRANCH  32  33
ENDBRANCH  14  32
TORSDOF 5
