REMARK  Name = ZINC16322272
REMARK  13 active torsions:
REMARK  status: ('A' for Active; 'I' for Inactive)
REMARK    1  A    between atoms: C_1  and  C_2
REMARK    2  A    between atoms: C_2  and  C_4
REMARK    3  A    between atoms: C_2  and  N_24
REMARK    4  A    between atoms: N_6  and  C_7
REMARK    5  A    between atoms: C_7  and  C_9
REMARK    6  A    between atoms: C_7  and  C_10
REMARK    7  A    between atoms: C_10  and  O_12
REMARK    8  A    between atoms: O_12  and  C_13
REMARK    9  A    between atoms: C_25  and  O_27
REMARK   10  A    between atoms: O_27  and  C_28
REMARK   11  A    between atoms: C_28  and  C_29
REMARK   12  A    between atoms: C_28  and  C_30
REMARK   13  A    between atoms: C_28  and  C_31
REMARK                            x       y       z     vdW  Elec       q    Type
REMARK                         _______ _______ _______ _____ _____    ______ ____
ROOT
ATOM      1  C   UNL     1       1.248   1.716  -0.001  0.00  0.00    +0.179 C 
ATOM      2  C   UNL     1       1.635   2.077   1.435  0.00  0.00    +0.040 C 
ENDROOT
BRANCH   1   5
ATOM      3  C   UNL     1      -1.187   1.624   0.017  0.00  0.00    +0.234 C 
ATOM      4  O   UNL     1      -1.204   2.837   0.023  0.00  0.00    -0.274 OA
ATOM      5  N   UNL     1      -0.011   0.966   0.007  0.00  0.00    -0.301 N 
ATOM      6  H   UNL     1       0.002  -0.004   0.002  0.00  0.00    +0.150 HD
BRANCH   3   8
ATOM      7  C   UNL     1      -2.557  -0.021  -1.235  0.00  0.00    +0.038 C 
ATOM      8  C   UNL     1      -2.482   0.853   0.018  0.00  0.00    +0.159 C 
BRANCH   8   9
ATOM      9  N   UNL     1      -3.608   1.789   0.029  0.00  0.00    -0.270 N 
ATOM     10  C   UNL     1      -4.801   1.404   0.526  0.00  0.00    +0.401 C 
ATOM     11  O   UNL     1      -4.941   0.280   0.965  0.00  0.00    -0.226 OA
ATOM     12  H   UNL     1      -3.496   2.687  -0.322  0.00  0.00    +0.153 HD
BRANCH  10  13
ATOM     13  O   UNL     1      -5.836   2.265   0.535  0.00  0.00    -0.445 OA
BRANCH  13  14
ATOM     14  C   UNL     1      -7.090   1.782   1.085  0.00  0.00    +0.107 C 
ATOM     15  C   UNL     1      -6.882   1.373   2.545  0.00  0.00    +0.055 C 
ATOM     16  C   UNL     1      -8.140   2.892   1.012  0.00  0.00    +0.055 C 
ATOM     17  C   UNL     1      -7.568   0.573   0.279  0.00  0.00    +0.055 C 
ENDBRANCH  13  14
ENDBRANCH  10  13
ENDBRANCH   8   9
ENDBRANCH   3   8
ENDBRANCH   1   5
BRANCH   1  18
ATOM     18  C   UNL     1       2.332   0.870  -0.616  0.00  0.00    +0.333 C 
ATOM     19  O   UNL     1       2.080  -0.245  -1.008  0.00  0.00    -0.248 OA
BRANCH  18  20
ATOM     20  O   UNL     1       3.579   1.355  -0.729  0.00  0.00    -0.421 OA
BRANCH  20  21
ATOM     21  C   UNL     1       4.510   0.539  -1.293  0.00  0.00    +0.171 A 
ATOM     22  C   UNL     1       5.259  -0.315  -0.497  0.00  0.00    +0.104 A 
ATOM     23  C   UNL     1       6.202  -1.148  -1.074  0.00  0.00    +0.083 A 
ATOM     24  C   UNL     1       6.405  -1.121  -2.443  0.00  0.00    +0.081 A 
ATOM     25  C   UNL     1       5.662  -0.265  -3.238  0.00  0.00    +0.083 A 
ATOM     26  C   UNL     1       4.715   0.565  -2.666  0.00  0.00    +0.104 A 
ATOM     27 CL   UNL     1       3.784   1.638  -3.663  0.00  0.00    -0.078 Cl
ATOM     28 CL   UNL     1       5.920  -0.233  -4.955  0.00  0.00    -0.080 Cl
ATOM     29 CL   UNL     1       7.592  -2.163  -3.164  0.00  0.00    -0.080 Cl
ATOM     30 CL   UNL     1       7.135  -2.222  -0.079  0.00  0.00    -0.080 Cl
ATOM     31 CL   UNL     1       5.010  -0.344   1.221  0.00  0.00    -0.078 Cl
ENDBRANCH  20  21
ENDBRANCH  18  20
ENDBRANCH   1  18
TORSDOF 8
