REMARK  Name = ZINC45334713
REMARK  9 active torsions:
REMARK  status: ('A' for Active; 'I' for Inactive)
REMARK    1  A    between atoms: C_1  and  C_2
REMARK    2  A    between atoms: C_15  and  C_17
REMARK    3  A    between atoms: C_17  and  O_18
REMARK    4  A    between atoms: O_18  and  C_19
REMARK    5  A    between atoms: C_19  and  C_21
REMARK    6  A    between atoms: C_26  and  S_27
REMARK    7  A    between atoms: S_27  and  C_28
REMARK    8  A    between atoms: C_28  and  C_29
REMARK    9  A    between atoms: C_32  and  C_35
REMARK                            x       y       z     vdW  Elec       q    Type
REMARK                         _______ _______ _______ _____ _____    ______ ____
ROOT
ATOM      1  O   UNL     1       4.022  -1.841   1.964  0.00  0.00    -0.452 OA
ENDROOT
BRANCH   1   2
ATOM      2  C   UNL     1       4.803  -2.313   2.955  0.00  0.00    +0.341 C 
ATOM      3  O   UNL     1       4.375  -2.372   4.091  0.00  0.00    -0.245 OA
BRANCH   2   4
ATOM      4  C   UNL     1       6.176  -2.759   2.663  0.00  0.00    +0.072 A 
ATOM      5  C   UNL     1       6.676  -2.688   1.359  0.00  0.00    +0.016 A 
ATOM      6  C   UNL     1       7.960  -3.106   1.092  0.00  0.00    +0.001 A 
ATOM      7  C   UNL     1       8.764  -3.598   2.110  0.00  0.00    +0.001 A 
ATOM      8  C   UNL     1       8.287  -3.675   3.401  0.00  0.00    +0.015 A 
ATOM      9  C   UNL     1       6.994  -3.252   3.693  0.00  0.00    +0.022 A 
BRANCH   9  10
ATOM     10  S   UNL     1       6.384  -3.342   5.343  0.00  0.00    -0.120 S 
BRANCH  10  11
ATOM     11  C   UNL     1       7.772  -4.027   6.288  0.00  0.00    +0.109 C 
BRANCH  11  12
ATOM     12  C   UNL     1       7.378  -4.157   7.737  0.00  0.00    -0.037 A 
ATOM     13  C   UNL     1       7.598  -3.105   8.608  0.00  0.00    +0.006 A 
ATOM     14  C   UNL     1       7.240  -3.217   9.935  0.00  0.00    +0.019 A 
ATOM     15  C   UNL     1       6.654  -4.397  10.399  0.00  0.00    +0.052 A 
ATOM     16  C   UNL     1       6.435  -5.455   9.515  0.00  0.00    +0.019 A 
ATOM     17  C   UNL     1       6.794  -5.327   8.189  0.00  0.00    +0.006 A 
BRANCH  15  18
ATOM     18  C   UNL     1       6.280  -4.521  11.776  0.00  0.00    +0.099 C 
ATOM     19  N   UNL     1       5.983  -4.620  12.868  0.00  0.00    -0.191 NA
ENDBRANCH  15  18
ENDBRANCH  11  12
ENDBRANCH  10  11
ENDBRANCH   9  10
ENDBRANCH   2   4
ENDBRANCH   1   2
BRANCH   1  20
ATOM     20  C   UNL     1       2.702  -1.427   2.320  0.00  0.00    +0.328 C 
BRANCH  20  34
ATOM     21  C   UNL     1      -0.019   1.526   0.010  0.00  0.00    +0.029 C 
ATOM     22  C   UNL     1       0.002  -0.004   0.002  0.00  0.00    +0.087 C 
ATOM     23  C   UNL     1      -1.433  -0.532   0.009  0.00  0.00    +0.118 C 
ATOM     24  C   UNL     1      -1.448  -1.987   0.396  0.00  0.00    +0.219 C 
ATOM     25  O   UNL     1      -1.623  -2.835  -0.454  0.00  0.00    -0.275 OA
ATOM     26  N   UNL     1      -1.268  -2.354   1.683  0.00  0.00    -0.284 N 
ATOM     27  C   UNL     1      -0.970  -1.397   2.659  0.00  0.00    +0.055 A 
ATOM     28  C   UNL     1      -1.673  -1.354   3.851  0.00  0.00    +0.025 A 
ATOM     29  C   UNL     1      -1.345  -0.414   4.811  0.00  0.00    +0.002 A 
ATOM     30  C   UNL     1      -0.316   0.482   4.584  0.00  0.00    +0.002 A 
ATOM     31  C   UNL     1       0.385   0.452   3.393  0.00  0.00    +0.025 A 
ATOM     32  C   UNL     1       0.054  -0.479   2.422  0.00  0.00    +0.058 A 
ATOM     33  N   UNL     1       0.714  -0.487   1.187  0.00  0.00    -0.264 N 
ATOM     34  C   UNL     1       1.982  -0.932   1.091  0.00  0.00    +0.258 C 
ATOM     35  O   UNL     1       2.545  -0.934   0.017  0.00  0.00    -0.271 OA
ATOM     36  H   UNL     1      -1.347  -3.288   1.933  0.00  0.00    +0.155 HD
ENDBRANCH  20  34
ENDBRANCH   1  20
TORSDOF 8
