REMARK  Name = ZINC14472805
REMARK  5 active torsions:
REMARK  status: ('A' for Active; 'I' for Inactive)
REMARK    1  A    between atoms: C_1  and  C_2
REMARK    2  A    between atoms: N_5  and  S_8
REMARK    3  A    between atoms: S_8  and  C_11
REMARK    4  A    between atoms: C_24  and  C_27
REMARK    5  A    between atoms: C_29  and  N_34
REMARK                            x       y       z     vdW  Elec       q    Type
REMARK                         _______ _______ _______ _____ _____    ______ ____
ROOT
ATOM      1  C   UNL     1       2.227  -0.322  -0.190  0.00  0.00    +0.106 A 
ATOM      2  C   UNL     1       3.249   0.610  -0.202  0.00  0.00    +0.030 A 
ATOM      3  C   UNL     1       2.947   1.956  -0.152  0.00  0.00    +0.025 A 
ATOM      4  C   UNL     1       1.622   2.370  -0.090  0.00  0.00    +0.031 A 
ATOM      5  C   UNL     1       0.595   1.440  -0.078  0.00  0.00    -0.018 A 
ATOM      6  C   UNL     1       0.911   0.089  -0.129  0.00  0.00    +0.034 A 
ATOM      7  C   UNL     1      -0.845   1.838  -0.006  0.00  0.00    +0.049 C 
ATOM      8  C   UNL     1      -1.526   1.683  -1.348  0.00  0.00    -0.023 C 
ATOM      9  C   UNL     1      -2.401   2.643  -1.527  0.00  0.00    -0.030 C 
ATOM     10  C   UNL     1      -2.425   3.568  -0.326  0.00  0.00    +0.033 C 
ATOM     11  C   UNL     1      -1.041   3.326   0.344  0.00  0.00    +0.029 C 
ATOM     12  C   UNL     1      -0.016   4.179  -0.408  0.00  0.00    +0.106 C 
ATOM     13  N   UNL     1       1.333   3.738  -0.040  0.00  0.00    -0.336 N 
ATOM     14  H   UNL     1       2.009   4.379   0.231  0.00  0.00    +0.147 HD
ENDROOT
BRANCH  12  15
ATOM     15  C   UNL     1      -0.214   4.013  -1.893  0.00  0.00    -0.007 A 
ATOM     16  C   UNL     1       0.411   2.977  -2.562  0.00  0.00    +0.039 A 
ATOM     17  C   UNL     1       0.226   2.821  -3.923  0.00  0.00    +0.127 A 
ATOM     18  C   UNL     1      -0.576   3.708  -4.618  0.00  0.00    +0.034 A 
ATOM     19  C   UNL     1      -1.197   4.747  -3.951  0.00  0.00    +0.022 A 
ATOM     20  C   UNL     1      -1.016   4.900  -2.588  0.00  0.00    +0.046 A 
ATOM     21 CL   UNL     1      -1.795   6.206  -1.750  0.00  0.00    -0.083 Cl
BRANCH  17  22
ATOM     22  N   UNL     1       0.891   1.709  -4.637  0.00  0.00    +0.056 N 
ATOM     23  O   UNL     1       0.732   1.574  -5.837  0.00  0.00    -0.126 OA
ATOM     24  O   UNL     1       1.597   0.928  -4.025  0.00  0.00    -0.126 OA
ENDBRANCH  17  22
ENDBRANCH  12  15
BRANCH   1  25
ATOM     25  S   UNL     1       2.607  -2.041  -0.254  0.00  0.00    +0.061 S 
ATOM     26  O   UNL     1       3.930  -2.183   0.244  0.00  0.00    -0.153 OA
ATOM     27  O   UNL     1       1.500  -2.723   0.319  0.00  0.00    -0.153 OA
BRANCH  25  32
ATOM     28  C   UNL     1       2.275  -1.338  -5.935  0.00  0.00    +0.007 C 
ATOM     29  C   UNL     1       2.495  -2.150  -4.657  0.00  0.00    -0.012 C 
ATOM     30  C   UNL     1       3.669  -1.559  -3.873  0.00  0.00    +0.020 C 
ATOM     31  C   UNL     1       3.909  -2.394  -2.612  0.00  0.00    +0.110 C 
ATOM     32  N   UNL     1       2.654  -2.473  -1.852  0.00  0.00    -0.177 NA
ATOM     33  C   UNL     1       1.443  -2.949  -2.534  0.00  0.00    +0.110 C 
ATOM     34  C   UNL     1       1.230  -2.102  -3.798  0.00  0.00    +0.020 C 
ENDBRANCH  25  32
ENDBRANCH   1  25
TORSDOF 4
