REMARK  Name = ZINC13143268
REMARK  3 active torsions:
REMARK  status: ('A' for Active; 'I' for Inactive)
REMARK    1  A    between atoms: C_10  and  C_11
REMARK    2  A    between atoms: C_11  and  C_12
REMARK    3  A    between atoms: C_11  and  C_23
REMARK                            x       y       z     vdW  Elec       q    Type
REMARK                         _______ _______ _______ _____ _____    ______ ____
ROOT
ATOM      1  C   UNL     1       4.960   0.161  -0.046  0.00  0.00    +0.101 C 
ENDROOT
BRANCH   1   2
ATOM      2  C   UNL     1       5.497  -0.624   1.124  0.00  0.00    +0.095 A 
ATOM      3  C   UNL     1       4.837  -1.757   1.568  0.00  0.00    +0.282 A 
ATOM      4  O   UNL     1       3.712  -2.187   0.949  0.00  0.00    -0.265 OA
ATOM      5  N   UNL     1       5.330  -2.418   2.619  0.00  0.00    -0.185 NA
ATOM      6  C   UNL     1       6.427  -2.024   3.223  0.00  0.00    +0.175 A 
ATOM      7  N   UNL     1       7.154  -0.939   2.821  0.00  0.00    -0.287 N 
ATOM      8  C   UNL     1       6.665  -0.220   1.765  0.00  0.00    +0.263 A 
ATOM      9  O   UNL     1       7.252   0.782   1.387  0.00  0.00    -0.267 OA
ATOM     10  C   UNL     1       8.403  -0.652   3.537  0.00  0.00    +0.138 C 
ATOM     11  C   UNL     1       8.423  -1.286   4.947  0.00  0.00    +0.099 C 
ATOM     12  S   UNL     1       7.274  -2.693   4.643  0.00  0.00    -0.086 S 
ENDBRANCH   1   2
BRANCH   1  13
ATOM     13  C   UNL     1       6.108   0.760  -0.817  0.00  0.00    +0.095 A 
ATOM     14  C   UNL     1       6.037   2.066  -1.274  0.00  0.00    +0.282 A 
ATOM     15  O   UNL     1       4.948   2.828  -1.019  0.00  0.00    -0.265 OA
ATOM     16  N   UNL     1       7.066   2.559  -1.969  0.00  0.00    -0.185 NA
ATOM     17  C   UNL     1       8.136   1.841  -2.214  0.00  0.00    +0.175 A 
ATOM     18  N   UNL     1       8.295   0.559  -1.766  0.00  0.00    -0.287 N 
ATOM     19  C   UNL     1       7.252   0.009  -1.074  0.00  0.00    +0.263 A 
ATOM     20  O   UNL     1       7.323  -1.145  -0.683  0.00  0.00    -0.267 OA
ATOM     21  C   UNL     1       9.573  -0.106  -2.045  0.00  0.00    +0.138 C 
ATOM     22  C   UNL     1      10.314   0.536  -3.241  0.00  0.00    +0.099 C 
ATOM     23  S   UNL     1       9.615   2.236  -3.129  0.00  0.00    -0.086 S 
ENDBRANCH   1  13
BRANCH   1  33
ATOM     24  C   UNL     1       0.015  -1.021  -0.635  0.00  0.00    +0.001 A 
ATOM     25  C   UNL     1       0.726  -0.169   0.207  0.00  0.00    +0.001 A 
ATOM     26  C   UNL     1       2.080  -0.067   0.122  0.00  0.00    +0.009 A 
ATOM     27  C   UNL     1       2.776  -0.833  -0.829  0.00  0.00    -0.014 A 
ATOM     28  C   UNL     1       2.053  -1.701  -1.686  0.00  0.00    -0.018 A 
ATOM     29  C   UNL     1       0.655  -1.778  -1.568  0.00  0.00    +0.008 A 
ATOM     30  C   UNL     1       2.749  -2.467  -2.637  0.00  0.00    +0.008 A 
ATOM     31  C   UNL     1       4.104  -2.366  -2.722  0.00  0.00    +0.001 A 
ATOM     32  C   UNL     1       4.814  -1.514  -1.879  0.00  0.00    +0.005 A 
ATOM     33  C   UNL     1       4.174  -0.756  -0.947  0.00  0.00    -0.027 A 
ENDBRANCH   1  33
TORSDOF 3
