REMARK  Name = ZINC38729819
REMARK  6 active torsions:
REMARK  status: ('A' for Active; 'I' for Inactive)
REMARK    1  A    between atoms: C_4  and  C_7
REMARK    2  A    between atoms: C_7  and  C_38
REMARK    3  A    between atoms: C_13  and  C_15
REMARK    4  A    between atoms: C_21  and  C_23
REMARK    5  A    between atoms: C_28  and  C_31
REMARK    6  A    between atoms: C_28  and  O_37
REMARK                            x       y       z     vdW  Elec       q    Type
REMARK                         _______ _______ _______ _____ _____    ______ ____
ROOT
ATOM      1  C   UNL     1       5.828  -4.798   1.820  0.00  0.00    +0.091 C 
ATOM      2  C   UNL     1       6.355  -5.304   0.476  0.00  0.00    +0.040 C 
ATOM      3  C   UNL     1       6.258  -6.800   0.412  0.00  0.00    -0.030 C 
ATOM      4  C   UNL     1       6.100  -7.561   1.447  0.00  0.00    -0.030 C 
ATOM      5  C   UNL     1       5.983  -7.054   2.854  0.00  0.00    +0.040 C 
ATOM      6  C   UNL     1       6.486  -5.612   2.942  0.00  0.00    +0.091 C 
ENDROOT
BRANCH   1  13
ATOM      7  C   UNL     1       3.410  -0.589   0.688  0.00  0.00    +0.085 C 
ATOM      8  C   UNL     1       4.390  -0.297   1.827  0.00  0.00    +0.045 C 
ATOM      9  C   UNL     1       5.731  -0.976   1.528  0.00  0.00    +0.109 C 
ATOM     10  N   UNL     1       5.494  -2.406   1.289  0.00  0.00    -0.301 N 
ATOM     11  C   UNL     1       4.503  -2.798   0.277  0.00  0.00    +0.109 C 
ATOM     12  C   UNL     1       3.176  -2.098   0.590  0.00  0.00    +0.045 C 
ATOM     13  C   UNL     1       6.172  -3.340   1.983  0.00  0.00    +0.220 C 
ATOM     14  O   UNL     1       7.060  -3.008   2.740  0.00  0.00    -0.275 OA
BRANCH   7  18
ATOM     15  C   UNL     1      -0.301   1.380   1.462  0.00  0.00    +0.000 A 
ATOM     16  C   UNL     1       0.862   2.118   1.343  0.00  0.00    +0.000 A 
ATOM     17  C   UNL     1       2.063   1.481   1.093  0.00  0.00    +0.005 A 
ATOM     18  C   UNL     1       2.101   0.105   0.962  0.00  0.00    -0.027 A 
ATOM     19  C   UNL     1       0.939  -0.633   1.082  0.00  0.00    +0.005 A 
ATOM     20  C   UNL     1      -0.262   0.004   1.331  0.00  0.00    +0.000 A 
ENDBRANCH   7  18
BRANCH   7  21
ATOM     21  C   UNL     1       3.971  -0.096  -0.580  0.00  0.00    +0.074 C 
ATOM     22  N   UNL     1       4.404   0.284  -1.559  0.00  0.00    -0.196 NA
ENDBRANCH   7  21
ENDBRANCH   1  13
BRANCH   6  23
ATOM     23  C   UNL     1       7.984  -5.592   2.770  0.00  0.00    +0.220 C 
ATOM     24  O   UNL     1       8.481  -5.990   1.738  0.00  0.00    -0.275 OA
ATOM     25  N   UNL     1       8.770  -5.133   3.764  0.00  0.00    -0.301 N 
ATOM     26  C   UNL     1       8.179  -4.545   4.974  0.00  0.00    +0.111 C 
ATOM     27  C   UNL     1       8.750  -5.264   6.201  0.00  0.00    +0.058 C 
ATOM     28  C   UNL     1      10.278  -5.207   6.155  0.00  0.00    +0.094 C 
ATOM     29  C   UNL     1      10.780  -5.922   4.899  0.00  0.00    +0.058 C 
ATOM     30  C   UNL     1      10.233  -5.216   3.660  0.00  0.00    +0.111 C 
BRANCH  28  31
ATOM     31  C   UNL     1      10.842  -5.884   7.378  0.00  0.00    -0.016 A 
ATOM     32  C   UNL     1      10.153  -6.925   7.971  0.00  0.00    +0.006 A 
ATOM     33  C   UNL     1      10.671  -7.546   9.092  0.00  0.00    +0.000 A 
ATOM     34  C   UNL     1      11.877  -7.127   9.620  0.00  0.00    +0.000 A 
ATOM     35  C   UNL     1      12.567  -6.086   9.026  0.00  0.00    +0.000 A 
ATOM     36  C   UNL     1      12.052  -5.468   7.903  0.00  0.00    +0.006 A 
ENDBRANCH  28  31
BRANCH  28  37
ATOM     37  O   UNL     1      10.703  -3.843   6.128  0.00  0.00    -0.384 OA
ATOM     38  H   UNL     1      11.663  -3.731   6.099  0.00  0.00    +0.211 HD
ENDBRANCH  28  37
ENDBRANCH   6  23
TORSDOF 6
