REMARK  Name = ZINC40096059
REMARK  14 active torsions:
REMARK  status: ('A' for Active; 'I' for Inactive)
REMARK    1  A    between atoms: C_1  and  C_2
REMARK    2  A    between atoms: C_2  and  C_3
REMARK    3  A    between atoms: C_3  and  C_4
REMARK    4  A    between atoms: C_4  and  N_5
REMARK    5  A    between atoms: C_6  and  C_26
REMARK    6  A    between atoms: C_8  and  C_13
REMARK    7  A    between atoms: C_13  and  C_15
REMARK    8  A    between atoms: C_22  and  C_25
REMARK    9  A    between atoms: C_29  and  O_35
REMARK   10  A    between atoms: C_30  and  O_32
REMARK   11  A    between atoms: O_32  and  C_33
REMARK   12  A    between atoms: C_33  and  C_34
REMARK   13  A    between atoms: O_35  and  C_36
REMARK   14  A    between atoms: C_36  and  C_37
REMARK                            x       y       z     vdW  Elec       q    Type
REMARK                         _______ _______ _______ _____ _____    ______ ____
ROOT
ATOM      1  N   UNL     1      -3.196  -2.383  -0.121  0.00  0.00    -0.284 N 
ATOM      2  C   UNL     1      -4.001  -2.834   1.020  0.00  0.00    +0.145 C 
ATOM      3  C   UNL     1      -5.291  -3.365   0.441  0.00  0.00    +0.076 C 
ATOM      4  C   UNL     1      -5.206  -3.220  -0.902  0.00  0.00    +0.249 C 
ATOM      5  C   UNL     1      -3.906  -2.605  -1.242  0.00  0.00    +0.288 C 
ATOM      6  O   UNL     1      -3.532  -2.342  -2.368  0.00  0.00    -0.266 OA
ATOM      7  O   UNL     1      -6.161  -3.577  -1.792  0.00  0.00    -0.282 OA
ENDROOT
BRANCH   2   8
ATOM      8  C   UNL     1      -3.277  -3.925   1.765  0.00  0.00    -0.019 A 
ATOM      9  C   UNL     1      -2.674  -4.954   1.066  0.00  0.00    +0.009 A 
ATOM     10  C   UNL     1      -2.009  -5.958   1.746  0.00  0.00    +0.050 A 
ATOM     11  C   UNL     1      -1.946  -5.934   3.130  0.00  0.00    +0.162 A 
ATOM     12  C   UNL     1      -2.554  -4.899   3.833  0.00  0.00    +0.162 A 
ATOM     13  C   UNL     1      -3.214  -3.893   3.146  0.00  0.00    +0.055 A 
BRANCH  12  14
ATOM     14  O   UNL     1      -2.495  -4.871   5.191  0.00  0.00    -0.489 OA
BRANCH  14  15
ATOM     15  C   UNL     1      -3.037  -3.719   5.840  0.00  0.00    +0.226 C 
ATOM     16  C   UNL     1      -2.773  -3.810   7.345  0.00  0.00    +0.048 C 
ENDBRANCH  14  15
ENDBRANCH  12  14
BRANCH  11  17
ATOM     17  O   UNL     1      -1.293  -6.921   3.799  0.00  0.00    -0.484 OA
BRANCH  17  18
ATOM     18  C   UNL     1      -0.694  -7.953   3.012  0.00  0.00    +0.256 C 
BRANCH  18  19
ATOM     19  C   UNL     1      -0.021  -8.950   3.920  0.00  0.00    +0.006 C 
ATOM     20  C   UNL     1      -0.178 -10.234   3.713  0.00  0.00    +0.007 C 
ENDBRANCH  18  19
ENDBRANCH  17  18
ENDBRANCH  11  17
ENDBRANCH   2   8
BRANCH   3  21
ATOM     21  C   UNL     1      -6.419  -3.929   1.189  0.00  0.00    +0.195 C 
ATOM     22  O   UNL     1      -6.707  -5.104   1.062  0.00  0.00    -0.287 OA
BRANCH  21  23
ATOM     23  C   UNL     1      -7.204  -3.071   2.098  0.00  0.00    +0.023 A 
ATOM     24  C   UNL     1      -6.960  -1.695   2.156  0.00  0.00    +0.015 A 
ATOM     25  C   UNL     1      -7.694  -0.897   3.000  0.00  0.00    +0.046 A 
ATOM     26  C   UNL     1      -8.690  -1.450   3.807  0.00  0.00    +0.124 A 
ATOM     27  C   UNL     1      -8.925  -2.822   3.751  0.00  0.00    -0.002 A 
ATOM     28  C   UNL     1      -8.204  -3.627   2.904  0.00  0.00    +0.019 A 
ATOM     29  C   UNL     1     -10.030  -3.124   4.744  0.00  0.00    +0.083 C 
ATOM     30  C   UNL     1     -10.059  -1.831   5.593  0.00  0.00    +0.175 C 
ATOM     31  O   UNL     1      -9.528  -0.845   4.691  0.00  0.00    -0.488 OA
ATOM     32  C   UNL     1     -11.492  -1.482   6.001  0.00  0.00    +0.052 C 
ENDBRANCH  21  23
ENDBRANCH   3  21
BRANCH   1  33
ATOM     33  C   UNL     1      -1.858  -1.790  -0.052  0.00  0.00    +0.109 C 
BRANCH  33  34
ATOM     34  C   UNL     1      -1.980  -0.271   0.084  0.00  0.00    +0.019 C 
BRANCH  34  36
ATOM     35  C   UNL     1      -0.704   1.868   0.292  0.00  0.00    +0.004 C 
ATOM     36  C   UNL     1      -0.583   0.349   0.156  0.00  0.00    -0.002 C 
ENDBRANCH  34  36
ENDBRANCH  33  34
ENDBRANCH   1  33
TORSDOF 11
