REMARK  Name = ZINC12250871
REMARK  10 active torsions:
REMARK  status: ('A' for Active; 'I' for Inactive)
REMARK    1  A    between atoms: C_1  and  C_2
REMARK    2  A    between atoms: C_7  and  N_8
REMARK    3  A    between atoms: C_9  and  C_11
REMARK    4  A    between atoms: C_12  and  C_38
REMARK    5  A    between atoms: C_14  and  S_27
REMARK    6  A    between atoms: C_15  and  C_25
REMARK    7  A    between atoms: C_16  and  C_18
REMARK    8  A    between atoms: S_27  and  C_28
REMARK    9  A    between atoms: C_28  and  C_29
REMARK   10  A    between atoms: N_31  and  C_32
REMARK                            x       y       z     vdW  Elec       q    Type
REMARK                         _______ _______ _______ _____ _____    ______ ____
ROOT
ATOM      1  C   UNL     1       1.057   1.966   0.098  0.00  0.00    +0.044 C 
ATOM      2  C   UNL     1       2.220   1.321   0.282  0.00  0.00    +0.014 C 
ATOM      3  N   UNL     1       3.410   1.996   0.279  0.00  0.00    -0.312 N 
ATOM      4  C   UNL     1       3.487   3.261  -0.262  0.00  0.00    +0.080 C 
ATOM      5  C   UNL     1       2.359   3.992  -0.469  0.00  0.00    +0.069 C 
ATOM      6  C   UNL     1       1.004   3.452  -0.116  0.00  0.00    +0.101 C 
ATOM      7  C   UNL     1       2.215  -0.171   0.495  0.00  0.00    +0.061 C 
ATOM      8  H   UNL     1       4.309   1.530   0.709  0.00  0.00    +0.152 HD
ENDROOT
BRANCH   6   9
ATOM      9  C   UNL     1       0.525   4.117   1.148  0.00  0.00    +0.000 A 
ATOM     10  C   UNL     1       1.241   3.971   2.321  0.00  0.00    +0.007 A 
ATOM     11  C   UNL     1       0.802   4.582   3.481  0.00  0.00    +0.000 A 
ATOM     12  C   UNL     1      -0.354   5.340   3.469  0.00  0.00    +0.003 A 
ATOM     13  C   UNL     1      -1.071   5.489   2.297  0.00  0.00    +0.038 A 
ATOM     14  C   UNL     1      -0.630   4.881   1.134  0.00  0.00    +0.127 A 
ATOM     15  F   UNL     1      -1.328   5.030  -0.013  0.00  0.00    -0.205 F 
ENDBRANCH   6   9
BRANCH   1  17
ATOM     16  N   UNL     1      -0.665   0.780   1.262  0.00  0.00    -0.281 N 
ATOM     17  C   UNL     1      -0.149   1.226   0.100  0.00  0.00    +0.247 C 
ATOM     18  O   UNL     1      -0.725   0.997  -0.949  0.00  0.00    -0.270 OA
ATOM     19  H   UNL     1      -0.181   1.043   2.215  0.00  0.00    +0.155 HD
BRANCH  16  26
ATOM     20  C   UNL     1      -1.085  -0.985   3.454  0.00  0.00    +0.045 C 
ATOM     21  C   UNL     1      -2.059  -0.891   2.308  0.00  0.00    -0.029 A 
ATOM     22  C   UNL     1      -3.195  -1.676   2.300  0.00  0.00    +0.005 A 
ATOM     23  C   UNL     1      -4.089  -1.591   1.249  0.00  0.00    +0.000 A 
ATOM     24  C   UNL     1      -3.849  -0.720   0.202  0.00  0.00    +0.002 A 
ATOM     25  C   UNL     1      -2.717   0.071   0.206  0.00  0.00    +0.023 A 
ATOM     26  C   UNL     1      -1.814  -0.016   1.258  0.00  0.00    +0.037 A 
ENDBRANCH  16  26
ENDBRANCH   1  17
BRANCH   5  27
ATOM     27  C   UNL     1       2.465   5.301  -1.040  0.00  0.00    +0.098 C 
ATOM     28  N   UNL     1       2.550   6.339  -1.494  0.00  0.00    -0.191 NA
ENDBRANCH   5  27
BRANCH   4  29
ATOM     29  S   UNL     1       5.057   3.936  -0.688  0.00  0.00    -0.100 S 
BRANCH  29  30
ATOM     30  C   UNL     1       6.132   2.562  -0.205  0.00  0.00    +0.171 C 
BRANCH  30  31
ATOM     31  C   UNL     1       7.567   2.924  -0.486  0.00  0.00    +0.227 C 
ATOM     32  O   UNL     1       7.838   4.004  -0.967  0.00  0.00    -0.275 OA
ATOM     33  N   UNL     1       8.551   2.047  -0.204  0.00  0.00    -0.285 N 
ATOM     34  H   UNL     1       8.315   1.098   0.300  0.00  0.00    +0.155 HD
BRANCH  33  35
ATOM     35  C   UNL     1       9.873   2.343  -0.553  0.00  0.00    +0.033 A 
ATOM     36  C   UNL     1      10.731   1.327  -0.956  0.00  0.00    +0.023 A 
ATOM     37  C   UNL     1      12.034   1.624  -1.305  0.00  0.00    +0.002 A 
ATOM     38  C   UNL     1      12.489   2.928  -1.242  0.00  0.00    +0.000 A 
ATOM     39  C   UNL     1      11.639   3.941  -0.836  0.00  0.00    +0.002 A 
ATOM     40  C   UNL     1      10.333   3.652  -0.491  0.00  0.00    +0.023 A 
ENDBRANCH  33  35
ENDBRANCH  30  31
ENDBRANCH  29  30
ENDBRANCH   4  29
TORSDOF 8
