REMARK  Name = ZINC57902415
REMARK  4 active torsions:
REMARK  status: ('A' for Active; 'I' for Inactive)
REMARK    1  A    between atoms: C_1  and  C_2
REMARK    2  A    between atoms: C_3  and  C_11
REMARK    3  A    between atoms: C_5  and  C_7
REMARK    4  A    between atoms: C_7  and  C_8
REMARK                            x       y       z     vdW  Elec       q    Type
REMARK                         _______ _______ _______ _____ _____    ______ ____
ROOT
ATOM      1  C   UNL     1      -0.018   1.503   0.010  0.00  0.00    +0.067 C 
ATOM      2  C   UNL     1       0.002  -0.004   0.002  0.00  0.00    +0.060 A 
ATOM      3  C   UNL     1       0.006  -0.732  -1.183  0.00  0.00    +0.123 A 
ATOM      4  S   UNL     1       0.033  -2.398  -0.540  0.00  0.00    -0.065 S 
ATOM      5  C   UNL     1       0.036  -2.015   1.099  0.00  0.00    +0.090 A 
ATOM      6  N   UNL     1       0.022  -0.701   1.109  0.00  0.00    -0.248 NA
ENDROOT
BRANCH   3   7
ATOM      7  C   UNL     1      -0.008  -0.264  -2.567  0.00  0.00    +0.395 C 
ATOM      8  O   UNL     1      -0.026   0.937  -2.808  0.00  0.00    -0.240 OA
ATOM      9  O   UNL     1      -0.001  -1.073  -3.487  0.00  0.00    -0.240 OA
ENDBRANCH   3   7
BRANCH   5  10
ATOM     10  C   UNL     1       0.055  -2.956   2.276  0.00  0.00    +0.187 C 
BRANCH  10  11
ATOM     11  C   UNL     1      -1.359  -3.290   2.675  0.00  0.00    +0.362 C 
ATOM     12  O   UNL     1      -2.296  -2.808   2.061  0.00  0.00    -0.246 OA
ATOM     13  O   UNL     1      -1.567  -4.042   3.612  0.00  0.00    -0.246 OA
ENDBRANCH  10  11
ENDBRANCH   5  10
TORSDOF 3
