REMARK  Name = ZINC40993950
REMARK  10 active torsions:
REMARK  status: ('A' for Active; 'I' for Inactive)
REMARK    1  A    between atoms: C_1  and  C_2
REMARK    2  A    between atoms: C_5  and  C_8
REMARK    3  A    between atoms: C_10  and  C_13
REMARK    4  A    between atoms: C_17  and  N_18
REMARK    5  A    between atoms: C_19  and  C_21
REMARK    6  A    between atoms: C_21  and  C_23
REMARK    7  A    between atoms: C_21  and  O_24
REMARK    8  A    between atoms: O_24  and  C_25
REMARK    9  A    between atoms: C_28  and  C_32
REMARK   10  A    between atoms: C_29  and  C_31
REMARK                            x       y       z     vdW  Elec       q    Type
REMARK                         _______ _______ _______ _____ _____    ______ ____
ROOT
ATOM      1  C   UNL     1      -0.335  -7.878   1.802  0.00  0.00    +0.071 A 
ATOM      2  C   UNL     1      -0.220  -9.261   1.375  0.00  0.00    -0.023 A 
ATOM      3  C   UNL     1       0.020 -10.168   2.349  0.00  0.00    -0.004 A 
ATOM      4  S   UNL     1       0.100  -9.219   3.844  0.00  0.00    -0.077 S 
ATOM      5  C   UNL     1      -0.186  -7.600   3.152  0.00  0.00    +0.085 A 
ATOM      6  C   UNL     1       0.180 -11.649   2.190  0.00  0.00    +0.043 C 
ATOM      7  C   UNL     1      -0.336 -12.045   0.800  0.00  0.00    +0.005 C 
ATOM      8  C   UNL     1       0.260 -11.089  -0.237  0.00  0.00    +0.005 C 
ATOM      9  C   UNL     1      -0.357  -9.700  -0.080  0.00  0.00    +0.037 C 
ENDROOT
BRANCH   1  12
ATOM     10  C   UNL     1      -0.947  -4.831  -0.016  0.00  0.00    +0.202 A 
ATOM     11  N   UNL     1      -0.712  -5.523   1.109  0.00  0.00    -0.187 NA
ATOM     12  C   UNL     1      -0.595  -6.804   0.831  0.00  0.00    +0.261 A 
ATOM     13  O   UNL     1      -0.755  -6.962  -0.496  0.00  0.00    -0.332 OA
ATOM     14  N   UNL     1      -0.988  -5.666  -1.027  0.00  0.00    -0.056 NA
BRANCH  10  19
ATOM     15  C   UNL     1      -1.680   0.872  -0.350  0.00  0.00    +0.044 C 
ATOM     16  C   UNL     1      -1.488  -0.620  -0.263  0.00  0.00    -0.050 A 
ATOM     17  C   UNL     1      -1.554  -1.392  -1.409  0.00  0.00    +0.004 A 
ATOM     18  C   UNL     1      -1.379  -2.759  -1.335  0.00  0.00    +0.012 A 
ATOM     19  C   UNL     1      -1.135  -3.361  -0.102  0.00  0.00    +0.022 A 
ATOM     20  C   UNL     1      -1.069  -2.579   1.049  0.00  0.00    +0.012 A 
ATOM     21  C   UNL     1      -1.240  -1.213   0.962  0.00  0.00    +0.004 A 
ENDBRANCH  10  19
ENDBRANCH   1  12
BRANCH   5  22
ATOM     22  N   UNL     1      -0.246  -6.373   3.801  0.00  0.00    -0.276 N 
ATOM     23  C   UNL     1      -0.073  -6.309   5.136  0.00  0.00    +0.258 C 
ATOM     24  O   UNL     1       0.135  -7.321   5.771  0.00  0.00    -0.271 OA
ATOM     25  H   UNL     1      -0.412  -5.564   3.294  0.00  0.00    +0.155 HD
BRANCH  23  26
ATOM     26  C   UNL     1      -0.138  -4.978   5.841  0.00  0.00    +0.256 C 
ATOM     27  C   UNL     1       1.021  -4.096   5.372  0.00  0.00    +0.062 C 
BRANCH  26  28
ATOM     28  O   UNL     1      -0.042  -5.181   7.252  0.00  0.00    -0.480 OA
BRANCH  28  29
ATOM     29  C   UNL     1      -0.582  -4.224   8.051  0.00  0.00    +0.122 A 
ATOM     30  C   UNL     1      -1.096  -3.062   7.494  0.00  0.00    +0.046 A 
ATOM     31  C   UNL     1      -1.645  -2.091   8.308  0.00  0.00    +0.007 A 
ATOM     32  C   UNL     1      -1.683  -2.276   9.678  0.00  0.00    -0.047 A 
ATOM     33  C   UNL     1      -1.171  -3.433  10.236  0.00  0.00    -0.044 A 
ATOM     34  C   UNL     1      -0.626  -4.409   9.425  0.00  0.00    +0.049 A 
ATOM     35  C   UNL     1      -1.214  -3.631  11.729  0.00  0.00    +0.044 C 
ATOM     36  C   UNL     1      -2.283  -1.215  10.564  0.00  0.00    +0.044 C 
ENDBRANCH  28  29
ENDBRANCH  26  28
ENDBRANCH  23  26
ENDBRANCH   5  22
TORSDOF 6
