REMARK  Name = ZINC03841461
REMARK  5 active torsions:
REMARK  status: ('A' for Active; 'I' for Inactive)
REMARK    1  A    between atoms: C_3  and  S_6
REMARK    2  A    between atoms: S_6  and  N_9
REMARK    3  A    between atoms: N_9  and  C_10
REMARK    4  A    between atoms: C_25  and  C_26
REMARK    5  A    between atoms: C_25  and  N_59
REMARK                            x       y       z     vdW  Elec       q    Type
REMARK                         _______ _______ _______ _____ _____    ______ ____
ROOT
ATOM      1  C   UNL     1       0.609   2.114  -0.101  0.00  0.00    +0.112 A 
ATOM      2  C   UNL     1       1.528   1.202  -0.543  0.00  0.00    +0.031 A 
ATOM      3  C   UNL     1       1.201  -0.159  -0.504  0.00  0.00    +0.023 A 
ATOM      4  C   UNL     1      -0.011  -0.566  -0.045  0.00  0.00    +0.023 A 
ATOM      5  N   UNL     1      -0.953   0.338   0.320  0.00  0.00    -0.310 N 
ATOM      6  C   UNL     1      -0.644   1.658   0.353  0.00  0.00    +0.274 A 
ATOM      7  O   UNL     1      -1.462   2.460   0.776  0.00  0.00    -0.266 OA
ATOM      8  C   UNL     1      -2.329  -0.029   0.654  0.00  0.00    +0.127 C 
ATOM      9  C   UNL     1      -2.468  -1.502   0.999  0.00  0.00    -0.007 C 
ATOM     10  C   UNL     1      -1.744  -2.343  -0.056  0.00  0.00    +0.011 C 
ATOM     11  C   UNL     1      -0.244  -2.056   0.074  0.00  0.00    +0.020 C 
ATOM     12  C   UNL     1       0.203  -2.483   1.482  0.00  0.00    -0.069 C 
ATOM     13  C   UNL     1      -1.940  -1.811   2.392  0.00  0.00    -0.074 C 
ATOM     14  N   UNL     1      -0.480  -1.597   2.452  0.00  0.00    +0.381 N 
ATOM     15  H   UNL     1      -0.276  -0.619   2.211  0.00  0.00    -0.082 HD
ENDROOT
BRANCH   1  16
ATOM     16  N   UNL     1       0.910   3.482  -0.101  0.00  0.00    -0.211 N 
ATOM     17  H   UNL     1       0.253   4.123   0.214  0.00  0.00    +0.174 HD
BRANCH  16  18
ATOM     18  S   UNL     1       2.386   4.005  -0.637  0.00  0.00    +0.079 S 
ATOM     19  O   UNL     1       2.375   5.423  -0.539  0.00  0.00    -0.149 OA
ATOM     20  O   UNL     1       3.362   3.204   0.015  0.00  0.00    -0.149 OA
BRANCH  18  23
ATOM     21  C   UNL     1       2.284   3.860  -4.692  0.00  0.00    +0.010 A 
ATOM     22  C   UNL     1       2.113   4.372  -3.419  0.00  0.00    +0.036 A 
ATOM     23  C   UNL     1       2.483   3.620  -2.354  0.00  0.00    +0.146 A 
ATOM     24  S   UNL     1       3.102   2.143  -3.141  0.00  0.00    -0.077 S 
ATOM     25  C   UNL     1       2.817   2.623  -4.837  0.00  0.00    +0.047 A 
ENDBRANCH  18  23
ENDBRANCH  16  18
ENDBRANCH   1  16
BRANCH  14  26
ATOM     26  C   UNL     1       0.014  -1.867   3.817  0.00  0.00    -0.075 C 
BRANCH  26  27
ATOM     27  C   UNL     1      -0.306  -3.305   4.231  0.00  0.00    -0.028 C 
ATOM     28  C   UNL     1      -0.568  -3.356   5.737  0.00  0.00    +0.002 C 
ATOM     29  C   UNL     1      -0.887  -4.795   6.150  0.00  0.00    +0.000 C 
ATOM     30  C   UNL     1       0.298  -5.699   5.807  0.00  0.00    +0.000 C 
ATOM     31  C   UNL     1       0.560  -5.647   4.301  0.00  0.00    +0.000 C 
ATOM     32  C   UNL     1       0.880  -4.209   3.888  0.00  0.00    +0.002 C 
ENDBRANCH  26  27
ENDBRANCH  14  26
TORSDOF 5
