REMARK  Name = ZINC35566698
REMARK  16 active torsions:
REMARK  status: ('A' for Active; 'I' for Inactive)
REMARK    1  A    between atoms: C_1  and  C_2
REMARK    2  A    between atoms: C_2  and  C_3
REMARK    3  A    between atoms: C_3  and  O_4
REMARK    4  A    between atoms: O_4  and  C_5
REMARK    5  A    between atoms: C_8  and  C_14
REMARK    6  A    between atoms: C_10  and  O_11
REMARK    7  A    between atoms: O_11  and  C_12
REMARK    8  A    between atoms: C_12  and  C_13
REMARK    9  A    between atoms: C_16  and  C_26
REMARK   10  A    between atoms: N_20  and  C_21
REMARK   11  A    between atoms: C_21  and  C_22
REMARK   12  A    between atoms: C_22  and  O_23
REMARK   13  A    between atoms: O_23  and  C_24
REMARK   14  A    between atoms: C_26  and  C_28
REMARK   15  A    between atoms: C_29  and  C_34
REMARK   16  A    between atoms: C_31  and  C_33
REMARK                            x       y       z     vdW  Elec       q    Type
REMARK                         _______ _______ _______ _____ _____    ______ ____
ROOT
ATOM      1  C   UNL     1      -5.857  -4.141   0.738  0.00  0.00    +0.145 C 
ATOM      2  C   UNL     1      -6.558  -4.699   1.954  0.00  0.00    +0.077 C 
ATOM      3  C   UNL     1      -7.851  -4.312   1.871  0.00  0.00    +0.249 C 
ATOM      4  C   UNL     1      -8.042  -3.514   0.643  0.00  0.00    +0.288 C 
ATOM      5  O   UNL     1      -9.095  -3.023   0.288  0.00  0.00    -0.266 OA
ATOM      6  N   UNL     1      -6.877  -3.411  -0.025  0.00  0.00    -0.281 N 
ATOM      7  O   UNL     1      -8.818  -4.610   2.771  0.00  0.00    -0.282 OA
ENDROOT
BRANCH   1  11
ATOM      8  C   UNL     1      -2.728  -1.480   1.932  0.00  0.00    +0.162 A 
ATOM      9  C   UNL     1      -2.478  -2.474   0.999  0.00  0.00    +0.050 A 
ATOM     10  C   UNL     1      -3.491  -3.333   0.616  0.00  0.00    +0.009 A 
ATOM     11  C   UNL     1      -4.756  -3.202   1.160  0.00  0.00    -0.019 A 
ATOM     12  C   UNL     1      -5.012  -2.212   2.090  0.00  0.00    +0.055 A 
ATOM     13  C   UNL     1      -3.999  -1.352   2.484  0.00  0.00    +0.162 A 
BRANCH   8  14
ATOM     14  O   UNL     1      -1.733  -0.635   2.311  0.00  0.00    -0.488 OA
BRANCH  14  15
ATOM     15  C   UNL     1      -0.454  -0.825   1.702  0.00  0.00    +0.229 C 
BRANCH  15  17
ATOM     16  C   UNL     1       1.899   0.008   1.597  0.00  0.00    +0.007 C 
ATOM     17  C   UNL     1       0.530   0.211   2.249  0.00  0.00    +0.038 C 
ENDBRANCH  15  17
ENDBRANCH  14  15
ENDBRANCH   8  14
BRANCH  13  18
ATOM     18  O   UNL     1      -4.248  -0.382   3.404  0.00  0.00    -0.489 OA
BRANCH  18  19
ATOM     19  C   UNL     1      -5.559  -0.347   3.971  0.00  0.00    +0.226 C 
ATOM     20  C   UNL     1      -5.654   0.811   4.966  0.00  0.00    +0.048 C 
ENDBRANCH  18  19
ENDBRANCH  13  18
ENDBRANCH   1  11
BRANCH   2  21
ATOM     21  C   UNL     1      -5.952  -5.507   3.019  0.00  0.00    +0.203 C 
ATOM     22  O   UNL     1      -6.589  -5.764   4.026  0.00  0.00    -0.286 OA
BRANCH  21  23
ATOM     23  C   UNL     1      -4.580  -6.005   2.873  0.00  0.00    +0.082 A 
ATOM     24  C   UNL     1      -3.761  -6.639   3.799  0.00  0.00    +0.057 A 
ATOM     25  N   UNL     1      -2.567  -6.976   3.381  0.00  0.00    -0.249 NA
ATOM     26  C   UNL     1      -2.169  -6.727   2.154  0.00  0.00    +0.076 A 
ATOM     27  S   UNL     1      -3.499  -5.971   1.452  0.00  0.00    -0.069 S 
ATOM     28  C   UNL     1      -0.839  -7.047   1.523  0.00  0.00    +0.073 C 
ATOM     29  C   UNL     1      -4.221  -6.923   5.206  0.00  0.00    +0.067 C 
ENDBRANCH  21  23
ENDBRANCH   2  21
BRANCH   6  30
ATOM     30  C   UNL     1      -6.665  -2.698  -1.286  0.00  0.00    +0.137 C 
BRANCH  30  31
ATOM     31  C   UNL     1      -6.903  -3.652  -2.458  0.00  0.00    +0.178 C 
BRANCH  31  32
ATOM     32  O   UNL     1      -8.275  -4.051  -2.476  0.00  0.00    -0.381 OA
ATOM     33  C   UNL     1      -8.605  -4.948  -3.538  0.00  0.00    +0.194 C 
ENDBRANCH  31  32
ENDBRANCH  30  31
ENDBRANCH   6  30
TORSDOF 11
