REMARK  Name = ZINC06177314
REMARK  5 active torsions:
REMARK  status: ('A' for Active; 'I' for Inactive)
REMARK    1  A    between atoms: C_1  and  C_2
REMARK    2  A    between atoms: C_5  and  N_32
REMARK    3  A    between atoms: C_14  and  C_16
REMARK    4  A    between atoms: C_16  and  N_17
REMARK    5  A    between atoms: N_32  and  C_33
REMARK                            x       y       z     vdW  Elec       q    Type
REMARK                         _______ _______ _______ _____ _____    ______ ____
ROOT
ATOM      1  C   UNL     1       4.835   6.329  -4.029  0.00  0.00    +0.028 C 
ATOM      2  C   UNL     1       5.695   7.140  -3.058  0.00  0.00    +0.081 C 
ATOM      3  C   UNL     1       7.180   6.854  -3.316  0.00  0.00    +0.049 C 
ATOM      4  C   UNL     1       8.021   7.727  -2.385  0.00  0.00    +0.104 C 
ATOM      5  C   UNL     1       7.555   7.578  -0.960  0.00  0.00    -0.006 A 
ATOM      6  C   UNL     1       8.418   7.926   0.066  0.00  0.00    +0.007 A 
ATOM      7  C   UNL     1       8.011   7.818   1.385  0.00  0.00    +0.000 A 
ATOM      8  C   UNL     1       6.745   7.348   1.686  0.00  0.00    +0.002 A 
ATOM      9  C   UNL     1       5.883   6.994   0.669  0.00  0.00    +0.024 A 
ATOM     10  C   UNL     1       6.286   7.110  -0.657  0.00  0.00    +0.042 A 
ATOM     11  N   UNL     1       5.396   6.741  -1.675  0.00  0.00    -0.267 N 
ATOM     12  C   UNL     1       4.281   6.039  -1.391  0.00  0.00    +0.238 C 
ATOM     13  O   UNL     1       4.118   5.586  -0.278  0.00  0.00    -0.273 OA
ENDROOT
BRANCH   4  14
ATOM     14  N   UNL     1       9.425   7.322  -2.479  0.00  0.00    -0.337 N 
ATOM     15  H   UNL     1       9.652   6.420  -2.756  0.00  0.00    +0.147 HD
BRANCH  14  16
ATOM     16  C   UNL     1      10.437   8.233  -2.170  0.00  0.00    +0.028 A 
ATOM     17  C   UNL     1      10.114   9.526  -1.779  0.00  0.00    +0.023 A 
ATOM     18  C   UNL     1      11.117  10.424  -1.470  0.00  0.00    +0.002 A 
ATOM     19  C   UNL     1      12.442  10.040  -1.560  0.00  0.00    +0.000 A 
ATOM     20  C   UNL     1      12.768   8.755  -1.954  0.00  0.00    +0.002 A 
ATOM     21  C   UNL     1      11.770   7.851  -2.259  0.00  0.00    +0.023 A 
ENDBRANCH  14  16
ENDBRANCH   4  14
BRANCH  12  22
ATOM     22  C   UNL     1       3.239   5.816  -2.456  0.00  0.00    +0.213 C 
BRANCH  22  23
ATOM     23  N   UNL     1       2.053   5.198  -1.857  0.00  0.00    -0.225 N 
ATOM     24  C   UNL     1       1.079   5.994  -1.376  0.00  0.00    +0.254 C 
ATOM     25  O   UNL     1       1.198   7.203  -1.446  0.00  0.00    -0.270 OA
ATOM     26  C   UNL     1      -0.126   5.411  -0.768  0.00  0.00    +0.046 A 
ATOM     27  C   UNL     1      -1.152   6.194  -0.260  0.00  0.00    +0.014 A 
ATOM     28  C   UNL     1      -2.272   5.596   0.306  0.00  0.00    +0.001 A 
ATOM     29  C   UNL     1      -2.394   4.238   0.385  0.00  0.00    +0.008 A 
ATOM     30  C   UNL     1      -1.379   3.409  -0.122  0.00  0.00    -0.016 A 
ATOM     31  C   UNL     1      -0.238   4.004  -0.700  0.00  0.00    +0.006 A 
ATOM     32  C   UNL     1       0.803   3.197  -1.213  0.00  0.00    +0.046 A 
ATOM     33  C   UNL     1       0.684   1.817  -1.141  0.00  0.00    +0.014 A 
ATOM     34  C   UNL     1      -0.445   1.243  -0.569  0.00  0.00    +0.001 A 
ATOM     35  C   UNL     1      -1.460   2.007  -0.068  0.00  0.00    +0.008 A 
ATOM     36  C   UNL     1       1.977   3.854  -1.807  0.00  0.00    +0.254 C 
ATOM     37  O   UNL     1       2.885   3.180  -2.256  0.00  0.00    -0.270 OA
ENDBRANCH  22  23
ENDBRANCH  12  22
TORSDOF 4
