REMARK  Name = ZINC63528961
REMARK  10 active torsions:
REMARK  status: ('A' for Active; 'I' for Inactive)
REMARK    1  A    between atoms: C_1  and  C_2
REMARK    2  A    between atoms: C_7  and  N_12
REMARK    3  A    between atoms: C_9  and  C_11
REMARK    4  A    between atoms: N_12  and  C_13
REMARK    5  A    between atoms: C_15  and  C_24
REMARK    6  A    between atoms: C_21  and  C_22
REMARK    7  A    between atoms: C_27  and  O_30
REMARK    8  A    between atoms: O_30  and  C_31
REMARK    9  A    between atoms: C_31  and  C_32
REMARK   10  A    between atoms: C_31  and  C_33
REMARK                            x       y       z     vdW  Elec       q    Type
REMARK                         _______ _______ _______ _____ _____    ______ ____
ROOT
ATOM      1  C   UNL     1      -0.124  -4.902   1.812  0.00  0.00    +0.226 C 
ATOM      2  C   UNL     1      -1.474  -5.406   1.346  0.00  0.00    +0.090 C 
ATOM      3  N   UNL     1      -2.153  -5.696   2.422  0.00  0.00    -0.228 NA
ATOM      4  C   UNL     1      -1.461  -5.462   3.552  0.00  0.00    +0.171 A 
ATOM      5  N   UNL     1      -0.214  -4.979   3.278  0.00  0.00    -0.222 N 
ATOM      6  N   UNL     1       0.460  -4.757   4.479  0.00  0.00    -0.175 NA
ATOM      7  C   UNL     1      -0.317  -5.083   5.475  0.00  0.00    +0.155 A 
ATOM      8  C   UNL     1      -1.555  -5.537   4.951  0.00  0.00    +0.115 A 
ENDROOT
BRANCH   2   9
ATOM      9  C   UNL     1      -1.930  -5.542  -0.044  0.00  0.00    -0.000 A 
ATOM     10  C   UNL     1      -1.080  -5.192  -1.099  0.00  0.00    +0.013 A 
ATOM     11  C   UNL     1      -1.512  -5.321  -2.400  0.00  0.00    +0.046 A 
ATOM     12  C   UNL     1      -2.791  -5.797  -2.666  0.00  0.00    +0.121 A 
ATOM     13  C   UNL     1      -3.639  -6.145  -1.622  0.00  0.00    +0.046 A 
ATOM     14  C   UNL     1      -3.215  -6.026  -0.318  0.00  0.00    +0.013 A 
BRANCH  12  15
ATOM     15  O   UNL     1      -3.212  -5.922  -3.950  0.00  0.00    -0.489 OA
BRANCH  15  16
ATOM     16  C   UNL     1      -2.337  -5.437  -4.971  0.00  0.00    +0.167 C 
ATOM     17  C   UNL     1      -1.313  -6.518  -5.321  0.00  0.00    +0.051 C 
ATOM     18  C   UNL     1      -3.152  -5.083  -6.216  0.00  0.00    +0.051 C 
ENDBRANCH  15  16
ENDBRANCH  12  15
ENDBRANCH   2   9
BRANCH   1  19
ATOM     19  N   UNL     1       0.088  -3.514   1.379  0.00  0.00    -0.287 NA
ATOM     20  H   UNL     1      -0.407  -2.869   1.977  0.00  0.00    +0.125 HD
BRANCH  19  26
ATOM     21  C   UNL     1       1.170   0.560   0.537  0.00  0.00    +0.008 C 
ATOM     22  C   UNL     1       0.982  -0.949   0.369  0.00  0.00    -0.010 C 
ATOM     23  C   UNL     1       1.557  -1.388  -0.979  0.00  0.00    +0.003 C 
ATOM     24  C   UNL     1       1.368  -2.897  -1.147  0.00  0.00    +0.002 C 
ATOM     25  C   UNL     1       2.096  -3.631  -0.018  0.00  0.00    +0.019 C 
ATOM     26  C   UNL     1       1.520  -3.191   1.330  0.00  0.00    +0.059 C 
ATOM     27  C   UNL     1       1.709  -1.682   1.498  0.00  0.00    +0.006 C 
ATOM     28  C   UNL     1       1.134  -1.243   2.845  0.00  0.00    +0.009 C 
ENDBRANCH  19  26
ENDBRANCH   1  19
BRANCH   8  29
ATOM     29  C   UNL     1      -2.685  -5.991   5.704  0.00  0.00    +0.104 C 
ATOM     30  N   UNL     1      -3.581  -6.351   6.302  0.00  0.00    -0.191 NA
ENDBRANCH   8  29
TORSDOF 6
