REMARK  Name = ZINC02100104
REMARK  6 active torsions:
REMARK  status: ('A' for Active; 'I' for Inactive)
REMARK    1  A    between atoms: C_1  and  O_2
REMARK    2  A    between atoms: O_2  and  C_3
REMARK    3  A    between atoms: C_7  and  C_11
REMARK    4  A    between atoms: C_8  and  O_9
REMARK    5  A    between atoms: O_9  and  C_10
REMARK    6  A    between atoms: N_30  and  C_33
REMARK                            x       y       z     vdW  Elec       q    Type
REMARK                         _______ _______ _______ _____ _____    ______ ____
ROOT
ATOM      1  C   UNL     1      -2.444  -2.910  -4.350  0.00  0.00    +0.158 C 
ATOM      2  C   UNL     1      -3.005  -1.914  -5.340  0.00  0.00    +0.046 A 
ATOM      3  C   UNL     1      -2.608  -0.625  -5.407  0.00  0.00    -0.015 A 
ATOM      4  C   UNL     1      -3.364  -0.004  -6.475  0.00  0.00    +0.003 A 
ATOM      5  C   UNL     1      -3.378   1.294  -6.996  0.00  0.00    +0.010 A 
ATOM      6  C   UNL     1      -4.242   1.536  -8.035  0.00  0.00    +0.001 A 
ATOM      7  C   UNL     1      -5.068   0.551  -8.550  0.00  0.00    +0.002 A 
ATOM      8  C   UNL     1      -5.074  -0.742  -8.055  0.00  0.00    +0.026 A 
ATOM      9  C   UNL     1      -4.206  -1.017  -7.000  0.00  0.00    +0.047 A 
ATOM     10  N   UNL     1      -3.961  -2.157  -6.290  0.00  0.00    -0.356 N 
ATOM     11  H   UNL     1      -4.398  -3.011  -6.436  0.00  0.00    +0.166 HD
ATOM     12  C   UNL     1      -1.571   0.002  -4.510  0.00  0.00    +0.069 C 
ATOM     13  C   UNL     1      -0.755  -1.113  -3.841  0.00  0.00    +0.167 C 
ATOM     14  N   UNL     1      -1.665  -2.147  -3.351  0.00  0.00    -0.276 N 
ATOM     15  C   UNL     1      -1.818  -2.432  -2.056  0.00  0.00    +0.234 C 
ATOM     16  O   UNL     1      -2.648  -3.263  -1.754  0.00  0.00    -0.274 OA
ATOM     17  C   UNL     1      -1.035  -1.796  -0.954  0.00  0.00    +0.204 C 
ATOM     18  N   UNL     1      -0.057  -0.846  -1.456  0.00  0.00    -0.288 N 
ATOM     19  C   UNL     1       0.076  -0.531  -2.743  0.00  0.00    +0.237 C 
ATOM     20  O   UNL     1       0.930   0.277  -3.045  0.00  0.00    -0.274 OA
ENDROOT
BRANCH   1  25
ATOM     21  C   UNL     1      -4.464  -5.656  -2.705  0.00  0.00    +0.162 A 
ATOM     22  C   UNL     1      -5.645  -4.990  -2.417  0.00  0.00    +0.049 A 
ATOM     23  C   UNL     1      -5.786  -3.657  -2.756  0.00  0.00    +0.004 A 
ATOM     24  C   UNL     1      -4.749  -2.984  -3.376  0.00  0.00    +0.010 A 
ATOM     25  C   UNL     1      -3.571  -3.645  -3.670  0.00  0.00    +0.024 A 
ATOM     26  C   UNL     1      -3.423  -4.981  -3.333  0.00  0.00    +0.167 A 
BRANCH  21  28
ATOM     27  C   UNL     1      -5.434  -7.596  -1.730  0.00  0.00    +0.277 C 
ATOM     28  O   UNL     1      -4.324  -6.968  -2.373  0.00  0.00    -0.491 OA
ENDBRANCH  21  28
BRANCH  26  29
ATOM     29  O   UNL     1      -2.262  -5.630  -3.618  0.00  0.00    -0.491 OA
ATOM     30  C   UNL     1      -1.242  -5.603  -2.618  0.00  0.00    +0.277 C 
ENDBRANCH  26  29
ENDBRANCH   1  25
BRANCH  18  31
ATOM     31  C   UNL     1       0.829  -0.192  -0.491  0.00  0.00    +0.077 C 
ATOM     32  C   UNL     1       1.661  -1.246   0.260  0.00  0.00    +0.022 C 
ATOM     33  C   UNL     1       1.305  -1.109   1.754  0.00  0.00    +0.002 C 
ATOM     34  C   UNL     1       0.788   0.345   1.889  0.00  0.00    +0.002 C 
ATOM     35  C   UNL     1      -0.005   0.550   0.574  0.00  0.00    +0.022 C 
ENDBRANCH  18  31
TORSDOF 4
