REMARK  Name = ZINC38740240
REMARK  4 active torsions:
REMARK  status: ('A' for Active; 'I' for Inactive)
REMARK    1  A    between atoms: C_13  and  C_15
REMARK    2  A    between atoms: C_21  and  C_23
REMARK    3  A    between atoms: C_28  and  C_31
REMARK    4  A    between atoms: C_28  and  O_38
REMARK                            x       y       z     vdW  Elec       q    Type
REMARK                         _______ _______ _______ _____ _____    ______ ____
ROOT
ATOM      1  C   UNL     1       0.116  -6.660   1.100  0.00  0.00    +0.087 C 
ATOM      2  C   UNL     1      -0.745  -6.220   2.286  0.00  0.00    +0.013 C 
ATOM      3  C   UNL     1       0.041  -6.410   3.585  0.00  0.00    +0.001 C 
ATOM      4  C   UNL     1       0.413  -7.885   3.745  0.00  0.00    +0.001 C 
ATOM      5  C   UNL     1       1.275  -8.325   2.559  0.00  0.00    +0.013 C 
ATOM      6  C   UNL     1       0.489  -8.135   1.260  0.00  0.00    +0.087 C 
ENDROOT
BRANCH   1  19
ATOM      7  C   UNL     1       2.167   1.096  -1.561  0.00  0.00    +0.005 A 
ATOM      8  C   UNL     1       0.913   1.636  -1.816  0.00  0.00    +0.018 A 
ATOM      9  C   UNL     1      -0.198   0.819  -1.764  0.00  0.00    +0.084 A 
ATOM     10  N   UNL     1      -0.082  -0.464  -1.477  0.00  0.00    -0.350 N 
ATOM     11  C   UNL     1       1.095  -1.016  -1.228  0.00  0.00    +0.099 A 
ATOM     12  C   UNL     1       2.257  -0.252  -1.263  0.00  0.00    +0.042 A 
ATOM     13  N   UNL     1       1.171  -2.372  -0.930  0.00  0.00    -0.314 N 
ATOM     14  C   UNL     1       2.475  -3.031  -0.775  0.00  0.00    +0.125 C 
ATOM     15  C   UNL     1       2.520  -3.714   0.598  0.00  0.00    +0.126 C 
ATOM     16  N   UNL     1       1.297  -4.513   0.765  0.00  0.00    -0.298 N 
ATOM     17  C   UNL     1      -0.007  -3.853   0.610  0.00  0.00    +0.126 C 
ATOM     18  C   UNL     1      -0.051  -3.169  -0.757  0.00  0.00    +0.125 C 
ATOM     19  C   UNL     1       1.371  -5.827   1.054  0.00  0.00    +0.219 C 
ATOM     20  O   UNL     1       2.447  -6.339   1.278  0.00  0.00    -0.275 OA
ATOM     21  H   UNL     1      -0.879  -1.016  -1.448  0.00  0.00    +0.166 HD
ENDBRANCH   1  19
BRANCH   6  22
ATOM     22  C   UNL     1       1.337  -8.568   0.092  0.00  0.00    +0.219 C 
ATOM     23  O   UNL     1       2.542  -8.436   0.135  0.00  0.00    -0.275 OA
ATOM     24  N   UNL     1       0.757  -9.103  -1.001  0.00  0.00    -0.301 N 
ATOM     25  C   UNL     1      -0.707  -9.171  -1.114  0.00  0.00    +0.111 C 
ATOM     26  C   UNL     1      -1.130  -8.516  -2.433  0.00  0.00    +0.058 C 
ATOM     27  C   UNL     1      -0.379  -9.179  -3.590  0.00  0.00    +0.094 C 
ATOM     28  C   UNL     1       1.127  -8.971  -3.409  0.00  0.00    +0.058 C 
ATOM     29  C   UNL     1       1.575  -9.625  -2.104  0.00  0.00    +0.111 C 
BRANCH  27  30
ATOM     30  C   UNL     1      -0.818  -8.561  -4.893  0.00  0.00    -0.016 A 
ATOM     31  C   UNL     1      -1.225  -7.240  -4.928  0.00  0.00    +0.008 A 
ATOM     32  C   UNL     1      -1.628  -6.673  -6.122  0.00  0.00    +0.020 A 
ATOM     33  C   UNL     1      -1.623  -7.427  -7.283  0.00  0.00    +0.041 A 
ATOM     34  C   UNL     1      -1.214  -8.748  -7.246  0.00  0.00    +0.020 A 
ATOM     35  C   UNL     1      -0.807  -9.313  -6.053  0.00  0.00    +0.008 A 
ATOM     36 CL   UNL     1      -2.129  -6.715  -8.783  0.00  0.00    -0.084 Cl
ENDBRANCH  27  30
BRANCH  27  37
ATOM     37  O   UNL     1      -0.667 -10.578  -3.606  0.00  0.00    -0.384 OA
ATOM     38  H   UNL     1      -0.224 -11.063  -4.316  0.00  0.00    +0.211 HD
ENDBRANCH  27  37
ENDBRANCH   6  22
TORSDOF 4
