REMARK  Name = ZINC64623231
REMARK  9 active torsions:
REMARK  status: ('A' for Active; 'I' for Inactive)
REMARK    1  A    between atoms: C_1  and  C_2
REMARK    2  A    between atoms: C_5  and  C_8
REMARK    3  A    between atoms: C_15  and  O_20
REMARK    4  A    between atoms: O_20  and  C_21
REMARK    5  A    between atoms: N_27  and  C_28
REMARK    6  A    between atoms: C_30  and  O_36
REMARK    7  A    between atoms: C_33  and  O_34
REMARK    8  A    between atoms: O_34  and  C_35
REMARK    9  A    between atoms: O_36  and  C_37
REMARK                            x       y       z     vdW  Elec       q    Type
REMARK                         _______ _______ _______ _____ _____    ______ ____
ROOT
ATOM      1  C   UNL     1      -0.775  -4.589  -0.410  0.00  0.00    +0.134 C 
ATOM      2  C   UNL     1       0.737  -4.780  -0.567  0.00  0.00    +0.131 C 
ATOM      3  C   UNL     1       1.055  -6.176  -0.045  0.00  0.00    -0.035 C 
ATOM      4  C   UNL     1       1.672  -6.814  -1.032  0.00  0.00    +0.003 A 
ATOM      5  C   UNL     1       2.276  -8.153  -1.111  0.00  0.00    +0.055 A 
ATOM      6  C   UNL     1       2.828  -8.505  -2.304  0.00  0.00    +0.121 A 
ATOM      7  C   UNL     1       2.849  -7.674  -3.434  0.00  0.00    +0.047 A 
ATOM      8  C   UNL     1       2.327  -6.421  -3.470  0.00  0.00    +0.029 A 
ATOM      9  C   UNL     1       1.704  -5.926  -2.235  0.00  0.00    +0.043 A 
ATOM     10  N   UNL     1       1.146  -4.759  -1.973  0.00  0.00    -0.375 N 
ATOM     11  C   UNL     1       0.624  -6.648   1.322  0.00  0.00    +0.052 C 
ATOM     12  C   UNL     1      -0.881  -6.342   1.442  0.00  0.00    +0.114 C 
ATOM     13  N   UNL     1      -1.142  -4.982   0.959  0.00  0.00    -0.276 N 
ATOM     14  C   UNL     1      -1.722  -4.083   1.779  0.00  0.00    +0.307 C 
ATOM     15  O   UNL     1      -2.067  -3.000   1.347  0.00  0.00    -0.252 OA
ATOM     16  N   UNL     1      -1.919  -4.385   3.078  0.00  0.00    -0.266 N 
ATOM     17  H   UNL     1      -1.571  -5.214   3.442  0.00  0.00    +0.156 HD
ATOM     18  H   UNL     1       1.020  -4.021  -2.589  0.00  0.00    +0.160 HD
ENDROOT
BRANCH   1  23
ATOM     19  C   UNL     1      -2.148   0.956  -1.284  0.00  0.00    +0.044 C 
ATOM     20  C   UNL     1      -1.790  -0.490  -1.056  0.00  0.00    -0.050 A 
ATOM     21  C   UNL     1      -2.571  -1.490  -1.605  0.00  0.00    +0.004 A 
ATOM     22  C   UNL     1      -2.242  -2.817  -1.396  0.00  0.00    +0.006 A 
ATOM     23  C   UNL     1      -1.133  -3.143  -0.639  0.00  0.00    -0.025 A 
ATOM     24  C   UNL     1      -0.352  -2.143  -0.090  0.00  0.00    +0.006 A 
ATOM     25  C   UNL     1      -0.678  -0.816  -0.303  0.00  0.00    +0.004 A 
ENDBRANCH   1  23
BRANCH  16  26
ATOM     26  C   UNL     1      -2.627  -3.500   3.903  0.00  0.00    +0.080 A 
ATOM     27  C   UNL     1      -2.612  -2.139   3.637  0.00  0.00    +0.072 A 
ATOM     28  C   UNL     1      -3.314  -1.266   4.454  0.00  0.00    +0.122 A 
ATOM     29  C   UNL     1      -4.030  -1.754   5.537  0.00  0.00    +0.049 A 
ATOM     30  C   UNL     1      -4.046  -3.110   5.805  0.00  0.00    +0.051 A 
ATOM     31  C   UNL     1      -3.352  -3.987   4.988  0.00  0.00    +0.141 A 
BRANCH  31  32
ATOM     32  O   UNL     1      -3.373  -5.322   5.248  0.00  0.00    -0.493 OA
ATOM     33  C   UNL     1      -4.137  -5.750   6.378  0.00  0.00    +0.277 C 
ENDBRANCH  31  32
BRANCH  28  34
ATOM     34  O   UNL     1      -3.299   0.068   4.194  0.00  0.00    -0.495 OA
ATOM     35  C   UNL     1      -4.044   0.909   5.077  0.00  0.00    +0.277 C 
ENDBRANCH  28  34
ENDBRANCH  16  26
BRANCH   6  36
ATOM     36  O   UNL     1       3.394  -9.736  -2.407  0.00  0.00    -0.495 OA
ATOM     37  C   UNL     1       3.967 -10.083  -3.669  0.00  0.00    +0.277 C 
ENDBRANCH   6  36
TORSDOF 5
