REMARK  Name = ZINC08859203
REMARK  12 active torsions:
REMARK  status: ('A' for Active; 'I' for Inactive)
REMARK    1  A    between atoms: C_1  and  C_2
REMARK    2  A    between atoms: C_5  and  C_8
REMARK    3  A    between atoms: C_8  and  C_9
REMARK    4  A    between atoms: N_11  and  C_12
REMARK    5  A    between atoms: C_12  and  C_14
REMARK    6  A    between atoms: C_12  and  N_18
REMARK    7  A    between atoms: N_18  and  C_19
REMARK    8  A    between atoms: C_19  and  N_21
REMARK    9  A    between atoms: N_21  and  C_22
REMARK   10  A    between atoms: C_25  and  O_31
REMARK   11  A    between atoms: C_27  and  N_28
REMARK   12  A    between atoms: O_31  and  C_32
REMARK                            x       y       z     vdW  Elec       q    Type
REMARK                         _______ _______ _______ _____ _____    ______ ____
ROOT
ATOM      1  C   UNL     1       0.938   6.296   2.947  0.00  0.00    +0.211 C 
ENDROOT
BRANCH   1   4
ATOM      2  C   UNL     1       1.457   4.212   1.797  0.00  0.00    +0.219 C 
ATOM      3  O   UNL     1       1.576   3.678   2.879  0.00  0.00    -0.275 OA
ATOM      4  N   UNL     1       1.140   5.519   1.721  0.00  0.00    -0.293 N 
ATOM      5  H   UNL     1       1.044   5.946   0.855  0.00  0.00    +0.151 HD
BRANCH   2   6
ATOM      6  C   UNL     1       1.665   3.413   0.536  0.00  0.00    +0.131 C 
BRANCH   6  11
ATOM      7  C   UNL     1       2.980  -2.045   1.906  0.00  0.00    +0.044 C 
ATOM      8  C   UNL     1       2.637  -0.622   1.549  0.00  0.00    -0.050 A 
ATOM      9  C   UNL     1       1.316  -0.252   1.374  0.00  0.00    +0.003 A 
ATOM     10  C   UNL     1       1.002   1.054   1.046  0.00  0.00    +0.004 A 
ATOM     11  C   UNL     1       2.008   1.990   0.894  0.00  0.00    -0.039 A 
ATOM     12  C   UNL     1       3.328   1.620   1.069  0.00  0.00    +0.004 A 
ATOM     13  C   UNL     1       3.643   0.315   1.397  0.00  0.00    +0.003 A 
ENDBRANCH   6  11
ENDBRANCH   2   6
ENDBRANCH   1   4
BRANCH   1  14
ATOM     14  C   UNL     1       1.662   7.638   2.825  0.00  0.00    +0.225 C 
ATOM     15 CL   UNL     1       1.001   8.553   1.419  0.00  0.00    -0.080 Cl
ATOM     16 CL   UNL     1       1.414   8.594   4.333  0.00  0.00    -0.080 Cl
ATOM     17 CL   UNL     1       3.425   7.350   2.579  0.00  0.00    -0.080 Cl
ENDBRANCH   1  14
BRANCH   1  18
ATOM     18  N   UNL     1      -0.494   6.530   3.146  0.00  0.00    -0.305 N 
ATOM     19  H   UNL     1      -0.959   7.186   2.603  0.00  0.00    +0.150 HD
BRANCH  18  20
ATOM     20  C   UNL     1      -1.166   5.835   4.085  0.00  0.00    +0.136 C 
ATOM     21  S   UNL     1      -0.346   4.679   5.045  0.00  0.00    -0.019 S 
BRANCH  20  22
ATOM     22  N   UNL     1      -2.484   6.051   4.269  0.00  0.00    -0.295 N 
ATOM     23  H   UNL     1      -2.931   6.763   3.786  0.00  0.00    +0.154 HD
BRANCH  22  24
ATOM     24  C   UNL     1      -3.208   5.246   5.158  0.00  0.00    +0.063 A 
ATOM     25  C   UNL     1      -3.058   3.866   5.125  0.00  0.00    +0.029 A 
ATOM     26  C   UNL     1      -3.772   3.073   6.002  0.00  0.00    +0.047 A 
ATOM     27  C   UNL     1      -4.640   3.655   6.914  0.00  0.00    +0.122 A 
ATOM     28  C   UNL     1      -4.790   5.033   6.948  0.00  0.00    +0.080 A 
ATOM     29  C   UNL     1      -4.073   5.828   6.075  0.00  0.00    +0.151 A 
BRANCH  29  30
ATOM     30  N   UNL     1      -4.229   7.299   6.115  0.00  0.00    +0.058 N 
ATOM     31  O   UNL     1      -5.045   7.805   6.864  0.00  0.00    -0.126 OA
ATOM     32  O   UNL     1      -3.541   8.004   5.398  0.00  0.00    -0.126 OA
ENDBRANCH  29  30
BRANCH  27  33
ATOM     33  O   UNL     1      -5.343   2.874   7.777  0.00  0.00    -0.495 OA
ATOM     34  C   UNL     1      -5.139   1.462   7.688  0.00  0.00    +0.277 C 
ENDBRANCH  27  33
ENDBRANCH  22  24
ENDBRANCH  20  22
ENDBRANCH  18  20
ENDBRANCH   1  18
TORSDOF 10
