REMARK  Name = ZINC39845801
REMARK  6 active torsions:
REMARK  status: ('A' for Active; 'I' for Inactive)
REMARK    1  A    between atoms: C_5  and  C_7
REMARK    2  A    between atoms: C_9  and  S_21
REMARK    3  A    between atoms: C_10  and  N_12
REMARK    4  A    between atoms: N_12  and  C_13
REMARK    5  A    between atoms: C_13  and  C_14
REMARK    6  A    between atoms: S_21  and  C_24
REMARK                            x       y       z     vdW  Elec       q    Type
REMARK                         _______ _______ _______ _____ _____    ______ ____
ROOT
ATOM      1  C   UNL     1       1.250  -2.159  -0.022  0.00  0.00    +0.234 A 
ATOM      2  N   UNL     1       0.198  -2.944  -0.021  0.00  0.00    -0.188 NA
ATOM      3  C   UNL     1       0.612  -4.220  -0.031  0.00  0.00    +0.243 A 
ATOM      4  C   UNL     1       1.967  -4.214  -0.038  0.00  0.00    +0.233 A 
ATOM      5  O   UNL     1       2.359  -2.924  -0.038  0.00  0.00    -0.420 OA
ENDROOT
BRANCH   1  10
ATOM      6  C   UNL     1      -0.017   1.375   0.010  0.00  0.00    +0.001 A 
ATOM      7  C   UNL     1       1.170   2.087   0.002  0.00  0.00    +0.003 A 
ATOM      8  C   UNL     1       2.383   1.424  -0.013  0.00  0.00    +0.039 A 
ATOM      9  C   UNL     1       2.418   0.042  -0.021  0.00  0.00    +0.136 A 
ATOM     10  C   UNL     1       1.222  -0.683  -0.013  0.00  0.00    +0.072 A 
ATOM     11  C   UNL     1       0.002  -0.004   0.002  0.00  0.00    +0.016 A 
ATOM     12  F   UNL     1       3.603  -0.606  -0.037  0.00  0.00    -0.205 F 
ENDBRANCH   1  10
BRANCH   3  13
ATOM     13  S   UNL     1      -0.421  -5.647  -0.033  0.00  0.00    +0.047 S 
ATOM     14  O   UNL     1       0.353  -6.709   0.508  0.00  0.00    -0.163 OA
ATOM     15  O   UNL     1      -1.665  -5.249   0.527  0.00  0.00    -0.163 OA
BRANCH  13  16
ATOM     16  C   UNL     1      -0.735  -6.060  -1.716  0.00  0.00    +0.096 A 
ATOM     17  C   UNL     1      -1.825  -5.516  -2.369  0.00  0.00    +0.029 A 
ATOM     18  C   UNL     1      -2.073  -5.840  -3.690  0.00  0.00    +0.022 A 
ATOM     19  C   UNL     1      -1.229  -6.709  -4.359  0.00  0.00    +0.041 A 
ATOM     20  C   UNL     1      -0.138  -7.253  -3.705  0.00  0.00    +0.022 A 
ATOM     21  C   UNL     1       0.111  -6.924  -2.386  0.00  0.00    +0.029 A 
ATOM     22 CL   UNL     1      -1.539  -7.116  -6.018  0.00  0.00    -0.084 Cl
ENDBRANCH  13  16
ENDBRANCH   3  13
BRANCH   4  23
ATOM     23  N   UNL     1       2.798  -5.330  -0.048  0.00  0.00    -0.308 N 
ATOM     24  H   UNL     1       2.414  -6.221  -0.051  0.00  0.00    +0.149 HD
BRANCH  23  25
ATOM     25  C   UNL     1       4.253  -5.159  -0.055  0.00  0.00    +0.139 C 
BRANCH  25  26
ATOM     26  C   UNL     1       4.917  -6.512  -0.066  0.00  0.00    -0.030 A 
ATOM     27  C   UNL     1       5.223  -7.141   1.127  0.00  0.00    +0.006 A 
ATOM     28  C   UNL     1       5.832  -8.382   1.118  0.00  0.00    +0.020 A 
ATOM     29  C   UNL     1       6.136  -8.994  -0.085  0.00  0.00    +0.041 A 
ATOM     30  C   UNL     1       5.830  -8.364  -1.278  0.00  0.00    +0.020 A 
ATOM     31  C   UNL     1       5.215  -7.126  -1.268  0.00  0.00    +0.006 A 
ATOM     32 CL   UNL     1       6.901 -10.552  -0.098  0.00  0.00    -0.084 Cl
ENDBRANCH  25  26
ENDBRANCH  23  25
ENDBRANCH   4  23
TORSDOF 6
