REMARK  Name = ZINC43548919
REMARK  11 active torsions:
REMARK  status: ('A' for Active; 'I' for Inactive)
REMARK    1  A    between atoms: C_1  and  C_2
REMARK    2  A    between atoms: C_2  and  N_3
REMARK    3  A    between atoms: N_3  and  C_4
REMARK    4  A    between atoms: C_4  and  C_5
REMARK    5  A    between atoms: C_6  and  C_8
REMARK    6  A    between atoms: C_8  and  C_10
REMARK    7  A    between atoms: C_8  and  C_11
REMARK    8  A    between atoms: C_15  and  C_36
REMARK    9  A    between atoms: C_20  and  C_22
REMARK   10  A    between atoms: C_28  and  C_35
REMARK   11  A    between atoms: C_32  and  O_34
REMARK                            x       y       z     vdW  Elec       q    Type
REMARK                         _______ _______ _______ _____ _____    ______ ____
ROOT
ATOM      1  C   UNL     1      -0.733  -1.854   2.771  0.00  0.00    +0.029 C 
ATOM      2  C   UNL     1      -1.206  -3.300   2.614  0.00  0.00    +0.007 C 
ATOM      3  C   UNL     1      -1.477  -3.911   3.992  0.00  0.00    +0.008 C 
ATOM      4  C   UNL     1      -0.195  -3.853   4.821  0.00  0.00    -0.022 C 
ATOM      5  C   UNL     1      -0.402  -4.521   6.182  0.00  0.00    +0.051 C 
ATOM      6  C   UNL     1      -1.204  -3.613   7.048  0.00  0.00    +0.014 A 
ATOM      7  C   UNL     1      -1.484  -2.295   6.843  0.00  0.00    +0.055 A 
ATOM      8  N   UNL     1      -2.221  -1.684   7.762  0.00  0.00    -0.243 NA
ATOM      9  C   UNL     1      -2.678  -2.307   8.835  0.00  0.00    +0.110 A 
ATOM     10  S   UNL     1      -2.026  -3.954   8.583  0.00  0.00    -0.072 S 
ATOM     11  C   UNL     1      -0.958  -1.591   5.598  0.00  0.00    +0.042 C 
ATOM     12  C   UNL     1       0.212  -2.389   5.014  0.00  0.00    +0.033 C 
ATOM     13  C   UNL     1       0.535  -1.810   3.626  0.00  0.00    +0.123 C 
ATOM     14  C   UNL     1      -0.481  -0.185   5.970  0.00  0.00    +0.014 C 
ATOM     15  C   UNL     1       0.919  -4.593   4.078  0.00  0.00    +0.012 C 
ENDROOT
BRANCH   9  16
ATOM     16  C   UNL     1      -3.504  -1.784   9.944  0.00  0.00    +0.025 A 
ATOM     17  C   UNL     1      -3.882  -2.616  11.004  0.00  0.00    +0.013 A 
ATOM     18  C   UNL     1      -4.656  -2.077  12.017  0.00  0.00    +0.020 A 
ATOM     19  C   UNL     1      -5.027  -0.746  11.951  0.00  0.00    +0.111 A 
ATOM     20  N   UNL     1      -4.656   0.015  10.940  0.00  0.00    -0.263 NA
ATOM     21  C   UNL     1      -3.915  -0.450   9.955  0.00  0.00    +0.121 A 
ENDBRANCH   9  16
BRANCH   1  22
ATOM     22  C   UNL     1      -0.435  -1.265   1.390  0.00  0.00    +0.078 C 
ATOM     23  C   UNL     1       0.033   0.183   1.544  0.00  0.00    +0.017 C 
BRANCH  22  25
ATOM     24  N   UNL     1      -1.591  -1.430  -0.790  0.00  0.00    -0.302 N 
ATOM     25  C   UNL     1      -1.684  -1.303   0.548  0.00  0.00    +0.219 C 
ATOM     26  O   UNL     1      -2.774  -1.218   1.075  0.00  0.00    -0.275 OA
BRANCH  24  28
ATOM     27  C   UNL     1      -3.196  -3.068  -1.639  0.00  0.00    +0.024 C 
ATOM     28  C   UNL     1      -2.803  -1.590  -1.597  0.00  0.00    +0.104 C 
ENDBRANCH  24  28
BRANCH  24  29
ATOM     29  C   UNL     1      -0.278  -1.407  -1.439  0.00  0.00    +0.104 C 
ATOM     30  C   UNL     1       0.011   0.003  -1.957  0.00  0.00    +0.024 C 
ENDBRANCH  24  29
ENDBRANCH  22  25
ENDBRANCH   1  22
BRANCH  13  31
ATOM     31  O   UNL     1       1.559  -2.591   3.006  0.00  0.00    -0.391 OA
ATOM     32  H   UNL     1       1.803  -2.288   2.120  0.00  0.00    +0.210 HD
ENDBRANCH  13  31
TORSDOF 6
