REMARK  Name = ZINC13133938
REMARK  7 active torsions:
REMARK  status: ('A' for Active; 'I' for Inactive)
REMARK    1  A    between atoms: C_1  and  O_2
REMARK    2  A    between atoms: O_2  and  C_3
REMARK    3  A    between atoms: C_3  and  C_5
REMARK    4  A    between atoms: C_10  and  N_11
REMARK    5  A    between atoms: N_11  and  S_12
REMARK    6  A    between atoms: S_12  and  C_15
REMARK    7  A    between atoms: C_18  and  C_21
REMARK                            x       y       z     vdW  Elec       q    Type
REMARK                         _______ _______ _______ _____ _____    ______ ____
ROOT
ATOM      1  S   UNL     1       1.118  -0.576   6.199  0.00  0.00    +0.072 S 
ATOM      2  O   UNL     1       2.397  -1.166   6.010  0.00  0.00    -0.150 OA
ATOM      3  O   UNL     1       0.776   0.141   7.377  0.00  0.00    -0.150 OA
ENDROOT
BRANCH   1   4
ATOM      4  C   UNL     1      -0.064  -1.873   6.037  0.00  0.00    +0.109 A 
ATOM      5  C   UNL     1      -1.304  -1.755   6.636  0.00  0.00    +0.029 A 
ATOM      6  C   UNL     1      -2.234  -2.770   6.505  0.00  0.00    +0.006 A 
ATOM      7  C   UNL     1      -1.919  -3.907   5.785  0.00  0.00    -0.041 A 
ATOM      8  C   UNL     1      -0.676  -4.027   5.190  0.00  0.00    +0.006 A 
ATOM      9  C   UNL     1       0.251  -3.009   5.317  0.00  0.00    +0.029 A 
BRANCH   7  10
ATOM     10  C   UNL     1      -2.929  -5.017   5.647  0.00  0.00    -0.003 C 
ATOM     11  C   UNL     1      -2.357  -6.304   6.243  0.00  0.00    +0.015 C 
ATOM     12  C   UNL     1      -3.383  -7.431   6.103  0.00  0.00    -0.010 C 
ATOM     13  C   UNL     1      -4.664  -7.049   6.849  0.00  0.00    +0.007 C 
ATOM     14  C   UNL     1      -5.236  -5.761   6.253  0.00  0.00    -0.010 C 
ATOM     15  C   UNL     1      -4.210  -4.635   6.393  0.00  0.00    +0.015 C 
ATOM     16  C   UNL     1      -5.554  -5.981   4.773  0.00  0.00    +0.007 C 
ATOM     17  C   UNL     1      -4.273  -6.363   4.027  0.00  0.00    -0.010 C 
ATOM     18  C   UNL     1      -3.701  -7.651   4.623  0.00  0.00    +0.007 C 
ATOM     19  C   UNL     1      -3.247  -5.237   4.167  0.00  0.00    +0.015 C 
ENDBRANCH   7  10
ENDBRANCH   1   4
BRANCH   1  20
ATOM     20  N   UNL     1       0.884   0.461   4.929  0.00  0.00    -0.215 N 
ATOM     21  H   UNL     1       1.599   0.620   4.294  0.00  0.00    +0.174 HD
BRANCH  20  27
ATOM     22  C   UNL     1      -0.849   1.347   3.490  0.00  0.00    +0.082 A 
ATOM     23  C   UNL     1      -2.083   1.989   3.348  0.00  0.00    +0.032 A 
ATOM     24  C   UNL     1      -2.784   2.385   4.467  0.00  0.00    +0.019 A 
ATOM     25  C   UNL     1      -2.272   2.149   5.734  0.00  0.00    +0.017 A 
ATOM     26  C   UNL     1      -1.056   1.516   5.890  0.00  0.00    +0.026 A 
ATOM     27  C   UNL     1      -0.338   1.104   4.774  0.00  0.00    +0.062 A 
ATOM     28 BR   UNL     1      -4.452   3.255   4.273  0.00  0.00    -0.050 Br
BRANCH  22  29
ATOM     29  C   UNL     1      -0.095   0.921   2.299  0.00  0.00    +0.341 C 
ATOM     30  O   UNL     1       0.977   0.362   2.426  0.00  0.00    -0.245 OA
BRANCH  29  32
ATOM     31  C   UNL     1       0.205   0.704  -0.060  0.00  0.00    +0.280 C 
ATOM     32  O   UNL     1      -0.593   1.151   1.068  0.00  0.00    -0.464 OA
ENDBRANCH  29  32
ENDBRANCH  22  29
ENDBRANCH  20  27
ENDBRANCH   1  20
TORSDOF 6
