REMARK  Name = ZINC59309459
REMARK  10 active torsions:
REMARK  status: ('A' for Active; 'I' for Inactive)
REMARK    1  A    between atoms: C_1  and  C_2
REMARK    2  A    between atoms: C_2  and  C_26
REMARK    3  A    between atoms: N_3  and  N_4
REMARK    4  A    between atoms: C_7  and  S_10
REMARK    5  A    between atoms: S_10  and  C_11
REMARK    6  A    between atoms: C_11  and  C_12
REMARK    7  A    between atoms: N_14  and  C_15
REMARK    8  A    between atoms: C_15  and  C_16
REMARK    9  A    between atoms: C_19  and  C_22
REMARK   10  A    between atoms: C_29  and  N_32
REMARK                            x       y       z     vdW  Elec       q    Type
REMARK                         _______ _______ _______ _____ _____    ______ ____
ROOT
ATOM      1  N   UNL     1       0.024   0.035   2.340  0.00  0.00    -0.205 N 
ATOM      2  C   UNL     1       0.044  -0.663   3.533  0.00  0.00    +0.232 A 
ATOM      3  N   UNL     1       0.069  -1.973   3.664  0.00  0.00    -0.186 NA
ATOM      4  C   UNL     1       0.084  -2.295   4.962  0.00  0.00    +0.211 A 
ATOM      5  N   UNL     1       0.069  -1.194   5.675  0.00  0.00    -0.144 NA
ATOM      6  N   UNL     1       0.049  -0.121   4.770  0.00  0.00    -0.245 N 
ATOM      7  H   UNL     1       0.011   1.005   2.345  0.00  0.00    +0.177 HD
ATOM      8  H   UNL     1       0.038   0.824   4.990  0.00  0.00    +0.192 HD
ENDROOT
BRANCH   1  11
ATOM      9  C   UNL     1      -0.018   1.503   0.010  0.00  0.00    +0.068 C 
ATOM     10  C   UNL     1       0.002  -0.004   0.002  0.00  0.00    +0.063 C 
ATOM     11  N   UNL     1       0.022  -0.659   1.123  0.00  0.00    -0.184 NA
BRANCH  10  12
ATOM     12  C   UNL     1      -0.000  -0.734  -1.278  0.00  0.00    -0.002 A 
ATOM     13  C   UNL     1      -0.015  -0.031  -2.486  0.00  0.00    +0.011 A 
ATOM     14  C   UNL     1      -0.017  -0.716  -3.681  0.00  0.00    +0.023 A 
ATOM     15  C   UNL     1      -0.003  -2.107  -3.687  0.00  0.00    +0.025 A 
ATOM     16  C   UNL     1       0.011  -2.811  -2.487  0.00  0.00    +0.023 A 
ATOM     17  C   UNL     1       0.019  -2.132  -1.288  0.00  0.00    +0.011 A 
BRANCH  15  18
ATOM     18  N   UNL     1      -0.005  -2.798  -4.899  0.00  0.00    -0.358 N 
ATOM     19  H   UNL     1      -0.015  -2.309  -5.736  0.00  0.00    +0.142 HD
ATOM     20  H   UNL     1       0.005  -3.768  -4.904  0.00  0.00    +0.142 HD
ENDBRANCH  15  18
ENDBRANCH  10  12
ENDBRANCH   1  11
BRANCH   4  21
ATOM     21  S   UNL     1       0.117  -3.934   5.609  0.00  0.00    -0.075 S 
BRANCH  21  22
ATOM     22  C   UNL     1       0.126  -3.695   7.407  0.00  0.00    +0.173 C 
BRANCH  22  23
ATOM     23  C   UNL     1       0.154  -5.037   8.092  0.00  0.00    +0.224 C 
ATOM     24  O   UNL     1       0.167  -6.054   7.432  0.00  0.00    -0.275 OA
ATOM     25  N   UNL     1       0.165  -5.107   9.438  0.00  0.00    -0.311 N 
ATOM     26  H   UNL     1       0.154  -4.293   9.966  0.00  0.00    +0.149 HD
BRANCH  25  27
ATOM     27  C   UNL     1       0.192  -6.411  10.104  0.00  0.00    +0.139 C 
BRANCH  27  28
ATOM     28  C   UNL     1       0.199  -6.213  11.598  0.00  0.00    -0.030 A 
ATOM     29  C   UNL     1       1.399  -6.095  12.274  0.00  0.00    +0.006 A 
ATOM     30  C   UNL     1       1.405  -5.913  13.644  0.00  0.00    +0.013 A 
ATOM     31  C   UNL     1       0.211  -5.849  14.338  0.00  0.00    +0.055 A 
ATOM     32  C   UNL     1      -0.989  -5.965  13.662  0.00  0.00    +0.013 A 
ATOM     33  C   UNL     1      -0.995  -6.143  12.291  0.00  0.00    +0.006 A 
BRANCH  31  34
ATOM     34  C   UNL     1       0.218  -5.651  15.832  0.00  0.00    +0.417 C 
ATOM     35  F   UNL     1       0.191  -4.283  16.122  0.00  0.00    -0.166 F 
ATOM     36  F   UNL     1      -0.907  -6.269  16.389  0.00  0.00    -0.166 F 
ATOM     37  F   UNL     1       1.377  -6.219  16.372  0.00  0.00    -0.166 F 
ENDBRANCH  31  34
ENDBRANCH  27  28
ENDBRANCH  25  27
ENDBRANCH  22  23
ENDBRANCH  21  22
ENDBRANCH   4  21
TORSDOF 9
