REMARK  Name = ZINC19236600
REMARK  10 active torsions:
REMARK  status: ('A' for Active; 'I' for Inactive)
REMARK    1  A    between atoms: C_1  and  C_2
REMARK    2  A    between atoms: C_11  and  C_12
REMARK    3  A    between atoms: C_12  and  C_13
REMARK    4  A    between atoms: C_13  and  C_15
REMARK    5  A    between atoms: C_13  and  N_16
REMARK    6  A    between atoms: C_17  and  C_19
REMARK    7  A    between atoms: C_19  and  C_20
REMARK    8  A    between atoms: N_27  and  C_28
REMARK    9  A    between atoms: C_28  and  C_29
REMARK   10  A    between atoms: C_28  and  C_30
REMARK                            x       y       z     vdW  Elec       q    Type
REMARK                         _______ _______ _______ _____ _____    ______ ____
ROOT
ATOM      1  N   UNL     1      -3.680  -1.482   2.185  0.00  0.00    -0.312 N 
ATOM      2  C   UNL     1      -2.605  -0.784   1.770  0.00  0.00    +0.212 C 
ATOM      3  O   UNL     1      -2.156   0.107   2.460  0.00  0.00    -0.276 OA
ATOM      4  H   UNL     1      -4.087  -2.290   1.558  0.00  0.00    +0.149 HD
ENDROOT
BRANCH   1   5
ATOM      5  C   UNL     1      -4.307  -1.166   3.470  0.00  0.00    +0.074 C 
ATOM      6  C   UNL     1      -3.576  -1.908   4.591  0.00  0.00    +0.028 C 
BRANCH   5   7
ATOM      7  C   UNL     1      -5.774  -1.601   3.443  0.00  0.00    +0.059 C 
BRANCH   7  18
ATOM      8  C   UNL     1      -8.530   1.073  -1.514  0.00  0.00    +0.046 C 
ATOM      9  C   UNL     1      -7.681  -0.020  -0.917  0.00  0.00    -0.027 A 
ATOM     10  C   UNL     1      -7.168  -1.014  -1.722  0.00  0.00    +0.005 A 
ATOM     11  C   UNL     1      -6.384  -2.025  -1.185  0.00  0.00    +0.001 A 
ATOM     12  C   UNL     1      -6.106  -2.053   0.153  0.00  0.00    +0.010 A 
ATOM     13  C   UNL     1      -6.612  -1.053   0.986  0.00  0.00    +0.003 A 
ATOM     14  C   UNL     1      -7.412  -0.028   0.447  0.00  0.00    +0.050 A 
ATOM     15  N   UNL     1      -7.766   0.800   1.489  0.00  0.00    -0.360 N 
ATOM     16  H   UNL     1      -8.396   1.682   1.300  0.00  0.00    +0.165 HD
ATOM     17  C   UNL     1      -7.228   0.334   2.657  0.00  0.00    +0.087 A 
ATOM     18  C   UNL     1      -6.522  -0.783   2.423  0.00  0.00    -0.021 A 
ENDBRANCH   7  18
ENDBRANCH   5   7
ENDBRANCH   1   5
BRANCH   2  19
ATOM     19  C   UNL     1      -1.960  -1.109   0.447  0.00  0.00    +0.089 C 
BRANCH  19  20
ATOM     20  C   UNL     1      -0.716  -0.239   0.259  0.00  0.00    +0.028 C 
ATOM     21  C   UNL     1      -1.124   1.205   0.183  0.00  0.00    +0.200 C 
ATOM     22  O   UNL     1      -2.101   1.499  -0.474  0.00  0.00    -0.278 OA
ATOM     23  N   UNL     1      -0.456   2.180   0.808  0.00  0.00    -0.318 N 
ATOM     24  C   UNL     1       0.709   1.929   1.652  0.00  0.00    +0.085 C 
ATOM     25  C   UNL     1       1.288   0.546   1.347  0.00  0.00    -0.058 C 
ATOM     26  N   UNL     1       0.198  -0.443   1.390  0.00  0.00    +0.390 N 
ATOM     27  H   UNL     1      -0.820   3.208   0.666  0.00  0.00    +0.149 HD
ATOM     28  H   UNL     1      -0.367  -0.302   2.323  0.00  0.00    -0.080 HD
BRANCH  26  29
ATOM     29  C   UNL     1       0.730  -1.812   1.397  0.00  0.00    -0.074 C 
ATOM     30  C   UNL     1       1.714  -1.983   0.238  0.00  0.00    -0.013 C 
ATOM     31  C   UNL     1       1.451  -2.073   2.721  0.00  0.00    -0.013 C 
ENDBRANCH  26  29
ENDBRANCH  19  20
ENDBRANCH   2  19
TORSDOF 6
