REMARK  Name = ZINC20207521
REMARK  11 active torsions:
REMARK  status: ('A' for Active; 'I' for Inactive)
REMARK    1  A    between atoms: C_1  and  C_2
REMARK    2  A    between atoms: C_2  and  C_3
REMARK    3  A    between atoms: C_5  and  C_35
REMARK    4  A    between atoms: C_7  and  O_9
REMARK    5  A    between atoms: O_9  and  C_10
REMARK    6  A    between atoms: C_10  and  C_11
REMARK    7  A    between atoms: C_11  and  O_12
REMARK    8  A    between atoms: O_12  and  C_13
REMARK    9  A    between atoms: C_16  and  C_19
REMARK   10  A    between atoms: C_29  and  S_31
REMARK   11  A    between atoms: S_31  and  C_34
REMARK                            x       y       z     vdW  Elec       q    Type
REMARK                         _______ _______ _______ _____ _____    ______ ____
ROOT
ATOM      1  C   UNL     1      -5.466  -3.714  -5.703  0.00  0.00    +0.121 A 
ATOM      2  C   UNL     1      -6.667  -3.205  -6.187  0.00  0.00    +0.046 A 
ATOM      3  C   UNL     1      -7.034  -3.431  -7.484  0.00  0.00    +0.011 A 
ATOM      4  C   UNL     1      -6.197  -4.177  -8.326  0.00  0.00    -0.024 A 
ATOM      5  C   UNL     1      -4.988  -4.687  -7.832  0.00  0.00    +0.011 A 
ATOM      6  C   UNL     1      -4.629  -4.450  -6.535  0.00  0.00    +0.046 A 
ENDROOT
BRANCH   4   7
ATOM      7  C   UNL     1      -6.585  -4.423  -9.717  0.00  0.00    +0.024 C 
ATOM      8  C   UNL     1      -7.309  -3.477 -10.408  0.00  0.00    +0.081 C 
ATOM      9  C   UNL     1      -7.562  -2.119  -9.848  0.00  0.00    +0.153 C 
ATOM     10  N   UNL     1      -6.714  -1.491  -9.077  0.00  0.00    -0.283 NA
ATOM     11  N   UNL     1      -8.808  -1.578 -10.231  0.00  0.00    -0.150 N 
ATOM     12  C   UNL     1      -9.384  -2.063 -11.386  0.00  0.00    +0.182 C 
ATOM     13  N   UNL     1      -8.958  -3.048 -12.137  0.00  0.00    -0.152 NA
ATOM     14  C   UNL     1      -7.873  -3.752 -11.752  0.00  0.00    +0.273 C 
ATOM     15  O   UNL     1      -7.373  -4.591 -12.484  0.00  0.00    -0.268 OA
ATOM     16  S   UNL     1     -10.819  -1.034 -11.546  0.00  0.00    -0.015 S 
ATOM     17  C   UNL     1     -10.613  -0.108 -10.031  0.00  0.00    +0.235 C 
ATOM     18  N   UNL     1      -9.501  -0.595  -9.559  0.00  0.00    -0.145 NA
ATOM     19  H   UNL     1      -6.928  -0.607  -8.739  0.00  0.00    +0.188 HD
BRANCH  17  20
ATOM     20  S   UNL     1     -11.650   1.144  -9.350  0.00  0.00    +0.019 S 
ATOM     21  O   UNL     1     -12.961   0.798  -9.774  0.00  0.00    -0.168 OA
ATOM     22  O   UNL     1     -11.319   1.176  -7.969  0.00  0.00    -0.168 OA
ATOM     23  C   UNL     1     -11.118   2.679 -10.157  0.00  0.00    +0.202 C 
ENDBRANCH  17  20
ENDBRANCH   4   7
BRANCH   1  24
ATOM     24  O   UNL     1      -5.107  -3.487  -4.414  0.00  0.00    -0.489 OA
BRANCH  24  25
ATOM     25  C   UNL     1      -6.012  -2.724  -3.613  0.00  0.00    +0.270 C 
BRANCH  25  26
ATOM     26  C   UNL     1      -5.442  -2.574  -2.202  0.00  0.00    +0.270 C 
BRANCH  26  27
ATOM     27  O   UNL     1      -4.240  -1.802  -2.253  0.00  0.00    -0.489 OA
BRANCH  27  32
ATOM     28  C   UNL     1      -1.784  -0.600   0.146  0.00  0.00    -0.044 A 
ATOM     29  C   UNL     1      -2.304  -1.108   1.323  0.00  0.00    +0.007 A 
ATOM     30  C   UNL     1      -3.472  -1.847   1.302  0.00  0.00    -0.047 A 
ATOM     31  C   UNL     1      -4.122  -2.081   0.106  0.00  0.00    +0.049 A 
ATOM     32  C   UNL     1      -3.602  -1.573  -1.075  0.00  0.00    +0.121 A 
ATOM     33  C   UNL     1      -2.433  -0.826  -1.052  0.00  0.00    +0.049 A 
ATOM     34  C   UNL     1      -4.036  -2.399   2.586  0.00  0.00    +0.044 C 
BRANCH  28  36
ATOM     35  C   UNL     1      -0.847   1.685   0.369  0.00  0.00    +0.009 C 
ATOM     36  C   UNL     1      -0.510   0.205   0.172  0.00  0.00    +0.032 C 
ENDBRANCH  28  36
ENDBRANCH  27  32
ENDBRANCH  26  27
ENDBRANCH  25  26
ENDBRANCH  24  25
ENDBRANCH   1  24
TORSDOF 8
