REMARK  Name = ZINC13024290
REMARK  12 active torsions:
REMARK  status: ('A' for Active; 'I' for Inactive)
REMARK    1  A    between atoms: C_1  and  C_2
REMARK    2  A    between atoms: C_2  and  C_3
REMARK    3  A    between atoms: C_3  and  C_4
REMARK    4  A    between atoms: C_3  and  C_5
REMARK    5  A    between atoms: C_3  and  N_6
REMARK    6  A    between atoms: C_7  and  C_9
REMARK    7  A    between atoms: C_9  and  C_11
REMARK    8  A    between atoms: C_9  and  N_18
REMARK    9  A    between atoms: N_18  and  C_19
REMARK   10  A    between atoms: C_24  and  C_25
REMARK   11  A    between atoms: C_26  and  C_28
REMARK   12  A    between atoms: C_28  and  N_29
REMARK                            x       y       z     vdW  Elec       q    Type
REMARK                         _______ _______ _______ _____ _____    ______ ____
ROOT
ATOM      1  N   UNL     1      -3.412   2.120   0.245  0.00  0.00    -0.253 N 
ATOM      2  C   UNL     1      -4.169   1.655   1.258  0.00  0.00    +0.242 C 
ATOM      3  O   UNL     1      -3.770   0.736   1.941  0.00  0.00    -0.273 OA
ENDROOT
BRANCH   1   4
ATOM      4  C   UNL     1      -3.831   3.238  -0.485  0.00  0.00    +0.040 A 
ATOM      5  C   UNL     1      -4.666   3.079  -1.583  0.00  0.00    +0.024 A 
ATOM      6  C   UNL     1      -5.078   4.184  -2.301  0.00  0.00    +0.002 A 
ATOM      7  C   UNL     1      -4.659   5.449  -1.928  0.00  0.00    +0.000 A 
ATOM      8  C   UNL     1      -3.828   5.610  -0.836  0.00  0.00    +0.005 A 
ATOM      9  C   UNL     1      -3.416   4.509  -0.110  0.00  0.00    -0.029 A 
ATOM     10  C   UNL     1      -2.514   4.686   1.084  0.00  0.00    +0.045 C 
ENDBRANCH   1   4
BRANCH   1  11
ATOM     11  C   UNL     1      -2.151   1.455  -0.092  0.00  0.00    +0.200 C 
BRANCH  11  12
ATOM     12  C   UNL     1      -2.438   0.077  -0.631  0.00  0.00    +0.017 A 
ATOM     13  C   UNL     1      -3.662  -0.518  -0.391  0.00  0.00    +0.009 A 
ATOM     14  C   UNL     1      -3.924  -1.784  -0.881  0.00  0.00    +0.001 A 
ATOM     15  C   UNL     1      -2.963  -2.453  -1.617  0.00  0.00    +0.003 A 
ATOM     16  C   UNL     1      -1.741  -1.858  -1.863  0.00  0.00    +0.039 A 
ATOM     17  C   UNL     1      -1.478  -0.590  -1.373  0.00  0.00    +0.129 A 
ATOM     18  F   UNL     1      -0.283  -0.007  -1.613  0.00  0.00    -0.205 F 
ENDBRANCH  11  12
BRANCH  11  20
ATOM     19  N   UNL     1      -0.083   0.761   1.073  0.00  0.00    -0.308 N 
ATOM     20  C   UNL     1      -1.296   1.343   1.144  0.00  0.00    +0.239 C 
ATOM     21  O   UNL     1      -1.701   1.775   2.202  0.00  0.00    -0.273 OA
ATOM     22  H   UNL     1       0.241   0.415   0.227  0.00  0.00    +0.149 HD
BRANCH  19  23
ATOM     23  C   UNL     1       0.748   0.652   2.275  0.00  0.00    +0.029 C 
ATOM     24  C   UNL     1       1.040   2.051   2.822  0.00  0.00    +0.031 C 
ATOM     25  C   UNL     1       0.008  -0.166   3.334  0.00  0.00    +0.031 C 
BRANCH  23  27
ATOM     26  C   UNL     1       2.933  -0.157   3.178  0.00  0.00    +0.006 C 
ATOM     27  C   UNL     1       2.066  -0.043   1.923  0.00  0.00    +0.022 C 
ENDBRANCH  23  27
ENDBRANCH  19  23
ENDBRANCH  11  20
ENDBRANCH   1  11
BRANCH   2  28
ATOM     28  C   UNL     1      -5.512   2.278   1.543  0.00  0.00    +0.242 C 
BRANCH  28  29
ATOM     29  N   UNL     1      -6.132   1.600   2.684  0.00  0.00    -0.235 N 
ATOM     30  C   UNL     1      -6.963   0.506   2.638  0.00  0.00    +0.090 A 
ATOM     31  C   UNL     1      -7.470  -0.281   1.609  0.00  0.00    +0.029 A 
ATOM     32  C   UNL     1      -8.296  -1.329   1.899  0.00  0.00    +0.002 A 
ATOM     33  C   UNL     1      -8.636  -1.619   3.215  0.00  0.00    +0.002 A 
ATOM     34  C   UNL     1      -8.146  -0.868   4.243  0.00  0.00    +0.032 A 
ATOM     35  C   UNL     1      -7.300   0.216   3.972  0.00  0.00    +0.113 A 
ATOM     36  N   UNL     1      -6.687   1.125   4.756  0.00  0.00    -0.129 NA
ATOM     37  N   UNL     1      -6.000   1.943   4.038  0.00  0.00    -0.064 NA
ENDBRANCH  28  29
ENDBRANCH   2  28
TORSDOF 8
