REMARK  Name = ZINC10213456
REMARK  5 active torsions:
REMARK  status: ('A' for Active; 'I' for Inactive)
REMARK    1  A    between atoms: C_1  and  C_2
REMARK    2  A    between atoms: C_7  and  N_8
REMARK    3  A    between atoms: N_8  and  C_9
REMARK    4  A    between atoms: C_14  and  C_18
REMARK    5  A    between atoms: C_14  and  C_19
REMARK                            x       y       z     vdW  Elec       q    Type
REMARK                         _______ _______ _______ _____ _____    ______ ____
ROOT
ATOM      1  C   UNL     1      -0.040  -0.660  -3.583  0.00  0.00    +0.094 C 
ATOM      2  C   UNL     1      -0.067   0.035  -4.777  0.00  0.00    +0.157 C 
ATOM      3  C   UNL     1      -0.094   1.519  -4.843  0.00  0.00    +0.350 C 
ATOM      4  O   UNL     1      -0.686   2.196  -4.024  0.00  0.00    -0.245 OA
ATOM      5  O   UNL     1       0.596   2.063  -5.887  0.00  0.00    -0.419 OA
ATOM      6  C   UNL     1       0.360   1.438  -7.181  0.00  0.00    +0.255 C 
ATOM      7  O   UNL     1       0.607   0.006  -7.085  0.00  0.00    -0.419 OA
ATOM      8  C   UNL     1      -0.076  -0.639  -6.100  0.00  0.00    +0.350 C 
ATOM      9  O   UNL     1      -0.653  -1.693  -6.290  0.00  0.00    -0.245 OA
ATOM     10  C   UNL     1       1.302   2.049  -8.220  0.00  0.00    +0.104 C 
ATOM     11  C   UNL     1      -1.090   1.678  -7.606  0.00  0.00    +0.104 C 
ENDROOT
BRANCH   1  12
ATOM     12  N   UNL     1      -0.033   0.011  -2.412  0.00  0.00    -0.319 N 
ATOM     13  H   UNL     1      -0.046   0.981  -2.408  0.00  0.00    +0.152 HD
BRANCH  12  20
ATOM     14  C   UNL     1      -0.018   1.503   0.010  0.00  0.00    +0.045 C 
ATOM     15  C   UNL     1       0.002  -0.004   0.002  0.00  0.00    -0.029 A 
ATOM     16  C   UNL     1       0.023  -0.702   1.194  0.00  0.00    +0.006 A 
ATOM     17  C   UNL     1       0.041  -2.084   1.188  0.00  0.00    +0.020 A 
ATOM     18  C   UNL     1       0.038  -2.774  -0.012  0.00  0.00    +0.043 A 
ATOM     19  C   UNL     1       0.018  -2.082  -1.208  0.00  0.00    +0.043 A 
ATOM     20  C   UNL     1      -0.006  -0.693  -1.204  0.00  0.00    +0.035 A 
ATOM     21 CL   UNL     1       0.060  -4.510  -0.015  0.00  0.00    -0.083 Cl
ENDBRANCH  12  20
ENDBRANCH   1  12
TORSDOF 2
