REMARK  Name = ZINC54038739
REMARK  7 active torsions:
REMARK  status: ('A' for Active; 'I' for Inactive)
REMARK    1  A    between atoms: C_1  and  C_2
REMARK    2  A    between atoms: C_4  and  C_8
REMARK    3  A    between atoms: C_5  and  C_7
REMARK    4  A    between atoms: N_10  and  N_11
REMARK    5  A    between atoms: N_14  and  C_15
REMARK    6  A    between atoms: C_15  and  C_16
REMARK    7  A    between atoms: C_16  and  N_22
REMARK                            x       y       z     vdW  Elec       q    Type
REMARK                         _______ _______ _______ _____ _____    ______ ____
ROOT
ATOM      1  N   UNL     1      -7.903  -5.687  -2.602  0.00  0.00    -0.218 N 
ATOM      2  C   UNL     1      -7.366  -5.138  -1.494  0.00  0.00    +0.316 C 
ATOM      3  O   UNL     1      -6.709  -5.823  -0.735  0.00  0.00    -0.251 OA
ATOM      4  N   UNL     1      -7.559  -3.831  -1.229  0.00  0.00    -0.300 N 
ATOM      5  H   UNL     1      -7.765  -6.628  -2.793  0.00  0.00    +0.174 HD
ATOM      6  H   UNL     1      -8.083  -3.285  -1.835  0.00  0.00    +0.150 HD
ENDROOT
BRANCH   1   9
ATOM      7  C   UNL     1      -9.198  -5.447  -4.585  0.00  0.00    +0.263 C 
ATOM      8  O   UNL     1      -9.025  -6.627  -4.825  0.00  0.00    -0.269 OA
ATOM      9  N   UNL     1      -8.661  -4.899  -3.478  0.00  0.00    -0.229 N 
ATOM     10  H   UNL     1      -8.800  -3.958  -3.286  0.00  0.00    +0.173 HD
BRANCH   7  14
ATOM     11  C   UNL     1     -11.610  -1.501  -6.740  0.00  0.00    +0.086 C 
ATOM     12  C   UNL     1     -11.052  -2.869  -6.440  0.00  0.00    +0.103 A 
ATOM     13  C   UNL     1     -10.303  -3.186  -5.373  0.00  0.00    +0.057 A 
ATOM     14  C   UNL     1      -9.996  -4.618  -5.506  0.00  0.00    +0.079 A 
ATOM     15  C   UNL     1     -10.603  -5.018  -6.660  0.00  0.00    +0.114 A 
ATOM     16  O   UNL     1     -11.228  -3.964  -7.195  0.00  0.00    -0.464 OA
ATOM     17  C   UNL     1     -10.578  -6.412  -7.232  0.00  0.00    +0.087 C 
ENDBRANCH   7  14
ENDBRANCH   1   9
BRANCH   4  18
ATOM     18  C   UNL     1      -6.975  -3.235  -0.025  0.00  0.00    +0.094 C 
BRANCH  18  19
ATOM     19  C   UNL     1      -7.230  -1.726  -0.028  0.00  0.00    -0.050 C 
ATOM     20  C   UNL     1      -6.508  -1.084   1.159  0.00  0.00    -0.010 C 
ATOM     21  C   UNL     1      -7.034  -1.688   2.463  0.00  0.00    -0.001 C 
ATOM     22  C   UNL     1      -8.537  -1.425   2.577  0.00  0.00    -0.000 C 
ATOM     23  C   UNL     1      -9.259  -2.067   1.390  0.00  0.00    -0.001 C 
ATOM     24  C   UNL     1      -8.733  -1.463   0.086  0.00  0.00    -0.010 C 
BRANCH  19  25
ATOM     25  N   UNL     1      -6.725  -1.147  -1.280  0.00  0.00    +0.384 N 
ATOM     26  C   UNL     1      -5.292  -1.437  -1.409  0.00  0.00    -0.078 C 
ATOM     27  C   UNL     1      -4.779  -0.906  -2.749  0.00  0.00    -0.019 C 
ATOM     28  C   UNL     1      -5.002   0.608  -2.811  0.00  0.00    -0.004 C 
ATOM     29  C   UNL     1      -6.490   0.904  -2.601  0.00  0.00    -0.019 C 
ATOM     30  C   UNL     1      -6.940   0.305  -1.266  0.00  0.00    -0.078 C 
ATOM     31  H   UNL     1      -7.220  -1.551  -2.060  0.00  0.00    -0.081 HD
ENDBRANCH  19  25
ENDBRANCH  18  19
ENDBRANCH   4  18
TORSDOF 5
