REMARK  Name = ZINC08847321
REMARK  9 active torsions:
REMARK  status: ('A' for Active; 'I' for Inactive)
REMARK    1  A    between atoms: C_1  and  C_2
REMARK    2  A    between atoms: C_2  and  O_3
REMARK    3  A    between atoms: O_3  and  C_4
REMARK    4  A    between atoms: C_9  and  N_10
REMARK    5  A    between atoms: C_11  and  C_13
REMARK    6  A    between atoms: C_13  and  C_15
REMARK    7  A    between atoms: C_13  and  N_16
REMARK    8  A    between atoms: C_23  and  C_26
REMARK    9  A    between atoms: C_30  and  N_32
REMARK                            x       y       z     vdW  Elec       q    Type
REMARK                         _______ _______ _______ _____ _____    ______ ____
ROOT
ATOM      1  N   UNL     1      -2.448   6.454  -2.708  0.00  0.00    -0.287 N 
ATOM      2  C   UNL     1      -2.314   7.794  -2.536  0.00  0.00    +0.204 A 
ATOM      3  N   UNL     1      -1.532   8.281  -1.610  0.00  0.00    -0.230 NA
ATOM      4  C   UNL     1      -0.841   7.478  -0.805  0.00  0.00    +0.116 A 
ATOM      5  C   UNL     1      -0.916   6.080  -0.909  0.00  0.00    +0.080 A 
ATOM      6  C   UNL     1      -1.782   5.580  -1.933  0.00  0.00    +0.263 A 
ATOM      7  O   UNL     1      -1.913   4.379  -2.100  0.00  0.00    -0.267 OA
ATOM      8  C   UNL     1      -0.097   5.345   0.048  0.00  0.00    +0.004 A 
ATOM      9  C   UNL     1       0.647   6.042   0.940  0.00  0.00    +0.056 A 
ATOM     10  S   UNL     1       0.294   7.741   0.533  0.00  0.00    -0.076 S 
ENDROOT
BRANCH   8  11
ATOM     11  C   UNL     1      -0.084   3.862   0.049  0.00  0.00    -0.014 A 
ATOM     12  C   UNL     1      -1.284   3.152   0.056  0.00  0.00    +0.009 A 
ATOM     13  C   UNL     1      -1.266   1.772   0.050  0.00  0.00    +0.003 A 
ATOM     14  C   UNL     1      -0.060   1.094   0.049  0.00  0.00    +0.033 A 
ATOM     15  C   UNL     1       1.134   1.793   0.042  0.00  0.00    +0.127 A 
ATOM     16  C   UNL     1       1.128   3.173   0.042  0.00  0.00    +0.041 A 
BRANCH  15  17
ATOM     17  N   UNL     1       2.419   1.060   0.034  0.00  0.00    +0.056 N 
ATOM     18  O   UNL     1       2.426  -0.158   0.034  0.00  0.00    -0.126 OA
ATOM     19  O   UNL     1       3.471   1.675   0.028  0.00  0.00    -0.126 OA
ENDBRANCH  15  17
ENDBRANCH   8  11
BRANCH   1  20
ATOM     20  C   UNL     1      -3.336   5.951  -3.759  0.00  0.00    +0.174 C 
ATOM     21  C   UNL     1      -4.762   6.444  -3.502  0.00  0.00    +0.041 C 
BRANCH  20  23
ATOM     22  N   UNL     1      -3.533   6.116  -6.219  0.00  0.00    -0.281 N 
ATOM     23  C   UNL     1      -2.865   6.454  -5.099  0.00  0.00    +0.240 C 
ATOM     24  O   UNL     1      -1.883   7.164  -5.169  0.00  0.00    -0.273 OA
ATOM     25  H   UNL     1      -4.268   5.485  -6.174  0.00  0.00    +0.155 HD
BRANCH  22  31
ATOM     26  C   UNL     1      -3.457   6.007  -8.637  0.00  0.00    +0.142 A 
ATOM     27  C   UNL     1      -3.092   6.565  -9.851  0.00  0.00    +0.047 A 
ATOM     28  C   UNL     1      -2.439   7.783  -9.883  0.00  0.00    +0.004 A 
ATOM     29  C   UNL     1      -2.149   8.448  -8.706  0.00  0.00    +0.002 A 
ATOM     30  C   UNL     1      -2.516   7.901  -7.491  0.00  0.00    +0.027 A 
ATOM     31  C   UNL     1      -3.166   6.676  -7.450  0.00  0.00    +0.076 A 
BRANCH  26  32
ATOM     32  O   UNL     1      -4.100   4.809  -8.603  0.00  0.00    -0.490 OA
BRANCH  32  34
ATOM     33  C   UNL     1      -5.089   2.852  -9.621  0.00  0.00    +0.048 C 
ATOM     34  C   UNL     1      -4.366   4.180  -9.858  0.00  0.00    +0.226 C 
ENDBRANCH  32  34
ENDBRANCH  26  32
ENDBRANCH  22  31
ENDBRANCH  20  23
ENDBRANCH   1  20
TORSDOF 7
