REMARK  Name = ZINC38546337
REMARK  6 active torsions:
REMARK  status: ('A' for Active; 'I' for Inactive)
REMARK    1  A    between atoms: C_1  and  C_2
REMARK    2  A    between atoms: N_5  and  C_8
REMARK    3  A    between atoms: C_8  and  C_10
REMARK    4  A    between atoms: C_8  and  C_19
REMARK    5  A    between atoms: C_23  and  N_24
REMARK    6  A    between atoms: C_25  and  C_27
REMARK                            x       y       z     vdW  Elec       q    Type
REMARK                         _______ _______ _______ _____ _____    ______ ____
ROOT
ATOM      1  C   UNL     1      -0.377  -3.605   1.455  0.00  0.00    -0.004 C 
ENDROOT
BRANCH   1   2
ATOM      2  C   UNL     1      -1.856  -3.883   1.375  0.00  0.00    -0.053 A 
ATOM      3  C   UNL     1      -2.746  -3.086   2.070  0.00  0.00    +0.006 A 
ATOM      4  C   UNL     1      -4.104  -3.336   1.999  0.00  0.00    +0.050 A 
ATOM      5  C   UNL     1      -4.575  -4.389   1.231  0.00  0.00    +0.166 A 
ATOM      6  C   UNL     1      -3.679  -5.192   0.532  0.00  0.00    +0.166 A 
ATOM      7  C   UNL     1      -2.320  -4.932   0.603  0.00  0.00    +0.052 A 
ATOM      8  O   UNL     1      -4.383  -6.149  -0.141  0.00  0.00    -0.453 OA
ATOM      9  C   UNL     1      -5.683  -6.176   0.478  0.00  0.00    +0.466 C 
ATOM     10  O   UNL     1      -5.841  -4.842   0.997  0.00  0.00    -0.453 OA
ENDBRANCH   1   2
BRANCH   1  11
ATOM     11  C   UNL     1       0.246  -4.495   2.500  0.00  0.00    -0.025 A 
ATOM     12  C   UNL     1       1.080  -5.546   2.116  0.00  0.00    -0.033 A 
ATOM     13  C   UNL     1       1.603  -6.305   3.117  0.00  0.00    -0.005 A 
ATOM     14  S   UNL     1       0.950  -5.573   4.593  0.00  0.00    -0.078 S 
ATOM     15  C   UNL     1       0.000  -4.273   3.819  0.00  0.00    +0.074 A 
ATOM     16  C   UNL     1       2.516  -7.481   2.986  0.00  0.00    +0.043 C 
ATOM     17  C   UNL     1       2.495  -7.948   1.522  0.00  0.00    +0.005 C 
ATOM     18  C   UNL     1       2.669  -6.726   0.615  0.00  0.00    +0.005 C 
ATOM     19  C   UNL     1       1.411  -5.858   0.660  0.00  0.00    +0.036 C 
BRANCH  15  20
ATOM     20  N   UNL     1      -0.789  -3.287   4.413  0.00  0.00    -0.273 N 
ATOM     21  C   UNL     1      -0.797  -3.146   5.753  0.00  0.00    +0.284 C 
ATOM     22  O   UNL     1      -0.116  -3.880   6.446  0.00  0.00    -0.266 OA
ATOM     23  H   UNL     1      -1.332  -2.702   3.861  0.00  0.00    +0.156 HD
BRANCH  21  24
ATOM     24  C   UNL     1      -1.627  -2.111   6.377  0.00  0.00    +0.189 A 
ATOM     25  C   UNL     1      -1.723  -1.858   7.716  0.00  0.00    +0.054 A 
ATOM     26  C   UNL     1      -2.622  -0.789   7.861  0.00  0.00    +0.042 A 
ATOM     27  C   UNL     1      -3.029  -0.441   6.621  0.00  0.00    +0.196 A 
ATOM     28  O   UNL     1      -2.424  -1.236   5.729  0.00  0.00    -0.458 OA
ENDBRANCH  21  24
ENDBRANCH  15  20
ENDBRANCH   1  11
BRANCH   1  33
ATOM     29  C   UNL     1       1.112   1.882   1.899  0.00  0.00    +0.007 C 
ATOM     30  C   UNL     1       0.966   0.438   1.413  0.00  0.00    -0.018 C 
ATOM     31  C   UNL     1      -0.511   0.133   1.151  0.00  0.00    -0.015 C 
ATOM     32  C   UNL     1      -0.658  -1.334   0.742  0.00  0.00    -0.077 C 
ATOM     33  N   UNL     1      -0.162  -2.199   1.820  0.00  0.00    +0.387 N 
ATOM     34  C   UNL     1       1.272  -1.962   2.027  0.00  0.00    -0.077 C 
ATOM     35  C   UNL     1       1.493  -0.519   2.486  0.00  0.00    -0.015 C 
ATOM     36  H   UNL     1      -0.662  -1.994   2.671  0.00  0.00    -0.080 HD
ENDBRANCH   1  33
TORSDOF 5
