REMARK  Name = ZINC39590884
REMARK  8 active torsions:
REMARK  status: ('A' for Active; 'I' for Inactive)
REMARK    1  A    between atoms: C_1  and  C_2
REMARK    2  A    between atoms: C_7  and  N_8
REMARK    3  A    between atoms: C_9  and  C_11
REMARK    4  A    between atoms: C_11  and  S_12
REMARK    5  A    between atoms: S_12  and  C_13
REMARK    6  A    between atoms: C_17  and  C_21
REMARK    7  A    between atoms: N_19  and  N_20
REMARK    8  A    between atoms: C_24  and  C_27
REMARK                            x       y       z     vdW  Elec       q    Type
REMARK                         _______ _______ _______ _____ _____    ______ ____
ROOT
ATOM      1  C   UNL     1      -0.388  -0.088   7.729  0.00  0.00    +0.214 C 
ATOM      2  N   UNL     1       0.776   0.824   7.808  0.00  0.00    -0.228 NA
ATOM      3  N   UNL     1       0.222   2.081   8.336  0.00  0.00    -0.234 NA
ATOM      4  C   UNL     1      -1.105   2.168   7.671  0.00  0.00    +0.185 C 
ATOM      5  N   UNL     1      -1.589   0.767   7.641  0.00  0.00    -0.197 NA
ATOM      6  H   UNL     1       1.484   0.454   8.425  0.00  0.00    +0.143 HD
ATOM      7  H   UNL     1       0.122   2.040   9.339  0.00  0.00    +0.143 HD
ENDROOT
BRANCH   4   8
ATOM      8  C   UNL     1      -2.055   3.048   8.486  0.00  0.00    +0.187 C 
ATOM      9  C   UNL     1      -1.548   4.478   8.540  0.00  0.00    +0.034 C 
ATOM     10  C   UNL     1      -1.340   4.697   9.853  0.00  0.00    +0.091 C 
ATOM     11  N   UNL     1      -1.656   3.590  10.575  0.00  0.00    -0.154 NA
ATOM     12  N   UNL     1      -2.060   2.636   9.900  0.00  0.00    -0.176 NA
BRANCH  10  13
ATOM     13  C   UNL     1      -0.835   5.968  10.429  0.00  0.00    +0.002 A 
ATOM     14  C   UNL     1      -0.545   7.047   9.597  0.00  0.00    +0.010 A 
ATOM     15  C   UNL     1      -0.077   8.227  10.138  0.00  0.00    +0.001 A 
ATOM     16  C   UNL     1       0.105   8.340  11.505  0.00  0.00    +0.000 A 
ATOM     17  C   UNL     1      -0.182   7.272  12.336  0.00  0.00    +0.001 A 
ATOM     18  C   UNL     1      -0.656   6.089  11.806  0.00  0.00    +0.010 A 
ENDBRANCH  10  13
ENDBRANCH   4   8
BRANCH   5  19
ATOM     19  N   UNL     1      -2.498   0.505   8.745  0.00  0.00    -0.264 NA
ATOM     20  H   UNL     1      -2.800  -0.457   8.744  0.00  0.00    +0.137 HD
ATOM     21  H   UNL     1      -2.075   0.750   9.628  0.00  0.00    +0.137 HD
ENDBRANCH   5  19
BRANCH   1  22
ATOM     22  S   UNL     1      -0.259  -1.133   6.252  0.00  0.00    -0.115 S 
BRANCH  22  23
ATOM     23  C   UNL     1      -0.168   0.052   4.882  0.00  0.00    +0.168 C 
BRANCH  23  25
ATOM     24  N   UNL     1       0.025  -0.015   2.417  0.00  0.00    -0.285 N 
ATOM     25  C   UNL     1      -0.056  -0.694   3.578  0.00  0.00    +0.227 C 
ATOM     26  O   UNL     1      -0.040  -1.907   3.573  0.00  0.00    -0.275 OA
ATOM     27  H   UNL     1       0.078   0.954   2.425  0.00  0.00    +0.155 HD
BRANCH  24  34
ATOM     28  C   UNL     1      -1.264   1.184   0.181  0.00  0.00    +0.045 C 
ATOM     29  C   UNL     1      -0.584  -0.158   0.084  0.00  0.00    -0.029 A 
ATOM     30  C   UNL     1      -0.568  -0.840  -1.117  0.00  0.00    +0.005 A 
ATOM     31  C   UNL     1       0.055  -2.071  -1.206  0.00  0.00    +0.000 A 
ATOM     32  C   UNL     1       0.666  -2.622  -0.095  0.00  0.00    +0.002 A 
ATOM     33  C   UNL     1       0.655  -1.945   1.108  0.00  0.00    +0.023 A 
ATOM     34  C   UNL     1       0.034  -0.706   1.201  0.00  0.00    +0.036 A 
ENDBRANCH  24  34
ENDBRANCH  23  25
ENDBRANCH  22  23
ENDBRANCH   1  22
TORSDOF 7
