REMARK  Name = ZINC25758952
REMARK  14 active torsions:
REMARK  status: ('A' for Active; 'I' for Inactive)
REMARK    1  A    between atoms: C_1  and  C_2
REMARK    2  A    between atoms: C_2  and  C_3
REMARK    3  A    between atoms: C_3  and  C_5
REMARK    4  A    between atoms: C_3  and  C_6
REMARK    5  A    between atoms: C_6  and  C_8
REMARK    6  A    between atoms: C_6  and  N_29
REMARK    7  A    between atoms: N_10  and  C_11
REMARK    8  A    between atoms: C_11  and  C_13
REMARK    9  A    between atoms: C_11  and  C_14
REMARK   10  A    between atoms: C_21  and  C_28
REMARK   11  A    between atoms: C_23  and  O_24
REMARK   12  A    between atoms: C_30  and  C_32
REMARK   13  A    between atoms: C_32  and  C_33
REMARK   14  A    between atoms: C_33  and  C_34
REMARK                            x       y       z     vdW  Elec       q    Type
REMARK                         _______ _______ _______ _____ _____    ______ ____
ROOT
ATOM      1  C   UNL     1       0.673   3.302  -0.275  0.00  0.00    +0.156 C 
ATOM      2  C   UNL     1       1.267   3.538  -1.665  0.00  0.00    +0.038 C 
ENDROOT
BRANCH   1   3
ATOM      3  C   UNL     1      -0.127   4.510   0.141  0.00  0.00    +0.237 C 
ATOM      4  O   UNL     1      -1.310   4.400   0.384  0.00  0.00    -0.273 OA
ATOM      5  N   UNL     1       0.473   5.712   0.243  0.00  0.00    -0.284 N 
ATOM      6  C   UNL     1      -0.239   6.808   0.733  0.00  0.00    +0.037 A 
ATOM      7  C   UNL     1       0.038   8.086   0.247  0.00  0.00    +0.024 A 
ATOM      8  C   UNL     1      -0.655   9.166   0.711  0.00  0.00    +0.013 A 
ATOM      9  C   UNL     1      -1.640   8.992   1.690  0.00  0.00    +0.021 A 
ATOM     10  C   UNL     1      -2.395  10.135   2.210  0.00  0.00    -0.033 A 
ATOM     11  C   UNL     1      -3.339   9.902   3.159  0.00  0.00    +0.091 A 
ATOM     12  C   UNL     1      -3.567   8.587   3.613  0.00  0.00    +0.285 A 
ATOM     13  O   UNL     1      -2.873   7.544   3.132  0.00  0.00    -0.425 OA
ATOM     14  C   UNL     1      -1.920   7.706   2.188  0.00  0.00    +0.141 A 
ATOM     15  C   UNL     1      -1.212   6.618   1.702  0.00  0.00    +0.070 A 
ATOM     16  C   UNL     1      -2.131  11.530   1.707  0.00  0.00    +0.045 C 
ATOM     17  H   UNL     1       1.524   5.830  -0.059  0.00  0.00    +0.155 HD
BRANCH  12  18
ATOM     18  O   UNL     1      -4.417   8.392   4.464  0.00  0.00    -0.480 OA
ATOM     19  H   UNL     1      -4.607   7.372   4.828  0.00  0.00    +0.295 HD
ENDBRANCH  12  18
ENDBRANCH   1   3
BRANCH   1  22
ATOM     20  C   UNL     1       0.321   0.894  -0.155  0.00  0.00    +0.234 C 
ATOM     21  O   UNL     1       1.501   0.761   0.088  0.00  0.00    -0.274 OA
ATOM     22  N   UNL     1      -0.201   2.127  -0.311  0.00  0.00    -0.303 N 
ATOM     23  H   UNL     1      -1.284   2.250  -0.465  0.00  0.00    +0.149 HD
BRANCH  20  24
ATOM     24  C   UNL     1      -0.562  -0.321  -0.290  0.00  0.00    +0.162 C 
BRANCH  24  25
ATOM     25  N   UNL     1       0.225  -1.528  -0.022  0.00  0.00    -0.304 N 
ATOM     26  C   UNL     1      -0.323  -2.550   0.665  0.00  0.00    +0.214 C 
ATOM     27  O   UNL     1      -1.491  -2.506   0.988  0.00  0.00    -0.276 OA
ATOM     28  H   UNL     1       1.262  -1.599  -0.382  0.00  0.00    +0.149 HD
BRANCH  26  29
ATOM     29  C   UNL     1       0.516  -3.746   1.031  0.00  0.00    +0.107 C 
BRANCH  29  30
ATOM     30  C   UNL     1      -0.340  -4.753   1.802  0.00  0.00    +0.134 C 
BRANCH  30  31
ATOM     31  C   UNL     1       0.499  -5.950   2.168  0.00  0.00    +0.356 C 
ATOM     32  O   UNL     1       1.663  -5.993   1.846  0.00  0.00    -0.246 OA
ATOM     33  O   UNL     1      -0.046  -6.968   2.853  0.00  0.00    -0.246 OA
ENDBRANCH  30  31
ENDBRANCH  29  30
ENDBRANCH  26  29
ENDBRANCH  24  25
BRANCH  24  34
ATOM     34  C   UNL     1      -1.127  -0.385  -1.710  0.00  0.00    +0.015 C 
ATOM     35  C   UNL     1      -2.153  -1.517  -1.800  0.00  0.00    +0.010 C 
BRANCH  34  37
ATOM     36  C   UNL     1       0.933   0.571  -2.750  0.00  0.00    +0.004 C 
ATOM     37  C   UNL     1       0.009  -0.647  -2.700  0.00  0.00    +0.002 C 
ENDBRANCH  34  37
ENDBRANCH  24  34
ENDBRANCH  20  24
ENDBRANCH   1  22
TORSDOF 10
