REMARK  Name = ZINC37868205
REMARK  7 active torsions:
REMARK  status: ('A' for Active; 'I' for Inactive)
REMARK    1  A    between atoms: C_1  and  C_2
REMARK    2  A    between atoms: C_2  and  O_3
REMARK    3  A    between atoms: O_3  and  C_4
REMARK    4  A    between atoms: C_9  and  N_12
REMARK    5  A    between atoms: C_13  and  N_23
REMARK    6  A    between atoms: C_28  and  C_35
REMARK    7  A    between atoms: C_30  and  O_31
REMARK                            x       y       z     vdW  Elec       q    Type
REMARK                         _______ _______ _______ _____ _____    ______ ____
ROOT
ATOM      1  N   UNL     1       1.110  -3.979  -6.595  0.00  0.00    -0.270 N 
ATOM      2  C   UNL     1       2.020  -4.307  -7.698  0.00  0.00    +0.203 C 
ATOM      3  C   UNL     1       1.162  -4.426  -8.933  0.00  0.00    +0.005 A 
ATOM      4  C   UNL     1       1.440  -4.709 -10.250  0.00  0.00    +0.008 A 
ATOM      5  C   UNL     1       0.414  -4.748 -11.180  0.00  0.00    +0.000 A 
ATOM      6  C   UNL     1      -0.890  -4.502 -10.788  0.00  0.00    +0.001 A 
ATOM      7  C   UNL     1      -1.179  -4.216  -9.470  0.00  0.00    +0.013 A 
ATOM      8  C   UNL     1      -0.151  -4.176  -8.527  0.00  0.00    +0.044 A 
ATOM      9  C   UNL     1      -0.143  -3.909  -7.075  0.00  0.00    +0.249 C 
ATOM     10  O   UNL     1      -1.129  -3.659  -6.410  0.00  0.00    -0.270 OA
ENDROOT
BRANCH   2  11
ATOM     11  N   UNL     1       3.007  -3.239  -7.871  0.00  0.00    -0.363 N 
ATOM     12  C   UNL     1       4.255  -3.407  -7.434  0.00  0.00    +0.040 A 
ATOM     13  C   UNL     1       4.593  -4.565  -6.693  0.00  0.00    +0.026 A 
ATOM     14  C   UNL     1       5.858  -4.744  -6.245  0.00  0.00    +0.014 A 
ATOM     15  C   UNL     1       6.847  -3.776  -6.517  0.00  0.00    +0.021 A 
ATOM     16  C   UNL     1       8.164  -3.947  -6.060  0.00  0.00    -0.033 A 
ATOM     17  C   UNL     1       9.100  -2.967  -6.352  0.00  0.00    +0.091 A 
ATOM     18  C   UNL     1       8.729  -1.852  -7.079  0.00  0.00    +0.285 A 
ATOM     19  O   UNL     1       7.472  -1.690  -7.514  0.00  0.00    -0.425 OA
ATOM     20  C   UNL     1       6.521  -2.613  -7.258  0.00  0.00    +0.141 A 
ATOM     21  C   UNL     1       5.234  -2.437  -7.716  0.00  0.00    +0.072 A 
ATOM     22  C   UNL     1       8.550  -5.170  -5.268  0.00  0.00    +0.045 C 
ATOM     23  H   UNL     1       2.753  -2.408  -8.303  0.00  0.00    +0.162 HD
BRANCH  18  24
ATOM     24  O   UNL     1       9.650  -0.908  -7.355  0.00  0.00    -0.480 OA
ATOM     25  H   UNL     1       9.308  -0.162  -7.867  0.00  0.00    +0.295 HD
ENDBRANCH  18  24
ENDBRANCH   2  11
BRANCH   1  31
ATOM     26  C   UNL     1       0.263  -2.902  -1.380  0.00  0.00    +0.403 C 
ATOM     27  O   UNL     1      -0.190  -3.795  -0.692  0.00  0.00    -0.226 OA
ATOM     28  N   UNL     1       0.987  -3.198  -2.477  0.00  0.00    -0.267 N 
ATOM     29  C   UNL     1       1.547  -2.129  -3.316  0.00  0.00    +0.113 C 
ATOM     30  C   UNL     1       1.105  -2.357  -4.765  0.00  0.00    +0.041 C 
ATOM     31  C   UNL     1       1.502  -3.770  -5.199  0.00  0.00    +0.082 C 
ATOM     32  C   UNL     1       0.794  -4.796  -4.311  0.00  0.00    +0.041 C 
ATOM     33  C   UNL     1       1.238  -4.596  -2.854  0.00  0.00    +0.113 C 
BRANCH  26  34
ATOM     34  O   UNL     1       0.041  -1.617  -1.046  0.00  0.00    -0.451 OA
BRANCH  34  36
ATOM     35  C   UNL     1      -0.879   0.132   0.345  0.00  0.00    +0.048 C 
ATOM     36  C   UNL     1      -0.735  -1.376   0.129  0.00  0.00    +0.230 C 
ENDBRANCH  34  36
ENDBRANCH  26  34
ENDBRANCH   1  31
TORSDOF 5
