REMARK  Name = ZINC40733774
REMARK  8 active torsions:
REMARK  status: ('A' for Active; 'I' for Inactive)
REMARK    1  A    between atoms: C_1  and  O_2
REMARK    2  A    between atoms: O_2  and  C_3
REMARK    3  A    between atoms: C_5  and  C_20
REMARK    4  A    between atoms: C_8  and  O_9
REMARK    5  A    between atoms: O_9  and  C_10
REMARK    6  A    between atoms: C_10  and  C_11
REMARK    7  A    between atoms: C_20  and  N_21
REMARK    8  A    between atoms: N_21  and  C_22
REMARK                            x       y       z     vdW  Elec       q    Type
REMARK                         _______ _______ _______ _____ _____    ______ ____
ROOT
ATOM      1  C   UNL     1       0.606  -0.608  -1.056  0.00  0.00    +0.163 A 
ATOM      2  C   UNL     1       1.173   0.159  -2.062  0.00  0.00    +0.051 A 
ATOM      3  C   UNL     1       1.786  -0.455  -3.138  0.00  0.00    -0.060 A 
ATOM      4  C   UNL     1       1.836  -1.835  -3.214  0.00  0.00    +0.021 A 
ATOM      5  C   UNL     1       1.273  -2.606  -2.213  0.00  0.00    +0.063 A 
ATOM      6  C   UNL     1       0.662  -1.996  -1.129  0.00  0.00    +0.176 A 
ATOM      7 BR   UNL     1       1.342  -4.493  -2.321  0.00  0.00    -0.046 Br
ENDROOT
BRANCH   1   9
ATOM      8  C   UNL     1      -0.017   1.425   0.010  0.00  0.00    +0.277 C 
ATOM      9  O   UNL     1       0.002  -0.004   0.002  0.00  0.00    -0.491 OA
ENDBRANCH   1   9
BRANCH   6  10
ATOM     10  O   UNL     1       0.112  -2.752  -0.141  0.00  0.00    -0.483 OA
BRANCH  10  11
ATOM     11  C   UNL     1      -1.259  -3.125  -0.296  0.00  0.00    +0.266 C 
BRANCH  11  12
ATOM     12  C   UNL     1      -1.691  -3.954   0.885  0.00  0.00    +0.008 A 
ATOM     13  C   UNL     1      -0.794  -4.231   1.900  0.00  0.00    +0.011 A 
ATOM     14  C   UNL     1      -1.188  -4.992   2.984  0.00  0.00    +0.039 A 
ATOM     15  C   UNL     1      -2.484  -5.476   3.055  0.00  0.00    +0.125 A 
ATOM     16  C   UNL     1      -3.382  -5.198   2.039  0.00  0.00    +0.058 A 
ATOM     17  C   UNL     1      -2.987  -4.433   0.957  0.00  0.00    +0.050 A 
ATOM     18 CL   UNL     1      -4.115  -4.078  -0.314  0.00  0.00    -0.083 Cl
ATOM     19  F   UNL     1      -2.870  -6.220   4.114  0.00  0.00    -0.205 F 
ENDBRANCH  11  12
ENDBRANCH  10  11
ENDBRANCH   6  10
BRANCH   3  20
ATOM     20  C   UNL     1       2.401   0.380  -4.231  0.00  0.00    -0.046 C 
BRANCH  20  21
ATOM     21  N   UNL     1       3.806   0.659  -3.903  0.00  0.00    +0.385 N 
ATOM     22  H   UNL     1       3.854   1.160  -3.028  0.00  0.00    -0.085 HD
ATOM     23  H   UNL     1       4.311  -0.211  -3.820  0.00  0.00    -0.085 HD
BRANCH  21  24
ATOM     24  C   UNL     1       4.405   1.473  -4.968  0.00  0.00    -0.067 C 
ATOM     25  C   UNL     1       3.640   2.792  -5.093  0.00  0.00    -0.009 C 
ATOM     26  C   UNL     1       4.265   3.641  -6.203  0.00  0.00    -0.012 C 
ATOM     27  C   UNL     1       5.728   3.930  -5.861  0.00  0.00    +0.007 C 
ATOM     28  C   UNL     1       6.493   2.611  -5.736  0.00  0.00    -0.012 C 
ATOM     29  C   UNL     1       5.868   1.763  -4.626  0.00  0.00    -0.009 C 
ATOM     30  C   UNL     1       6.420   1.851  -7.061  0.00  0.00    +0.007 C 
ATOM     31  C   UNL     1       4.957   1.562  -7.403  0.00  0.00    -0.012 C 
ATOM     32  C   UNL     1       4.191   2.881  -7.529  0.00  0.00    +0.007 C 
ATOM     33  C   UNL     1       4.332   0.713  -6.294  0.00  0.00    -0.009 C 
ENDBRANCH  21  24
ENDBRANCH  20  21
ENDBRANCH   3  20
TORSDOF 7
