REMARK  Name = ZINC40052080
REMARK  12 active torsions:
REMARK  status: ('A' for Active; 'I' for Inactive)
REMARK    1  A    between atoms: C_1  and  C_2
REMARK    2  A    between atoms: C_4  and  C_12
REMARK    3  A    between atoms: C_7  and  O_8
REMARK    4  A    between atoms: O_8  and  C_9
REMARK    5  A    between atoms: C_9  and  C_10
REMARK    6  A    between atoms: C_12  and  C_14
REMARK    7  A    between atoms: N_18  and  C_30
REMARK    8  A    between atoms: C_19  and  C_21
REMARK    9  A    between atoms: C_26  and  N_27
REMARK   10  A    between atoms: C_30  and  C_31
REMARK   11  A    between atoms: C_31  and  C_32
REMARK   12  A    between atoms: C_32  and  O_33
REMARK                            x       y       z     vdW  Elec       q    Type
REMARK                         _______ _______ _______ _____ _____    ______ ____
ROOT
ATOM      1  C   UNL     1      -0.038  -4.476  -2.680  0.00  0.00    +0.076 C 
ATOM      2  C   UNL     1       0.056  -5.346  -3.712  0.00  0.00    +0.249 C 
ATOM      3  C   UNL     1       0.133  -6.723  -3.181  0.00  0.00    +0.288 C 
ATOM      4  O   UNL     1       0.224  -7.728  -3.858  0.00  0.00    -0.266 OA
ATOM      5  N   UNL     1       0.087  -6.700  -1.837  0.00  0.00    -0.283 N 
ATOM      6  C   UNL     1      -0.017  -5.299  -1.413  0.00  0.00    +0.147 C 
ATOM      7  O   UNL     1       0.076  -5.009  -5.022  0.00  0.00    -0.282 OA
ENDROOT
BRANCH   6   8
ATOM      8  C   UNL     1      -1.291  -5.088  -0.637  0.00  0.00    +0.008 A 
ATOM      9  C   UNL     1      -2.344  -5.973  -0.783  0.00  0.00    +0.008 A 
ATOM     10  C   UNL     1      -3.513  -5.780  -0.071  0.00  0.00    +0.000 A 
ATOM     11  C   UNL     1      -3.629  -4.703   0.787  0.00  0.00    +0.002 A 
ATOM     12  C   UNL     1      -2.577  -3.819   0.934  0.00  0.00    +0.033 A 
ATOM     13  C   UNL     1      -1.406  -4.014   0.225  0.00  0.00    +0.131 A 
BRANCH  13  14
ATOM     14  N   UNL     1      -0.277  -3.071   0.386  0.00  0.00    +0.057 N 
ATOM     15  O   UNL     1      -0.401  -2.094   1.087  0.00  0.00    -0.126 OA
ATOM     16  O   UNL     1       0.769  -3.277  -0.183  0.00  0.00    -0.126 OA
ENDBRANCH  13  14
ENDBRANCH   6   8
BRANCH   1  17
ATOM     17  C   UNL     1      -0.135  -3.016  -2.773  0.00  0.00    +0.195 C 
ATOM     18  O   UNL     1      -1.204  -2.464  -2.584  0.00  0.00    -0.287 OA
BRANCH  17  22
ATOM     19  C   UNL     1       1.950   1.393  -3.815  0.00  0.00    +0.047 C 
ATOM     20  C   UNL     1       2.070  -0.094  -3.598  0.00  0.00    -0.008 A 
ATOM     21  C   UNL     1       0.950  -0.837  -3.297  0.00  0.00    +0.018 A 
ATOM     22  C   UNL     1       1.062  -2.216  -3.096  0.00  0.00    +0.023 A 
ATOM     23  C   UNL     1       2.312  -2.835  -3.201  0.00  0.00    +0.015 A 
ATOM     24  C   UNL     1       3.426  -2.085  -3.502  0.00  0.00    +0.046 A 
ATOM     25  C   UNL     1       3.309  -0.714  -3.707  0.00  0.00    +0.124 A 
BRANCH  25  26
ATOM     26  O   UNL     1       4.409   0.021  -4.008  0.00  0.00    -0.488 OA
BRANCH  26  27
ATOM     27  C   UNL     1       5.651  -0.679  -4.105  0.00  0.00    +0.256 C 
BRANCH  27  28
ATOM     28  C   UNL     1       6.751   0.293  -4.444  0.00  0.00    +0.006 C 
ATOM     29  C   UNL     1       7.893   0.240  -3.804  0.00  0.00    +0.007 C 
ENDBRANCH  27  28
ENDBRANCH  26  27
ENDBRANCH  25  26
ENDBRANCH  17  22
ENDBRANCH   1  17
BRANCH   5  30
ATOM     30  C   UNL     1       0.137  -7.867  -0.952  0.00  0.00    +0.111 C 
BRANCH  30  31
ATOM     31  C   UNL     1       1.593  -8.175  -0.596  0.00  0.00    +0.047 C 
BRANCH  31  32
ATOM     32  C   UNL     1       1.646  -9.393   0.328  0.00  0.00    +0.157 C 
BRANCH  32  33
ATOM     33  O   UNL     1       3.006  -9.681   0.660  0.00  0.00    -0.395 OA
ATOM     34  H   UNL     1       3.115 -10.443   1.245  0.00  0.00    +0.209 HD
ENDBRANCH  32  33
ENDBRANCH  31  32
ENDBRANCH  30  31
ENDBRANCH   5  30
TORSDOF 11
