REMARK  Name = ZINC36308787
REMARK  13 active torsions:
REMARK  status: ('A' for Active; 'I' for Inactive)
REMARK    1  A    between atoms: C_1  and  C_2
REMARK    2  A    between atoms: C_2  and  C_3
REMARK    3  A    between atoms: C_2  and  C_33
REMARK    4  A    between atoms: C_2  and  O_35
REMARK    5  A    between atoms: C_3  and  N_4
REMARK    6  A    between atoms: N_4  and  C_5
REMARK    7  A    between atoms: N_4  and  C_26
REMARK    8  A    between atoms: C_5  and  C_6
REMARK    9  A    between atoms: C_7  and  C_20
REMARK   10  A    between atoms: N_9  and  C_19
REMARK   11  A    between atoms: C_10  and  O_11
REMARK   12  A    between atoms: O_11  and  C_12
REMARK   13  A    between atoms: C_26  and  C_27
REMARK                            x       y       z     vdW  Elec       q    Type
REMARK                         _______ _______ _______ _____ _____    ______ ____
ROOT
ATOM      1  C   UNL     1       2.632   0.868   3.258  0.00  0.00    +0.025 A 
ATOM      2  C   UNL     1       3.816   0.215   2.867  0.00  0.00    +0.098 A 
ATOM      3  N   UNL     1       4.800   1.088   2.915  0.00  0.00    -0.168 NA
ATOM      4  N   UNL     1       4.276   2.317   3.337  0.00  0.00    -0.235 N 
ATOM      5  C   UNL     1       2.942   2.159   3.536  0.00  0.00    +0.221 A 
ATOM      6  C   UNL     1       5.034   3.556   3.524  0.00  0.00    +0.176 C 
ENDROOT
BRANCH   2   7
ATOM      7  C   UNL     1       3.935  -1.210   2.469  0.00  0.00    +0.002 A 
ATOM      8  C   UNL     1       4.731  -1.569   1.383  0.00  0.00    +0.010 A 
ATOM      9  C   UNL     1       4.837  -2.895   1.017  0.00  0.00    +0.001 A 
ATOM     10  C   UNL     1       4.156  -3.868   1.726  0.00  0.00    +0.000 A 
ATOM     11  C   UNL     1       3.365  -3.517   2.806  0.00  0.00    +0.001 A 
ATOM     12  C   UNL     1       3.256  -2.194   3.184  0.00  0.00    +0.010 A 
ENDBRANCH   2   7
BRANCH   1  13
ATOM     13  C   UNL     1       1.263   0.244   3.346  0.00  0.00    -0.035 C 
BRANCH  13  14
ATOM     14  N   UNL     1       0.513   0.533   2.116  0.00  0.00    +0.386 N 
ATOM     15  H   UNL     1       0.493   1.530   1.961  0.00  0.00    -0.081 HD
BRANCH  14  16
ATOM     16  C   UNL     1       1.168  -0.127   0.978  0.00  0.00    -0.039 C 
BRANCH  16  18
ATOM     17  C   UNL     1       0.458   1.847  -0.380  0.00  0.00    +0.044 C 
ATOM     18  C   UNL     1       0.497   0.318  -0.323  0.00  0.00    +0.067 C 
BRANCH  18  19
ATOM     19  C   UNL     1       1.282  -0.208  -1.497  0.00  0.00    -0.003 C 
ATOM     20  C   UNL     1       0.682  -0.918  -2.421  0.00  0.00    +0.006 C 
ENDBRANCH  18  19
BRANCH  18  21
ATOM     21  O   UNL     1      -0.835  -0.195  -0.372  0.00  0.00    -0.387 OA
ATOM     22  H   UNL     1      -0.892  -1.154  -0.262  0.00  0.00    +0.210 HD
ENDBRANCH  18  21
ENDBRANCH  16  18
ENDBRANCH  14  16
BRANCH  14  23
ATOM     23  C   UNL     1      -0.860   0.030   2.250  0.00  0.00    -0.046 C 
BRANCH  23  24
ATOM     24  C   UNL     1      -1.568   0.774   3.385  0.00  0.00    +0.102 C 
ATOM     25  C   UNL     1      -3.009   0.242   3.541  0.00  0.00    +0.032 C 
ATOM     26  C   UNL     1      -3.809   1.541   3.835  0.00  0.00    +0.030 C 
ATOM     27  C   UNL     1      -3.029   2.567   2.975  0.00  0.00    +0.160 C 
ATOM     28  O   UNL     1      -1.651   2.169   3.073  0.00  0.00    -0.378 OA
ENDBRANCH  23  24
ENDBRANCH  14  23
ENDBRANCH  13  14
ENDBRANCH   1  13
BRANCH   5  29
ATOM     29  O   UNL     1       2.075   3.121   3.944  0.00  0.00    -0.437 OA
BRANCH  29  30
ATOM     30  C   UNL     1       1.938   3.331   5.280  0.00  0.00    +0.149 A 
ATOM     31  C   UNL     1       2.748   2.651   6.178  0.00  0.00    +0.048 A 
ATOM     32  C   UNL     1       2.607   2.867   7.535  0.00  0.00    +0.004 A 
ATOM     33  C   UNL     1       1.658   3.759   7.999  0.00  0.00    +0.002 A 
ATOM     34  C   UNL     1       0.850   4.439   7.108  0.00  0.00    +0.024 A 
ATOM     35  C   UNL     1       0.991   4.232   5.748  0.00  0.00    +0.083 A 
ATOM     36 CL   UNL     1      -0.020   5.091   4.628  0.00  0.00    -0.080 Cl
ENDBRANCH  29  30
ENDBRANCH   5  29
TORSDOF 11
