REMARK  Name = ZINC33026180
REMARK  10 active torsions:
REMARK  status: ('A' for Active; 'I' for Inactive)
REMARK    1  A    between atoms: C_1  and  C_2
REMARK    2  A    between atoms: C_7  and  C_13
REMARK    3  A    between atoms: C_13  and  S_14
REMARK    4  A    between atoms: S_14  and  C_15
REMARK    5  A    between atoms: C_20  and  N_21
REMARK    6  A    between atoms: N_21  and  S_22
REMARK    7  A    between atoms: S_22  and  C_25
REMARK    8  A    between atoms: C_27  and  C_33
REMARK    9  A    between atoms: C_28  and  C_32
REMARK   10  A    between atoms: C_30  and  C_31
REMARK                            x       y       z     vdW  Elec       q    Type
REMARK                         _______ _______ _______ _____ _____    ______ ____
ROOT
ATOM      1  C   UNL     1      -5.455   6.540  -1.660  0.00  0.00    +0.031 A 
ATOM      2  C   UNL     1      -5.524   7.133  -0.407  0.00  0.00    +0.016 A 
ATOM      3  C   UNL     1      -6.623   7.898  -0.064  0.00  0.00    +0.001 A 
ATOM      4  C   UNL     1      -7.661   8.066  -0.962  0.00  0.00    +0.002 A 
ATOM      5  C   UNL     1      -7.603   7.474  -2.211  0.00  0.00    +0.025 A 
ATOM      6  C   UNL     1      -6.503   6.710  -2.565  0.00  0.00    +0.061 A 
ENDROOT
BRANCH   6   7
ATOM      7  N   UNL     1      -6.442   6.109  -3.829  0.00  0.00    -0.215 N 
ATOM      8  H   UNL     1      -5.974   5.120  -3.946  0.00  0.00    +0.174 HD
BRANCH   7   9
ATOM      9  S   UNL     1      -7.076   6.887  -5.146  0.00  0.00    +0.073 S 
ATOM     10  O   UNL     1      -6.739   6.102  -6.282  0.00  0.00    -0.150 OA
ATOM     11  O   UNL     1      -8.419   7.214  -4.818  0.00  0.00    -0.150 OA
BRANCH   9  12
ATOM     12  C   UNL     1      -6.213   8.414  -5.314  0.00  0.00    +0.112 A 
ATOM     13  C   UNL     1      -6.888   9.610  -5.160  0.00  0.00    +0.032 A 
ATOM     14  C   UNL     1      -6.210  10.808  -5.287  0.00  0.00    -0.046 A 
ATOM     15  C   UNL     1      -4.859  10.810  -5.579  0.00  0.00    -0.047 A 
ATOM     16  C   UNL     1      -4.185   9.614  -5.739  0.00  0.00    +0.009 A 
ATOM     17  C   UNL     1      -4.862   8.415  -5.607  0.00  0.00    -0.024 A 
ATOM     18  C   UNL     1      -4.127   7.111  -5.781  0.00  0.00    +0.046 C 
ATOM     19  C   UNL     1      -4.121  12.116  -5.723  0.00  0.00    +0.044 C 
ATOM     20  C   UNL     1      -6.945  12.112  -5.113  0.00  0.00    +0.044 C 
ENDBRANCH   9  12
ENDBRANCH   7   9
ENDBRANCH   6   7
BRANCH   1  21
ATOM     21  S   UNL     1      -4.052   5.570  -2.102  0.00  0.00    -0.117 S 
BRANCH  21  22
ATOM     22  C   UNL     1      -2.987   5.644  -0.635  0.00  0.00    +0.130 C 
BRANCH  22  29
ATOM     23  C   UNL     1       2.798   0.452  -1.764  0.00  0.00    +0.045 C 
ATOM     24  C   UNL     1       1.558   1.272  -1.518  0.00  0.00    -0.034 A 
ATOM     25  C   UNL     1       0.337   0.634  -1.259  0.00  0.00    +0.008 A 
ATOM     26  C   UNL     1      -0.780   1.383  -1.044  0.00  0.00    +0.047 A 
ATOM     27  C   UNL     1      -0.689   2.787  -1.074  0.00  0.00    +0.141 A 
ATOM     28  N   UNL     1      -1.779   3.521  -0.859  0.00  0.00    -0.233 NA
ATOM     29  C   UNL     1      -1.735   4.843  -0.883  0.00  0.00    +0.059 A 
ATOM     30  C   UNL     1      -0.541   5.491  -1.136  0.00  0.00    +0.094 A 
ATOM     31  C   UNL     1       0.609   4.726  -1.363  0.00  0.00    +0.259 A 
ATOM     32  O   UNL     1       1.679   5.269  -1.589  0.00  0.00    -0.267 OA
ATOM     33  N   UNL     1       0.516   3.380  -1.328  0.00  0.00    -0.268 N 
ATOM     34  C   UNL     1       1.627   2.622  -1.548  0.00  0.00    +0.099 A 
ENDBRANCH  22  29
ENDBRANCH  21  22
ENDBRANCH   1  21
TORSDOF 6
