REMARK  Name = ZINC02228920
REMARK  5 active torsions:
REMARK  status: ('A' for Active; 'I' for Inactive)
REMARK    1  A    between atoms: C_5  and  N_7
REMARK    2  A    between atoms: C_8  and  C_10
REMARK    3  A    between atoms: N_15  and  C_26
REMARK    4  A    between atoms: N_17  and  C_18
REMARK    5  A    between atoms: C_26  and  C_27
REMARK                            x       y       z     vdW  Elec       q    Type
REMARK                         _______ _______ _______ _____ _____    ______ ____
ROOT
ATOM      1  C   UNL     1       1.002  -4.618  -0.184  0.00  0.00    +0.149 C 
ATOM      2  C   UNL     1      -0.239  -5.058  -0.963  0.00  0.00    +0.120 C 
ATOM      3  C   UNL     1      -0.705  -6.418  -0.571  0.00  0.00    +0.223 C 
ATOM      4  O   UNL     1      -1.295  -7.040  -1.429  0.00  0.00    -0.275 OA
ATOM      5  N   UNL     1      -0.562  -7.038   0.591  0.00  0.00    -0.246 N 
ATOM      6  C   UNL     1       0.198  -6.556   1.641  0.00  0.00    +0.164 C 
ATOM      7  N   UNL     1       0.563  -7.333   2.633  0.00  0.00    -0.223 NA
ATOM      8  S   UNL     1       0.661  -4.845   1.592  0.00  0.00    -0.077 S 
ENDROOT
BRANCH   7   9
ATOM      9  C   UNL     1       1.241  -6.807   3.702  0.00  0.00    +0.102 A 
ATOM     10  C   UNL     1       0.751  -5.675   4.355  0.00  0.00    +0.031 A 
ATOM     11  C   UNL     1       1.439  -5.151   5.430  0.00  0.00    +0.002 A 
ATOM     12  C   UNL     1       2.611  -5.744   5.862  0.00  0.00    +0.003 A 
ATOM     13  C   UNL     1       3.104  -6.867   5.221  0.00  0.00    +0.040 A 
ATOM     14  C   UNL     1       2.423  -7.406   4.147  0.00  0.00    +0.149 A 
ATOM     15  F   UNL     1       2.901  -8.505   3.525  0.00  0.00    -0.203 F 
ENDBRANCH   7   9
BRANCH   1  17
ATOM     16  N   UNL     1       2.567  -2.732  -0.512  0.00  0.00    -0.282 N 
ATOM     17  C   UNL     1       1.293  -3.167  -0.466  0.00  0.00    +0.231 C 
ATOM     18  O   UNL     1       0.380  -2.390  -0.652  0.00  0.00    -0.274 OA
ATOM     19  H   UNL     1       3.299  -3.363  -0.432  0.00  0.00    +0.155 HD
BRANCH  16  24
ATOM     20  C   UNL     1       2.125   0.920  -0.549  0.00  0.00    +0.002 A 
ATOM     21  C   UNL     1       3.365   1.331  -1.002  0.00  0.00    +0.003 A 
ATOM     22  C   UNL     1       4.343   0.397  -1.294  0.00  0.00    +0.040 A 
ATOM     23  C   UNL     1       4.082  -0.952  -1.133  0.00  0.00    +0.144 A 
ATOM     24  C   UNL     1       2.836  -1.367  -0.677  0.00  0.00    +0.069 A 
ATOM     25  C   UNL     1       1.858  -0.426  -0.385  0.00  0.00    +0.026 A 
ATOM     26  F   UNL     1       5.037  -1.864  -1.419  0.00  0.00    -0.204 F 
ENDBRANCH  16  24
ENDBRANCH   1  17
BRANCH   5  27
ATOM     27  C   UNL     1      -1.254  -8.316   0.775  0.00  0.00    +0.150 C 
BRANCH  27  28
ATOM     28  C   UNL     1      -0.355  -9.442   0.332  0.00  0.00    -0.026 A 
ATOM     29  C   UNL     1      -0.386  -9.872  -0.982  0.00  0.00    +0.009 A 
ATOM     30  C   UNL     1       0.437 -10.904  -1.393  0.00  0.00    +0.050 A 
ATOM     31  C   UNL     1       1.294 -11.510  -0.489  0.00  0.00    +0.166 A 
ATOM     32  C   UNL     1       1.325 -11.076   0.834  0.00  0.00    +0.167 A 
ATOM     33  C   UNL     1       0.502 -10.038   1.238  0.00  0.00    +0.054 A 
ATOM     34  O   UNL     1       2.241 -11.824   1.516  0.00  0.00    -0.453 OA
ATOM     35  C   UNL     1       2.474 -12.987   0.700  0.00  0.00    +0.466 C 
ATOM     36  O   UNL     1       2.191 -12.529  -0.636  0.00  0.00    -0.453 OA
ENDBRANCH  27  28
ENDBRANCH   5  27
TORSDOF 5
