REMARK  Name = ZINC08582549
REMARK  9 active torsions:
REMARK  status: ('A' for Active; 'I' for Inactive)
REMARK    1  A    between atoms: C_1  and  C_2
REMARK    2  A    between atoms: C_9  and  O_34
REMARK    3  A    between atoms: C_10  and  C_12
REMARK    4  A    between atoms: C_12  and  N_63
REMARK    5  A    between atoms: C_13  and  C_14
REMARK    6  A    between atoms: C_13  and  N_63
REMARK    7  A    between atoms: C_23  and  C_24
REMARK    8  A    between atoms: C_23  and  N_63
REMARK    9  A    between atoms: N_28  and  C_29
REMARK                            x       y       z     vdW  Elec       q    Type
REMARK                         _______ _______ _______ _____ _____    ______ ____
ROOT
ATOM      1  N   UNL     1       6.272  -0.883   1.188  0.00  0.00    +0.390 N 
ATOM      2  H   UNL     1       5.978  -0.064   0.642  0.00  0.00    -0.080 HD
ENDROOT
BRANCH   1   3
ATOM      3  C   UNL     1       7.671  -0.691   1.625  0.00  0.00    -0.037 C 
BRANCH   3  13
ATOM      4  C   UNL     1       8.067   5.814   2.172  0.00  0.00    +0.046 C 
ATOM      5  C   UNL     1       8.278   4.712   3.178  0.00  0.00    -0.024 A 
ATOM      6  C   UNL     1       8.614   5.015   4.462  0.00  0.00    +0.005 A 
ATOM      7  C   UNL     1       8.813   4.012   5.408  0.00  0.00    +0.001 A 
ATOM      8  C   UNL     1       8.677   2.699   5.072  0.00  0.00    +0.010 A 
ATOM      9  C   UNL     1       8.331   2.350   3.758  0.00  0.00    +0.001 A 
ATOM     10  C   UNL     1       8.128   3.369   2.794  0.00  0.00    +0.078 A 
ATOM     11  N   UNL     1       7.798   3.043   1.539  0.00  0.00    -0.213 NA
ATOM     12  C   UNL     1       7.656   1.787   1.175  0.00  0.00    +0.214 A 
ATOM     13  C   UNL     1       7.843   0.735   2.080  0.00  0.00    -0.002 A 
ATOM     14  C   UNL     1       8.175   1.003   3.374  0.00  0.00    +0.017 A 
BRANCH  12  15
ATOM     15  O   UNL     1       7.321   1.505  -0.108  0.00  0.00    -0.492 OA
ATOM     16  H   UNL     1       6.368   1.457  -0.264  0.00  0.00    +0.294 HD
ENDBRANCH  12  15
ENDBRANCH   3  13
ENDBRANCH   1   3
BRANCH   1  17
ATOM     17  C   UNL     1       5.389  -1.018   2.365  0.00  0.00    -0.042 C 
BRANCH  17  18
ATOM     18  C   UNL     1       5.743  -2.254   3.152  0.00  0.00    -0.060 A 
ATOM     19  C   UNL     1       6.628  -2.168   4.210  0.00  0.00    +0.005 A 
ATOM     20  C   UNL     1       6.956  -3.298   4.935  0.00  0.00    +0.050 A 
ATOM     21  C   UNL     1       6.398  -4.522   4.602  0.00  0.00    +0.166 A 
ATOM     22  C   UNL     1       5.505  -4.609   3.536  0.00  0.00    +0.166 A 
ATOM     23  C   UNL     1       5.181  -3.471   2.814  0.00  0.00    +0.051 A 
ATOM     24  O   UNL     1       5.100  -5.906   3.411  0.00  0.00    -0.453 OA
ATOM     25  C   UNL     1       5.435  -6.536   4.662  0.00  0.00    +0.466 C 
ATOM     26  O   UNL     1       6.551  -5.765   5.144  0.00  0.00    -0.453 OA
ENDBRANCH  17  18
ENDBRANCH   1  17
BRANCH   1  27
ATOM     27  C   UNL     1       6.169  -2.088   0.338  0.00  0.00    +0.001 C 
BRANCH  27  28
ATOM     28  C   UNL     1       4.891  -2.011  -0.457  0.00  0.00    +0.135 A 
ATOM     29  N   UNL     1       3.701  -2.396  -0.064  0.00  0.00    -0.115 NA
ATOM     30  N   UNL     1       2.871  -2.165  -1.022  0.00  0.00    -0.023 NA
ATOM     31  N   UNL     1       3.502  -1.649  -2.019  0.00  0.00    -0.044 NA
ATOM     32  N   UNL     1       4.750  -1.538  -1.709  0.00  0.00    -0.228 N 
BRANCH  32  33
ATOM     33  C   UNL     1       5.813  -0.998  -2.560  0.00  0.00    +0.111 C 
ATOM     34  C   UNL     1       5.473   0.447  -2.979  0.00  0.00    +0.027 C 
ATOM     35  C   UNL     1       5.982   0.548  -4.439  0.00  0.00    +0.002 C 
ATOM     36  C   UNL     1       5.638  -0.846  -5.019  0.00  0.00    +0.002 C 
ATOM     37  C   UNL     1       5.919  -1.820  -3.856  0.00  0.00    +0.027 C 
ENDBRANCH  32  33
ENDBRANCH  27  28
ENDBRANCH   1  27
TORSDOF 8
