REMARK  Name = ZINC00143644
REMARK  8 active torsions:
REMARK  status: ('A' for Active; 'I' for Inactive)
REMARK    1  A    between atoms: C_1  and  C_2
REMARK    2  A    between atoms: C_2  and  O_3
REMARK    3  A    between atoms: O_3  and  C_4
REMARK    4  A    between atoms: C_7  and  C_11
REMARK    5  A    between atoms: C_8  and  O_10
REMARK    6  A    between atoms: C_12  and  O_18
REMARK    7  A    between atoms: C_13  and  C_17
REMARK    8  A    between atoms: O_18  and  C_19
REMARK                            x       y       z     vdW  Elec       q    Type
REMARK                         _______ _______ _______ _____ _____    ______ ____
ROOT
ATOM      1  C   UNL     1       1.137  -6.040   1.753  0.00  0.00    +0.112 A 
ATOM      2  C   UNL     1       0.562  -6.807   2.745  0.00  0.00    +0.176 A 
ATOM      3  C   UNL     1       0.926  -8.138   2.515  0.00  0.00    +0.102 A 
ATOM      4  N   UNL     1       1.679  -8.187   1.445  0.00  0.00    -0.175 NA
ATOM      5  N   UNL     1       1.828  -6.891   0.937  0.00  0.00    -0.273 N 
ATOM      6  H   UNL     1       2.334  -6.641   0.148  0.00  0.00    +0.189 HD
ATOM      7  C   UNL     1       0.519  -9.319   3.358  0.00  0.00    +0.071 C 
ENDROOT
BRANCH   1  11
ATOM      8  C   UNL     1       0.802  -1.824   1.306  0.00  0.00    +0.124 A 
ATOM      9  C   UNL     1       0.258  -2.670   0.348  0.00  0.00    +0.046 A 
ATOM     10  C   UNL     1       0.364  -4.038   0.489  0.00  0.00    +0.017 A 
ATOM     11  C   UNL     1       1.021  -4.574   1.597  0.00  0.00    +0.045 A 
ATOM     12  C   UNL     1       1.569  -3.720   2.562  0.00  0.00    +0.130 A 
ATOM     13  C   UNL     1       1.461  -2.349   2.408  0.00  0.00    +0.091 A 
BRANCH  12  14
ATOM     14  O   UNL     1       2.210  -4.236   3.643  0.00  0.00    -0.506 OA
ATOM     15  H   UNL     1       3.159  -4.372   3.511  0.00  0.00    +0.292 HD
ENDBRANCH  12  14
BRANCH   8  16
ATOM     16  O   UNL     1       0.693  -0.477   1.160  0.00  0.00    -0.492 OA
BRANCH  16  18
ATOM     17  C   UNL     1      -0.019   1.526   0.010  0.00  0.00    +0.048 C 
ATOM     18  C   UNL     1       0.002  -0.004   0.002  0.00  0.00    +0.225 C 
ENDBRANCH  16  18
ENDBRANCH   8  16
ENDBRANCH   1  11
BRANCH   2  19
ATOM     19  O   UNL     1      -0.217  -6.352   3.765  0.00  0.00    -0.452 OA
BRANCH  19  20
ATOM     20  C   UNL     1      -1.559  -6.287   3.562  0.00  0.00    +0.129 A 
ATOM     21  C   UNL     1      -2.098  -6.683   2.346  0.00  0.00    +0.049 A 
ATOM     22  C   UNL     1      -3.462  -6.617   2.142  0.00  0.00    +0.042 A 
ATOM     23  C   UNL     1      -4.293  -6.155   3.149  0.00  0.00    +0.124 A 
ATOM     24  C   UNL     1      -3.757  -5.758   4.362  0.00  0.00    +0.042 A 
ATOM     25  C   UNL     1      -2.393  -5.829   4.572  0.00  0.00    +0.049 A 
ATOM     26  F   UNL     1      -5.627  -6.091   2.947  0.00  0.00    -0.205 F 
ENDBRANCH  19  20
ENDBRANCH   2  19
TORSDOF 6
