REMARK  Name = ZINC22612035
REMARK  8 active torsions:
REMARK  status: ('A' for Active; 'I' for Inactive)
REMARK    1  A    between atoms: C_1  and  N_2
REMARK    2  A    between atoms: N_2  and  C_3
REMARK    3  A    between atoms: N_2  and  C_4
REMARK    4  A    between atoms: C_9  and  N_10
REMARK    5  A    between atoms: C_11  and  C_13
REMARK    6  A    between atoms: C_15  and  N_24
REMARK    7  A    between atoms: N_25  and  C_26
REMARK    8  A    between atoms: C_30  and  S_32
REMARK                            x       y       z     vdW  Elec       q    Type
REMARK                         _______ _______ _______ _____ _____    ______ ____
ROOT
ATOM      1  C   UNL     1      -1.211  -0.533   4.868  0.00  0.00    +0.086 A 
ATOM      2  C   UNL     1      -0.011   0.188   4.845  0.00  0.00    +0.047 A 
ATOM      3  C   UNL     1       0.564   0.637   6.025  0.00  0.00    +0.095 A 
ATOM      4  C   UNL     1      -0.102   0.349   7.297  0.00  0.00    +0.013 A 
ATOM      5  C   UNL     1       0.438   0.782   8.512  0.00  0.00    +0.011 A 
ATOM      6  C   UNL     1      -0.208   0.497   9.680  0.00  0.00    +0.001 A 
ATOM      7  C   UNL     1      -1.401  -0.220   9.679  0.00  0.00    +0.001 A 
ATOM      8  C   UNL     1      -1.954  -0.657   8.512  0.00  0.00    +0.012 A 
ATOM      9  C   UNL     1      -1.315  -0.381   7.293  0.00  0.00    +0.032 A 
ATOM     10  C   UNL     1      -1.863  -0.813   6.068  0.00  0.00    +0.199 A 
ATOM     11  O   UNL     1      -3.025  -1.507   6.057  0.00  0.00    -0.286 OA
ENDROOT
BRANCH   1  13
ATOM     12  N   UNL     1      -1.179  -0.735   2.432  0.00  0.00    -0.280 N 
ATOM     13  C   UNL     1      -1.800  -0.999   3.599  0.00  0.00    +0.252 C 
ATOM     14  O   UNL     1      -2.845  -1.621   3.606  0.00  0.00    -0.270 OA
ATOM     15  H   UNL     1      -0.315  -0.296   2.430  0.00  0.00    +0.155 HD
BRANCH  12  21
ATOM     16  C   UNL     1      -1.626  -0.288   0.093  0.00  0.00    +0.051 A 
ATOM     17  C   UNL     1      -2.223  -0.653  -1.104  0.00  0.00    +0.025 A 
ATOM     18  C   UNL     1      -2.977  -1.810  -1.177  0.00  0.00    +0.002 A 
ATOM     19  C   UNL     1      -3.138  -2.606  -0.058  0.00  0.00    +0.002 A 
ATOM     20  C   UNL     1      -2.547  -2.250   1.140  0.00  0.00    +0.025 A 
ATOM     21  C   UNL     1      -1.784  -1.094   1.220  0.00  0.00    +0.055 A 
BRANCH  16  23
ATOM     22  C   UNL     1      -1.501   2.150   0.532  0.00  0.00    +0.129 C 
ATOM     23  N   UNL     1      -0.864   0.882   0.169  0.00  0.00    -0.335 N 
ATOM     24  C   UNL     1       0.573   0.840  -0.115  0.00  0.00    +0.129 C 
ENDBRANCH  16  23
ENDBRANCH  12  21
ENDBRANCH   1  13
BRANCH   3  25
ATOM     25  N   UNL     1       1.730   1.337   6.000  0.00  0.00    -0.149 NA
ATOM     26  N   UNL     1       2.310   1.585   4.875  0.00  0.00    -0.149 NA
BRANCH  26  27
ATOM     27  C   UNL     1       3.482   2.288   4.851  0.00  0.00    +0.088 A 
ATOM     28  C   UNL     1       4.059   2.733   6.044  0.00  0.00    +0.029 A 
ATOM     29  C   UNL     1       5.241   3.442   6.011  0.00  0.00    +0.004 A 
ATOM     30  C   UNL     1       5.857   3.711   4.801  0.00  0.00    +0.030 A 
ATOM     31  C   UNL     1       5.292   3.274   3.616  0.00  0.00    +0.122 A 
ATOM     32  C   UNL     1       4.113   2.559   3.634  0.00  0.00    +0.059 A 
BRANCH  31  33
ATOM     33  S   UNL     1       6.086   3.624   2.083  0.00  0.00    +0.140 S 
ATOM     34  O   UNL     1       5.038   3.725   1.079  0.00  0.00    -0.140 OA
ATOM     35  O   UNL     1       6.798   4.880   2.253  0.00  0.00    -0.140 OA
ATOM     36  O   UNL     1       6.991   2.518   1.813  0.00  0.00    -0.043 OA
ENDBRANCH  31  33
ENDBRANCH  26  27
ENDBRANCH   3  25
TORSDOF 6
