REMARK  Name = ZINC02246498
REMARK  4 active torsions:
REMARK  status: ('A' for Active; 'I' for Inactive)
REMARK    1  A    between atoms: C_1  and  O_2
REMARK    2  A    between atoms: O_2  and  C_3
REMARK    3  A    between atoms: C_8  and  C_9
REMARK    4  A    between atoms: C_26  and  C_28
REMARK                            x       y       z     vdW  Elec       q    Type
REMARK                         _______ _______ _______ _____ _____    ______ ____
ROOT
ATOM      1  C   UNL     1       0.100  -3.102   0.364  0.00  0.00    +0.238 C 
ATOM      2  C   UNL     1      -1.391  -3.216   0.487  0.00  0.00    +0.027 C 
ATOM      3  C   UNL     1      -1.948  -4.226   1.187  0.00  0.00    +0.083 C 
ATOM      4  C   UNL     1      -1.031  -5.212   1.812  0.00  0.00    +0.042 A 
ATOM      5  C   UNL     1      -1.466  -6.081   2.803  0.00  0.00    +0.013 A 
ATOM      6  C   UNL     1      -0.578  -6.982   3.358  0.00  0.00    +0.001 A 
ATOM      7  C   UNL     1       0.738  -7.019   2.930  0.00  0.00    +0.004 A 
ATOM      8  C   UNL     1       1.179  -6.157   1.942  0.00  0.00    +0.046 A 
ATOM      9  C   UNL     1       0.300  -5.250   1.376  0.00  0.00    +0.131 A 
ATOM     10  O   UNL     1       0.701  -4.398   0.405  0.00  0.00    -0.479 OA
ATOM     11  N   UNL     1      -3.292  -4.341   1.316  0.00  0.00    -0.213 NA
ATOM     12  C   UNL     1      -4.161  -3.514   0.784  0.00  0.00    +0.237 C 
ATOM     13  N   UNL     1      -5.512  -3.484   0.811  0.00  0.00    -0.205 NA
ATOM     14  C   UNL     1      -5.957  -2.464   0.130  0.00  0.00    +0.203 C 
ATOM     15  N   UNL     1      -4.906  -1.767  -0.383  0.00  0.00    -0.251 N 
ATOM     16  N   UNL     1      -3.750  -2.431   0.032  0.00  0.00    -0.208 N 
ATOM     17  C   UNL     1      -2.313  -2.209  -0.166  0.00  0.00    +0.162 C 
ATOM     18  H   UNL     1      -4.951  -0.967  -0.930  0.00  0.00    +0.171 HD
ENDROOT
BRANCH   1  24
ATOM     19  C   UNL     1       1.776  -1.505   1.327  0.00  0.00    +0.127 A 
ATOM     20  C   UNL     1       2.260  -0.735   2.375  0.00  0.00    +0.047 A 
ATOM     21  C   UNL     1       1.605  -0.735   3.591  0.00  0.00    +0.019 A 
ATOM     22  C   UNL     1       0.467  -1.503   3.765  0.00  0.00    +0.018 A 
ATOM     23  C   UNL     1      -0.017  -2.272   2.722  0.00  0.00    +0.026 A 
ATOM     24  C   UNL     1       0.632  -2.270   1.502  0.00  0.00    +0.040 A 
ATOM     25 BR   UNL     1      -0.427  -1.501   5.431  0.00  0.00    -0.050 Br
BRANCH  19  27
ATOM     26  C   UNL     1       3.646  -0.778   0.051  0.00  0.00    +0.277 C 
ATOM     27  O   UNL     1       2.419  -1.506   0.130  0.00  0.00    -0.495 OA
ENDBRANCH  19  27
ENDBRANCH   1  24
BRANCH  17  28
ATOM     28  C   UNL     1      -1.970  -0.843   0.369  0.00  0.00    +0.014 A 
ATOM     29  C   UNL     1      -2.636  -0.345   1.473  0.00  0.00    +0.008 A 
ATOM     30  C   UNL     1      -2.321   0.908   1.964  0.00  0.00    +0.001 A 
ATOM     31  C   UNL     1      -1.341   1.666   1.350  0.00  0.00    +0.003 A 
ATOM     32  C   UNL     1      -0.674   1.171   0.246  0.00  0.00    +0.039 A 
ATOM     33  C   UNL     1      -0.984  -0.087  -0.243  0.00  0.00    +0.129 A 
ATOM     34  F   UNL     1      -0.329  -0.575  -1.319  0.00  0.00    -0.205 F 
ENDBRANCH  17  28
TORSDOF 3
