REMARK  Name = ZINC35400771
REMARK  17 active torsions:
REMARK  status: ('A' for Active; 'I' for Inactive)
REMARK    1  A    between atoms: C_1  and  C_2
REMARK    2  A    between atoms: C_5  and  N_9
REMARK    3  A    between atoms: C_6  and  C_8
REMARK    4  A    between atoms: N_12  and  C_13
REMARK    5  A    between atoms: N_12  and  C_16
REMARK    6  A    between atoms: C_13  and  C_14
REMARK    7  A    between atoms: C_16  and  C_17
REMARK    8  A    between atoms: N_19  and  C_20
REMARK    9  A    between atoms: N_19  and  C_32
REMARK   10  A    between atoms: C_20  and  C_21
REMARK   11  A    between atoms: C_21  and  C_22
REMARK   12  A    between atoms: C_25  and  O_30
REMARK   13  A    between atoms: C_26  and  O_28
REMARK   14  A    between atoms: O_28  and  C_29
REMARK   15  A    between atoms: O_30  and  C_31
REMARK   16  A    between atoms: C_32  and  C_33
REMARK   17  A    between atoms: C_34  and  C_38
REMARK                            x       y       z     vdW  Elec       q    Type
REMARK                         _______ _______ _______ _____ _____    ______ ____
ROOT
ATOM      1  C   UNL     1       1.138  -7.412  -2.848  0.00  0.00    +0.233 C 
ATOM      2  O   UNL     1       2.107  -7.066  -2.204  0.00  0.00    -0.274 OA
ATOM      3  N   UNL     1       1.296  -7.898  -4.095  0.00  0.00    -0.295 N 
ENDROOT
BRANCH   1   4
ATOM      4  C   UNL     1      -0.241  -7.299  -2.252  0.00  0.00    +0.205 C 
BRANCH   4   8
ATOM      5  N   UNL     1      -0.111  -4.907   0.537  0.00  0.00    -0.269 N 
ATOM      6  C   UNL     1      -0.200  -5.415  -0.708  0.00  0.00    +0.307 C 
ATOM      7  O   UNL     1      -0.329  -4.670  -1.660  0.00  0.00    -0.252 OA
ATOM      8  N   UNL     1      -0.145  -6.748  -0.898  0.00  0.00    -0.273 N 
ATOM      9  H   UNL     1       0.064  -5.495   1.289  0.00  0.00    +0.156 HD
BRANCH   5  14
ATOM     10  C   UNL     1      -0.766   0.664   1.383  0.00  0.00    +0.044 C 
ATOM     11  C   UNL     1      -0.592  -0.816   1.158  0.00  0.00    -0.050 A 
ATOM     12  C   UNL     1      -0.049  -1.274  -0.028  0.00  0.00    +0.005 A 
ATOM     13  C   UNL     1       0.112  -2.630  -0.237  0.00  0.00    +0.024 A 
ATOM     14  C   UNL     1      -0.273  -3.533   0.746  0.00  0.00    +0.038 A 
ATOM     15  C   UNL     1      -0.818  -3.069   1.936  0.00  0.00    -0.029 A 
ATOM     16  C   UNL     1      -0.971  -1.712   2.141  0.00  0.00    +0.008 A 
ATOM     17  C   UNL     1      -1.237  -4.045   3.005  0.00  0.00    +0.045 C 
ENDBRANCH   5  14
BRANCH   8  18
ATOM     18  C   UNL     1       0.010  -7.645   0.249  0.00  0.00    +0.136 C 
BRANCH  18  19
ATOM     19  C   UNL     1      -1.350  -8.030   0.774  0.00  0.00    -0.016 C 
ATOM     20  C   UNL     1      -1.673  -9.294   0.891  0.00  0.00    +0.005 C 
ENDBRANCH  18  19
ENDBRANCH   8  18
ENDBRANCH   4   8
ENDBRANCH   1   4
BRANCH   3  21
ATOM     21  C   UNL     1       2.638  -8.007  -4.674  0.00  0.00    +0.113 C 
BRANCH  21  22
ATOM     22  C   UNL     1       3.175  -9.422  -4.452  0.00  0.00    +0.054 C 
BRANCH  22  23
ATOM     23  C   UNL     1       4.555  -9.535  -5.047  0.00  0.00    -0.042 A 
ATOM     24  C   UNL     1       4.707  -9.926  -6.365  0.00  0.00    +0.007 A 
ATOM     25  C   UNL     1       5.971 -10.031  -6.916  0.00  0.00    +0.049 A 
ATOM     26  C   UNL     1       7.088  -9.744  -6.147  0.00  0.00    +0.161 A 
ATOM     27  C   UNL     1       6.934  -9.350  -4.822  0.00  0.00    +0.162 A 
ATOM     28  C   UNL     1       5.664  -9.242  -4.277  0.00  0.00    +0.053 A 
BRANCH  27  29
ATOM     29  O   UNL     1       8.027  -9.066  -4.064  0.00  0.00    -0.491 OA
ATOM     30  C   UNL     1       7.793  -8.668  -2.711  0.00  0.00    +0.277 C 
ENDBRANCH  27  29
BRANCH  26  31
ATOM     31  O   UNL     1       8.332  -9.847  -6.688  0.00  0.00    -0.491 OA
ATOM     32  C   UNL     1       8.413 -10.257  -8.054  0.00  0.00    +0.277 C 
ENDBRANCH  26  31
ENDBRANCH  22  23
ENDBRANCH  21  22
ENDBRANCH   3  21
BRANCH   3  33
ATOM     33  C   UNL     1       0.127  -8.316  -4.872  0.00  0.00    +0.150 C 
BRANCH  33  34
ATOM     34  C   UNL     1      -0.316  -7.183  -5.761  0.00  0.00    +0.010 A 
ATOM     35  C   UNL     1      -0.022  -6.957  -7.065  0.00  0.00    -0.039 A 
ATOM     36  C   UNL     1      -0.548  -5.839  -7.686  0.00  0.00    +0.011 A 
ATOM     37  C   UNL     1      -1.342  -5.003  -6.974  0.00  0.00    +0.046 A 
ATOM     38  S   UNL     1      -1.371  -5.796  -5.374  0.00  0.00    -0.100 S 
ATOM     39  C   UNL     1       0.865  -7.908  -7.825  0.00  0.00    +0.044 C 
ENDBRANCH  33  34
ENDBRANCH   3  33
TORSDOF 12
