REMARK  Name = ZINC04259277
REMARK  6 active torsions:
REMARK  status: ('A' for Active; 'I' for Inactive)
REMARK    1  A    between atoms: C_4  and  S_7
REMARK    2  A    between atoms: S_7  and  C_8
REMARK    3  A    between atoms: N_12  and  C_13
REMARK    4  A    between atoms: C_23  and  O_25
REMARK    5  A    between atoms: O_25  and  C_26
REMARK    6  A    between atoms: N_28  and  C_29
REMARK                            x       y       z     vdW  Elec       q    Type
REMARK                         _______ _______ _______ _____ _____    ______ ____
ROOT
ATOM      1  C   UNL     1       1.365  -0.378  -0.607  0.00  0.00    +0.168 C 
ATOM      2  C   UNL     1       2.015   0.994  -0.893  0.00  0.00    +0.190 C 
ATOM      3  O   UNL     1       1.380   1.904   0.032  0.00  0.00    -0.368 OA
ATOM      4  C   UNL     1      -0.011   1.527   0.035  0.00  0.00    +0.192 C 
ATOM      5  C   UNL     1       0.002  -0.025   0.034  0.00  0.00    +0.177 C 
ATOM      6  O   UNL     1       0.021  -0.437   1.403  0.00  0.00    -0.368 OA
ATOM      7  C   UNL     1      -0.346   0.637   2.268  0.00  0.00    +0.207 C 
ATOM      8  C   UNL     1      -0.634   1.874   1.401  0.00  0.00    +0.235 C 
ENDROOT
BRANCH   1  13
ATOM      9  C   UNL     1       1.607  -2.369  -2.145  0.00  0.00    +0.214 A 
ATOM     10  N   UNL     1       1.208  -2.643  -3.368  0.00  0.00    -0.101 NA
ATOM     11  N   UNL     1       0.551  -1.655  -3.859  0.00  0.00    -0.022 NA
ATOM     12  N   UNL     1       0.477  -0.696  -3.002  0.00  0.00    -0.043 NA
ATOM     13  N   UNL     1       1.168  -1.121  -1.854  0.00  0.00    -0.212 N 
BRANCH   9  14
ATOM     14  S   UNL     1       2.537  -3.425  -1.085  0.00  0.00    -0.049 S 
BRANCH  14  18
ATOM     15  C   UNL     1       2.680  -7.168  -3.631  0.00  0.00    +0.000 A 
ATOM     16  C   UNL     1       3.725  -6.263  -3.676  0.00  0.00    +0.001 A 
ATOM     17  C   UNL     1       3.684  -5.120  -2.901  0.00  0.00    +0.015 A 
ATOM     18  C   UNL     1       2.592  -4.881  -2.076  0.00  0.00    +0.016 A 
ATOM     19  C   UNL     1       1.547  -5.795  -2.030  0.00  0.00    +0.015 A 
ATOM     20  C   UNL     1       1.592  -6.933  -2.811  0.00  0.00    +0.001 A 
ENDBRANCH  14  18
ENDBRANCH   9  14
ENDBRANCH   1  13
BRANCH   8  21
ATOM     21  O   UNL     1       0.003   3.050   1.966  0.00  0.00    -0.442 OA
BRANCH  21  22
ATOM     22  C   UNL     1      -0.751   3.830   2.764  0.00  0.00    +0.405 C 
ATOM     23  O   UNL     1      -1.910   3.535   2.982  0.00  0.00    -0.226 OA
ATOM     24  N   UNL     1      -0.222   4.937   3.321  0.00  0.00    -0.251 N 
ATOM     25  H   UNL     1       0.676   5.217   3.083  0.00  0.00    +0.158 HD
BRANCH  24  26
ATOM     26  C   UNL     1      -0.965   5.681   4.240  0.00  0.00    +0.044 A 
ATOM     27  C   UNL     1      -1.972   5.082   4.966  0.00  0.00    +0.024 A 
ATOM     28  C   UNL     1      -2.719   5.814   5.884  0.00  0.00    +0.002 A 
ATOM     29  C   UNL     1      -2.477   7.138   6.091  0.00  0.00    +0.008 A 
ATOM     30  C   UNL     1      -1.458   7.786   5.371  0.00  0.00    -0.016 A 
ATOM     31  C   UNL     1      -0.688   7.050   4.437  0.00  0.00    +0.003 A 
ATOM     32  C   UNL     1       0.325   7.700   3.715  0.00  0.00    +0.010 A 
ATOM     33  C   UNL     1       0.561   9.024   3.927  0.00  0.00    +0.001 A 
ATOM     34  C   UNL     1      -0.193   9.748   4.849  0.00  0.00    +0.001 A 
ATOM     35  C   UNL     1      -1.186   9.152   5.563  0.00  0.00    +0.008 A 
ENDBRANCH  24  26
ENDBRANCH  21  22
ENDBRANCH   8  21
TORSDOF 6
