REMARK  Name = ZINC35851982
REMARK  4 active torsions:
REMARK  status: ('A' for Active; 'I' for Inactive)
REMARK    1  A    between atoms: C_1  and  C_2
REMARK    2  A    between atoms: C_2  and  C_3
REMARK    3  A    between atoms: N_25  and  C_28
REMARK    4  A    between atoms: C_30  and  C_35
REMARK                            x       y       z     vdW  Elec       q    Type
REMARK                         _______ _______ _______ _____ _____    ______ ____
ROOT
ATOM      1  C   UNL     1       0.707  -0.490  -1.238  0.00  0.00    -0.026 A 
ATOM      2  C   UNL     1      -0.024  -0.816  -2.362  0.00  0.00    +0.005 A 
ATOM      3  C   UNL     1       0.614  -1.263  -3.504  0.00  0.00    +0.001 A 
ATOM      4  C   UNL     1       1.993  -1.384  -3.521  0.00  0.00    +0.008 A 
ATOM      5  C   UNL     1       2.726  -1.060  -2.402  0.00  0.00    +0.004 A 
ATOM      6  C   UNL     1       2.095  -0.603  -1.248  0.00  0.00    +0.042 A 
ATOM      7  N   UNL     1       3.041  -0.335  -0.255  0.00  0.00    -0.283 N 
ATOM      8  C   UNL     1       4.299  -0.581  -0.673  0.00  0.00    +0.243 C 
ATOM      9  O   UNL     1       5.316  -0.443  -0.027  0.00  0.00    -0.273 OA
ATOM     10  C   UNL     1       4.195  -1.074  -2.087  0.00  0.00    +0.138 C 
ATOM     11  C   UNL     1       5.000  -0.219  -3.051  0.00  0.00    +0.123 C 
ATOM     12  C   UNL     1       6.417  -0.811  -2.693  0.00  0.00    +0.107 C 
ATOM     13  C   UNL     1       6.214  -2.270  -2.676  0.00  0.00    +0.071 C 
ATOM     14  N   UNL     1       4.771  -2.423  -2.263  0.00  0.00    -0.281 NA
ATOM     15  C   UNL     1       4.671  -3.279  -1.089  0.00  0.00    +0.086 C 
ATOM     16  C   UNL     1       6.048  -3.957  -0.916  0.00  0.00    +0.017 C 
ATOM     17  C   UNL     1       7.041  -2.927  -1.546  0.00  0.00    +0.021 C 
ATOM     18  C   UNL     1       7.306   0.178  -3.251  0.00  0.00    +0.232 C 
ATOM     19  O   UNL     1       8.395  -0.004  -3.753  0.00  0.00    -0.274 OA
ATOM     20  N   UNL     1       6.646   1.371  -3.088  0.00  0.00    -0.208 N 
ATOM     21  C   UNL     1       5.317   1.214  -2.752  0.00  0.00    +0.233 C 
ATOM     22  O   UNL     1       4.562   2.050  -2.304  0.00  0.00    -0.274 OA
ATOM     23  H   UNL     1       2.819  -0.008   0.630  0.00  0.00    +0.155 HD
ENDROOT
BRANCH  20  24
ATOM     24  C   UNL     1       7.254   2.624  -3.258  0.00  0.00    +0.063 A 
ATOM     25  C   UNL     1       7.246   3.238  -4.503  0.00  0.00    +0.037 A 
ATOM     26  C   UNL     1       7.846   4.471  -4.667  0.00  0.00    +0.057 A 
ATOM     27  C   UNL     1       8.454   5.095  -3.593  0.00  0.00    +0.014 A 
ATOM     28  C   UNL     1       8.464   4.487  -2.352  0.00  0.00    +0.022 A 
ATOM     29  C   UNL     1       7.861   3.255  -2.179  0.00  0.00    +0.063 A 
ATOM     30 CL   UNL     1       7.867   2.495  -0.619  0.00  0.00    -0.082 Cl
BRANCH  26  31
ATOM     31  C   UNL     1       7.837   5.138  -6.019  0.00  0.00    +0.417 C 
ATOM     32  F   UNL     1       6.695   5.938  -6.136  0.00  0.00    -0.166 F 
ATOM     33  F   UNL     1       8.980   5.934  -6.153  0.00  0.00    -0.166 F 
ATOM     34  F   UNL     1       7.828   4.162  -7.020  0.00  0.00    -0.166 F 
ENDBRANCH  26  31
ENDBRANCH  20  24
BRANCH   1  36
ATOM     35  C   UNL     1      -0.019   1.526   0.010  0.00  0.00    +0.009 C 
ATOM     36  C   UNL     1       0.002  -0.004   0.002  0.00  0.00    +0.033 C 
ENDBRANCH   1  36
TORSDOF 3
