REMARK  Name = ZINC36313963
REMARK  16 active torsions:
REMARK  status: ('A' for Active; 'I' for Inactive)
REMARK    1  A    between atoms: C_1  and  C_2
REMARK    2  A    between atoms: C_2  and  C_3
REMARK    3  A    between atoms: C_3  and  C_4
REMARK    4  A    between atoms: C_4  and  C_5
REMARK    5  A    between atoms: C_5  and  C_7
REMARK    6  A    between atoms: C_5  and  O_36
REMARK    7  A    between atoms: C_7  and  N_8
REMARK    8  A    between atoms: N_8  and  C_9
REMARK    9  A    between atoms: N_8  and  C_15
REMARK   10  A    between atoms: C_9  and  C_10
REMARK   11  A    between atoms: C_15  and  C_16
REMARK   12  A    between atoms: C_17  and  C_30
REMARK   13  A    between atoms: N_19  and  C_29
REMARK   14  A    between atoms: C_20  and  O_21
REMARK   15  A    between atoms: O_21  and  C_22
REMARK   16  A    between atoms: C_26  and  C_28
REMARK                            x       y       z     vdW  Elec       q    Type
REMARK                         _______ _______ _______ _____ _____    ______ ____
ROOT
ATOM      1  C   UNL     1      -5.814  -7.153  -0.360  0.00  0.00    +0.025 A 
ATOM      2  C   UNL     1      -6.654  -7.736   0.608  0.00  0.00    +0.098 A 
ATOM      3  N   UNL     1      -7.665  -8.303  -0.014  0.00  0.00    -0.168 NA
ATOM      4  N   UNL     1      -7.503  -8.100  -1.391  0.00  0.00    -0.235 N 
ATOM      5  C   UNL     1      -6.363  -7.386  -1.580  0.00  0.00    +0.221 A 
ATOM      6  C   UNL     1      -8.408  -8.570  -2.442  0.00  0.00    +0.176 C 
ENDROOT
BRANCH   2   7
ATOM      7  C   UNL     1      -6.435  -7.715   2.076  0.00  0.00    +0.002 A 
ATOM      8  C   UNL     1      -5.165  -7.954   2.597  0.00  0.00    +0.010 A 
ATOM      9  C   UNL     1      -4.968  -7.933   3.963  0.00  0.00    +0.001 A 
ATOM     10  C   UNL     1      -6.028  -7.675   4.814  0.00  0.00    +0.000 A 
ATOM     11  C   UNL     1      -7.290  -7.438   4.302  0.00  0.00    +0.001 A 
ATOM     12  C   UNL     1      -7.498  -7.451   2.937  0.00  0.00    +0.010 A 
ENDBRANCH   2   7
BRANCH   1  13
ATOM     13  C   UNL     1      -4.538  -6.398  -0.091  0.00  0.00    -0.035 C 
BRANCH  13  14
ATOM     14  N   UNL     1      -4.818  -4.956  -0.066  0.00  0.00    +0.389 N 
ATOM     15  H   UNL     1      -5.286  -4.689  -0.919  0.00  0.00    -0.081 HD
BRANCH  14  16
ATOM     16  C   UNL     1      -5.679  -4.644   1.083  0.00  0.00    -0.046 C 
BRANCH  16  17
ATOM     17  C   UNL     1      -6.072  -3.166   1.038  0.00  0.00    +0.098 C 
BRANCH  17  18
ATOM     18  O   UNL     1      -6.878  -2.922  -0.116  0.00  0.00    -0.394 OA
ATOM     19  H   UNL     1      -7.697  -3.436  -0.140  0.00  0.00    +0.210 HD
ENDBRANCH  17  18
BRANCH  17  20
ATOM     20  C   UNL     1      -6.864  -2.811   2.298  0.00  0.00    +0.029 C 
BRANCH  20  21
ATOM     21  C   UNL     1      -7.150  -1.308   2.315  0.00  0.00    +0.002 C 
BRANCH  21  23
ATOM     22  C   UNL     1      -8.228   0.549   3.591  0.00  0.00    +0.004 C 
ATOM     23  C   UNL     1      -7.943  -0.954   3.575  0.00  0.00    -0.003 C 
ENDBRANCH  21  23
ENDBRANCH  20  21
ENDBRANCH  17  20
ENDBRANCH  16  17
ENDBRANCH  14  16
BRANCH  14  24
ATOM     24  C   UNL     1      -3.555  -4.214   0.053  0.00  0.00    -0.003 C 
BRANCH  24  25
ATOM     25  C   UNL     1      -2.726  -4.432  -1.187  0.00  0.00    +0.089 A 
ATOM     26  C   UNL     1      -2.711  -3.638  -2.272  0.00  0.00    +0.042 A 
ATOM     27  C   UNL     1      -1.800  -4.213  -3.188  0.00  0.00    +0.041 A 
ATOM     28  C   UNL     1      -1.313  -5.324  -2.607  0.00  0.00    +0.195 A 
ATOM     29  O   UNL     1      -1.873  -5.449  -1.393  0.00  0.00    -0.470 OA
ENDBRANCH  24  25
ENDBRANCH  14  24
ENDBRANCH  13  14
ENDBRANCH   1  13
BRANCH   5  30
ATOM     30  O   UNL     1      -5.861  -6.982  -2.774  0.00  0.00    -0.438 OA
BRANCH  30  31
ATOM     31  C   UNL     1      -5.077  -7.851  -3.464  0.00  0.00    +0.131 A 
ATOM     32  C   UNL     1      -4.900  -9.147  -2.999  0.00  0.00    +0.046 A 
ATOM     33  C   UNL     1      -4.103 -10.029  -3.702  0.00  0.00    +0.004 A 
ATOM     34  C   UNL     1      -3.481  -9.622  -4.868  0.00  0.00    +0.003 A 
ATOM     35  C   UNL     1      -3.655  -8.332  -5.333  0.00  0.00    -0.047 A 
ATOM     36  C   UNL     1      -4.456  -7.447  -4.637  0.00  0.00    +0.049 A 
ATOM     37  C   UNL     1      -2.975  -7.891  -6.604  0.00  0.00    +0.044 C 
ENDBRANCH  30  31
ENDBRANCH   5  30
TORSDOF 13
