REMARK  Name = ZINC09745920
REMARK  12 active torsions:
REMARK  status: ('A' for Active; 'I' for Inactive)
REMARK    1  A    between atoms: C_1  and  C_2
REMARK    2  A    between atoms: C_2  and  C_3
REMARK    3  A    between atoms: C_3  and  C_5
REMARK    4  A    between atoms: C_3  and  N_64
REMARK    5  A    between atoms: C_8  and  S_17
REMARK    6  A    between atoms: N_9  and  C_10
REMARK    7  A    between atoms: C_10  and  C_11
REMARK    8  A    between atoms: S_17  and  C_18
REMARK    9  A    between atoms: C_18  and  C_20
REMARK   10  A    between atoms: C_18  and  C_21
REMARK   11  A    between atoms: C_34  and  N_64
REMARK   12  A    between atoms: C_35  and  N_64
REMARK                            x       y       z     vdW  Elec       q    Type
REMARK                         _______ _______ _______ _____ _____    ______ ____
ROOT
ATOM      1  C   UNL     1      -2.699  -0.563   1.946  0.00  0.00    +0.121 A 
ATOM      2  N   UNL     1      -3.278  -0.210   3.059  0.00  0.00    -0.135 NA
ATOM      3  N   UNL     1      -4.063   0.786   2.851  0.00  0.00    -0.123 NA
ATOM      4  C   UNL     1      -4.024   1.128   1.584  0.00  0.00    +0.193 A 
ATOM      5  N   UNL     1      -3.150   0.280   0.968  0.00  0.00    -0.303 N 
ENDROOT
BRANCH   1   6
ATOM      6  C   UNL     1      -1.715  -1.690   1.770  0.00  0.00    +0.000 C 
BRANCH   6   9
ATOM      7  C   UNL     1       0.022  -0.358   2.806  0.00  0.00    -0.096 C 
ATOM      8  C   UNL     1      -1.324  -1.853   4.154  0.00  0.00    -0.096 C 
ATOM      9  N   UNL     1      -0.690  -1.654   2.834  0.00  0.00    +0.383 N 
ATOM     10  H   UNL     1      -0.013  -2.409   2.672  0.00  0.00    -0.082 HD
ENDBRANCH   6   9
BRANCH   6  12
ATOM     11  C   UNL     1      -1.470  -4.168   1.564  0.00  0.00    +0.002 C 
ATOM     12  C   UNL     1      -2.454  -3.028   1.837  0.00  0.00    -0.011 C 
ENDBRANCH   6  12
ENDBRANCH   1   6
BRANCH   5  13
ATOM     13  C   UNL     1      -2.777   0.270  -0.449  0.00  0.00    +0.160 C 
BRANCH  13  14
ATOM     14  C   UNL     1      -1.582   1.165  -0.660  0.00  0.00    -0.028 A 
ATOM     15  C   UNL     1      -0.305   0.647  -0.558  0.00  0.00    +0.005 A 
ATOM     16  C   UNL     1       0.791   1.467  -0.757  0.00  0.00    +0.000 A 
ATOM     17  C   UNL     1       0.608   2.805  -1.053  0.00  0.00    +0.000 A 
ATOM     18  C   UNL     1      -0.669   3.323  -1.150  0.00  0.00    +0.000 A 
ATOM     19  C   UNL     1      -1.765   2.504  -0.951  0.00  0.00    +0.005 A 
ENDBRANCH  13  14
ENDBRANCH   5  13
BRANCH   4  20
ATOM     20  S   UNL     1      -4.928   2.436   0.823  0.00  0.00    -0.073 S 
BRANCH  20  21
ATOM     21  C   UNL     1      -5.832   3.069   2.258  0.00  0.00    +0.137 C 
ATOM     22  C   UNL     1      -4.842   3.651   3.268  0.00  0.00    +0.029 C 
BRANCH  21  23
ATOM     23  C   UNL     1      -6.788   4.145   1.813  0.00  0.00    +0.233 C 
ATOM     24  O   UNL     1      -6.617   4.710   0.754  0.00  0.00    -0.274 OA
ATOM     25  N   UNL     1      -7.835   4.481   2.594  0.00  0.00    -0.260 N 
ATOM     26  C   UNL     1      -8.069   3.808   3.880  0.00  0.00    +0.209 C 
ATOM     27  C   UNL     1      -9.538   3.532   4.035  0.00  0.00    +0.235 C 
ATOM     28  O   UNL     1      -9.902   2.581   4.694  0.00  0.00    -0.274 OA
ATOM     29  N   UNL     1     -10.455   4.323   3.447  0.00  0.00    -0.283 N 
ATOM     30  C   UNL     1     -10.062   5.397   2.641  0.00  0.00    +0.055 A 
ATOM     31  C   UNL     1      -8.739   5.481   2.202  0.00  0.00    +0.058 A 
ATOM     32  C   UNL     1      -8.338   6.532   1.399  0.00  0.00    +0.025 A 
ATOM     33  C   UNL     1      -9.252   7.504   1.033  0.00  0.00    +0.002 A 
ATOM     34  C   UNL     1     -10.562   7.426   1.469  0.00  0.00    +0.002 A 
ATOM     35  C   UNL     1     -10.970   6.375   2.271  0.00  0.00    +0.025 A 
ATOM     36  H   UNL     1     -11.399   4.147   3.584  0.00  0.00    +0.155 HD
ENDBRANCH  21  23
ENDBRANCH  20  21
ENDBRANCH   4  20
TORSDOF 8
