REMARK  Name = ZINC34888765
REMARK  7 active torsions:
REMARK  status: ('A' for Active; 'I' for Inactive)
REMARK    1  A    between atoms: C_1  and  C_2
REMARK    2  A    between atoms: C_2  and  N_3
REMARK    3  A    between atoms: N_3  and  C_4
REMARK    4  A    between atoms: C_4  and  C_6
REMARK    5  A    between atoms: C_4  and  C_7
REMARK    6  A    between atoms: N_17  and  C_18
REMARK    7  A    between atoms: N_27  and  C_28
REMARK                            x       y       z     vdW  Elec       q    Type
REMARK                         _______ _______ _______ _____ _____    ______ ____
ROOT
ATOM      1  C   UNL     1      -1.332  -1.508  -2.345  0.00  0.00    +0.138 A 
ATOM      2  N   UNL     1      -0.220  -1.133  -2.902  0.00  0.00    -0.231 NA
ATOM      3  C   UNL     1       0.346  -1.845  -3.908  0.00  0.00    +0.078 A 
ATOM      4  C   UNL     1       1.542  -1.442  -4.506  0.00  0.00    +0.028 A 
ATOM      5  C   UNL     1       2.083  -2.195  -5.524  0.00  0.00    +0.002 A 
ATOM      6  C   UNL     1       1.452  -3.352  -5.966  0.00  0.00    +0.001 A 
ATOM      7  C   UNL     1       0.272  -3.769  -5.392  0.00  0.00    +0.015 A 
ATOM      8  C   UNL     1      -0.291  -3.022  -4.359  0.00  0.00    +0.065 A 
ATOM      9  C   UNL     1      -1.549  -3.418  -3.708  0.00  0.00    +0.266 A 
ATOM     10  O   UNL     1      -2.148  -4.422  -4.050  0.00  0.00    -0.267 OA
ATOM     11  N   UNL     1      -2.011  -2.628  -2.712  0.00  0.00    -0.263 N 
ENDROOT
BRANCH  11  12
ATOM     12  C   UNL     1      -3.202  -2.964  -2.056  0.00  0.00    +0.051 A 
ATOM     13  C   UNL     1      -4.325  -2.159  -2.198  0.00  0.00    +0.027 A 
ATOM     14  C   UNL     1      -5.498  -2.493  -1.550  0.00  0.00    +0.017 A 
ATOM     15  C   UNL     1      -5.555  -3.627  -0.759  0.00  0.00    +0.018 A 
ATOM     16  C   UNL     1      -4.438  -4.430  -0.616  0.00  0.00    +0.017 A 
ATOM     17  C   UNL     1      -3.264  -4.105  -1.267  0.00  0.00    +0.027 A 
ATOM     18 BR   UNL     1      -7.163  -4.080   0.127  0.00  0.00    -0.050 Br
ENDBRANCH  11  12
BRANCH   1  19
ATOM     19  C   UNL     1      -1.896  -0.662  -1.233  0.00  0.00    +0.141 C 
ATOM     20  C   UNL     1      -2.035   0.785  -1.712  0.00  0.00    +0.036 C 
BRANCH  19  21
ATOM     21  N   UNL     1      -0.995  -0.709  -0.079  0.00  0.00    -0.276 N 
ATOM     22  C   UNL     1      -1.439  -1.179   1.104  0.00  0.00    +0.307 C 
ATOM     23  O   UNL     1      -2.587  -1.564   1.213  0.00  0.00    -0.252 OA
ATOM     24  N   UNL     1      -0.610  -1.223   2.166  0.00  0.00    -0.267 N 
ATOM     25  H   UNL     1       0.326  -0.989   2.061  0.00  0.00    +0.156 HD
BRANCH  24  26
ATOM     26  C   UNL     1      -1.099  -1.607   3.421  0.00  0.00    +0.070 A 
ATOM     27  C   UNL     1      -2.447  -1.458   3.717  0.00  0.00    +0.026 A 
ATOM     28  C   UNL     1      -2.927  -1.838   4.956  0.00  0.00    +0.002 A 
ATOM     29  C   UNL     1      -2.066  -2.365   5.901  0.00  0.00    +0.003 A 
ATOM     30  C   UNL     1      -0.723  -2.515   5.611  0.00  0.00    +0.040 A 
ATOM     31  C   UNL     1      -0.237  -2.143   4.371  0.00  0.00    +0.145 A 
ATOM     32  F   UNL     1       1.075  -2.294   4.085  0.00  0.00    -0.204 F 
ENDBRANCH  24  26
BRANCH  21  34
ATOM     33  C   UNL     1       0.460   1.247   0.120  0.00  0.00    +0.024 C 
ATOM     34  C   UNL     1       0.389  -0.245  -0.210  0.00  0.00    +0.107 C 
ENDBRANCH  21  34
ENDBRANCH  19  21
ENDBRANCH   1  19
TORSDOF 5
