REMARK  Name = ZINC09410315
REMARK  6 active torsions:
REMARK  status: ('A' for Active; 'I' for Inactive)
REMARK    1  A    between atoms: C_3  and  S_24
REMARK    2  A    between atoms: C_6  and  N_7
REMARK    3  A    between atoms: C_8  and  C_10
REMARK    4  A    between atoms: N_15  and  C_17
REMARK    5  A    between atoms: S_24  and  N_27
REMARK    6  A    between atoms: N_27  and  C_28
REMARK                            x       y       z     vdW  Elec       q    Type
REMARK                         _______ _______ _______ _____ _____    ______ ____
ROOT
ATOM      1  N   UNL     1      -1.205  -0.735   0.157  0.00  0.00    -0.280 N 
ATOM      2  C   UNL     1      -1.186  -2.074   0.002  0.00  0.00    +0.272 C 
ATOM      3  O   UNL     1      -0.127  -2.670  -0.009  0.00  0.00    -0.268 OA
ATOM      4  H   UNL     1      -2.051  -0.269   0.241  0.00  0.00    +0.155 HD
ENDROOT
BRANCH   2   5
ATOM      5  C   UNL     1      -2.452  -2.817  -0.153  0.00  0.00    +0.193 A 
ATOM      6  C   UNL     1      -2.448  -4.279  -0.316  0.00  0.00    +0.212 A 
ATOM      7  O   UNL     1      -1.406  -4.915  -0.327  0.00  0.00    -0.285 OA
ATOM      8  C   UNL     1      -3.706  -4.919  -0.460  0.00  0.00    +0.073 A 
ATOM      9  C   UNL     1      -4.816  -4.144  -0.436  0.00  0.00    +0.117 A 
ATOM     10  N   UNL     1      -4.723  -2.800  -0.281  0.00  0.00    -0.239 N 
ATOM     11  N   UNL     1      -3.607  -2.184  -0.143  0.00  0.00    -0.158 NA
BRANCH  10  12
ATOM     12  C   UNL     1      -5.903  -2.050  -0.265  0.00  0.00    +0.066 A 
ATOM     13  C   UNL     1      -5.844  -0.661  -0.267  0.00  0.00    +0.030 A 
ATOM     14  C   UNL     1      -7.010   0.078  -0.251  0.00  0.00    +0.040 A 
ATOM     15  C   UNL     1      -8.238  -0.564  -0.233  0.00  0.00    +0.124 A 
ATOM     16  C   UNL     1      -8.299  -1.948  -0.231  0.00  0.00    +0.040 A 
ATOM     17  C   UNL     1      -7.135  -2.691  -0.253  0.00  0.00    +0.030 A 
ATOM     18  F   UNL     1      -9.378   0.161  -0.218  0.00  0.00    -0.205 F 
ENDBRANCH  10  12
ENDBRANCH   2   5
BRANCH   1  24
ATOM     19  C   UNL     1       1.084  -0.445  -0.554  0.00  0.00    +0.025 A 
ATOM     20  C   UNL     1       2.268   0.266  -0.513  0.00  0.00    +0.031 A 
ATOM     21  C   UNL     1       2.370   1.399   0.272  0.00  0.00    +0.111 A 
ATOM     22  C   UNL     1       1.287   1.825   1.019  0.00  0.00    +0.031 A 
ATOM     23  C   UNL     1       0.101   1.120   0.983  0.00  0.00    +0.025 A 
ATOM     24  C   UNL     1      -0.005  -0.019   0.196  0.00  0.00    +0.034 A 
BRANCH  21  25
ATOM     25  S   UNL     1       3.882   2.301   0.322  0.00  0.00    +0.093 S 
ATOM     26  O   UNL     1       3.892   3.011   1.553  0.00  0.00    -0.148 OA
ATOM     27  O   UNL     1       4.911   1.390  -0.040  0.00  0.00    -0.148 OA
BRANCH  25  28
ATOM     28  N   UNL     1       3.814   3.438  -0.880  0.00  0.00    -0.070 NA
BRANCH  28  29
ATOM     29  C   UNL     1       4.879   4.303  -1.078  0.00  0.00    +0.201 A 
ATOM     30  N   UNL     1       6.017   4.362  -0.420  0.00  0.00    -0.231 NA
ATOM     31  C   UNL     1       6.941   5.253  -0.735  0.00  0.00    +0.120 A 
ATOM     32  C   UNL     1       6.662   6.095  -1.759  0.00  0.00    +0.068 A 
ATOM     33  S   UNL     1       5.035   5.526  -2.224  0.00  0.00    -0.058 S 
ENDBRANCH  28  29
ENDBRANCH  25  28
ENDBRANCH  21  25
ENDBRANCH   1  24
TORSDOF 6
