REMARK  Name = ZINC35229620
REMARK  8 active torsions:
REMARK  status: ('A' for Active; 'I' for Inactive)
REMARK    1  A    between atoms: C_1  and  C_2
REMARK    2  A    between atoms: C_2  and  C_3
REMARK    3  A    between atoms: C_3  and  C_4
REMARK    4  A    between atoms: C_4  and  N_5
REMARK    5  A    between atoms: N_5  and  C_6
REMARK    6  A    between atoms: C_6  and  C_7
REMARK    7  A    between atoms: C_21  and  C_23
REMARK    8  A    between atoms: C_29  and  C_31
REMARK                            x       y       z     vdW  Elec       q    Type
REMARK                         _______ _______ _______ _____ _____    ______ ____
ROOT
ATOM      1  C   UNL     1      -3.166  -3.889  -1.900  0.00  0.00    +0.238 C 
ATOM      2  O   UNL     1      -2.499  -4.702  -1.294  0.00  0.00    -0.273 OA
ATOM      3  N   UNL     1      -3.596  -4.166  -3.147  0.00  0.00    -0.255 N 
ATOM      4  C   UNL     1      -3.192  -5.350  -3.780  0.00  0.00    +0.061 A 
ATOM      5  C   UNL     1      -1.969  -5.928  -3.479  0.00  0.00    +0.025 A 
ATOM      6  C   UNL     1      -1.588  -7.101  -4.103  0.00  0.00    +0.002 A 
ATOM      7  C   UNL     1      -2.421  -7.705  -5.027  0.00  0.00    +0.002 A 
ATOM      8  C   UNL     1      -3.642  -7.134  -5.339  0.00  0.00    +0.028 A 
ATOM      9  C   UNL     1      -4.027  -5.959  -4.723  0.00  0.00    +0.068 A 
ATOM     10  N   UNL     1      -5.243  -5.329  -5.025  0.00  0.00    -0.316 N 
ATOM     11  C   UNL     1      -6.321  -5.791  -5.703  0.00  0.00    +0.092 A 
ATOM     12  C   UNL     1      -7.253  -4.812  -5.728  0.00  0.00    +0.020 A 
ATOM     13  C   UNL     1      -6.723  -3.701  -5.036  0.00  0.00    +0.025 A 
ATOM     14  C   UNL     1      -5.498  -4.037  -4.619  0.00  0.00    +0.049 A 
ATOM     15  C   UNL     1      -4.495  -3.228  -3.840  0.00  0.00    +0.159 C 
ENDROOT
BRANCH  15  16
ATOM     16  C   UNL     1      -3.700  -2.363  -4.784  0.00  0.00    -0.021 A 
ATOM     17  C   UNL     1      -2.675  -2.914  -5.531  0.00  0.00    +0.006 A 
ATOM     18  C   UNL     1      -1.946  -2.120  -6.396  0.00  0.00    +0.000 A 
ATOM     19  C   UNL     1      -2.242  -0.775  -6.516  0.00  0.00    +0.000 A 
ATOM     20  C   UNL     1      -3.267  -0.224  -5.770  0.00  0.00    +0.000 A 
ATOM     21  C   UNL     1      -3.999  -1.019  -4.907  0.00  0.00    +0.006 A 
ENDBRANCH  15  16
BRANCH   1  22
ATOM     22  C   UNL     1      -3.513  -2.570  -1.259  0.00  0.00    +0.204 C 
BRANCH  22  23
ATOM     23  N   UNL     1      -2.834  -2.463   0.034  0.00  0.00    -0.289 N 
ATOM     24  C   UNL     1      -3.439  -2.909   1.153  0.00  0.00    +0.248 C 
ATOM     25  O   UNL     1      -4.516  -3.468   1.079  0.00  0.00    -0.270 OA
BRANCH  24  26
ATOM     26  C   UNL     1      -2.795  -2.719   2.466  0.00  0.00    +0.045 A 
ATOM     27  C   UNL     1      -1.535  -3.245   2.712  0.00  0.00    +0.014 A 
ATOM     28  C   UNL     1      -0.924  -3.070   3.946  0.00  0.00    +0.001 A 
ATOM     29  C   UNL     1      -1.539  -2.379   4.947  0.00  0.00    +0.008 A 
ATOM     30  C   UNL     1      -2.816  -1.828   4.742  0.00  0.00    -0.017 A 
ATOM     31  C   UNL     1      -3.454  -1.992   3.488  0.00  0.00    -0.006 A 
ATOM     32  C   UNL     1      -4.724  -1.438   3.284  0.00  0.00    +0.009 A 
ATOM     33  C   UNL     1      -5.328  -0.745   4.289  0.00  0.00    +0.001 A 
ATOM     34  C   UNL     1      -4.700  -0.578   5.522  0.00  0.00    +0.001 A 
ATOM     35  C   UNL     1      -3.471  -1.113   5.759  0.00  0.00    +0.008 A 
ENDBRANCH  24  26
BRANCH  23  36
ATOM     36  C   UNL     1      -1.496  -1.870   0.112  0.00  0.00    +0.108 C 
BRANCH  36  37
ATOM     37  C   UNL     1      -1.619  -0.349   0.233  0.00  0.00    +0.019 C 
BRANCH  37  39
ATOM     38  C   UNL     1      -0.344   1.790   0.434  0.00  0.00    +0.004 C 
ATOM     39  C   UNL     1      -0.222   0.270   0.314  0.00  0.00    -0.002 C 
ENDBRANCH  37  39
ENDBRANCH  36  37
ENDBRANCH  23  36
ENDBRANCH  22  23
ENDBRANCH   1  22
TORSDOF 7
