REMARK  Name = ZINC39631953
REMARK  11 active torsions:
REMARK  status: ('A' for Active; 'I' for Inactive)
REMARK    1  A    between atoms: C_1  and  C_2
REMARK    2  A    between atoms: C_2  and  C_4
REMARK    3  A    between atoms: C_2  and  N_11
REMARK    4  A    between atoms: C_4  and  C_5
REMARK    5  A    between atoms: C_5  and  C_6
REMARK    6  A    between atoms: C_6  and  C_7
REMARK    7  A    between atoms: C_7  and  C_8
REMARK    8  A    between atoms: C_7  and  C_9
REMARK    9  A    between atoms: C_7  and  O_10
REMARK   10  A    between atoms: C_12  and  C_14
REMARK   11  A    between atoms: C_25  and  C_27
REMARK                            x       y       z     vdW  Elec       q    Type
REMARK                         _______ _______ _______ _____ _____    ______ ____
ROOT
ATOM      1  C   UNL     1       1.369  -2.047  -3.748  0.00  0.00    +0.100 C 
ATOM      2  C   UNL     1       1.850  -0.627  -4.121  0.00  0.00    +0.121 C 
ATOM      3  N   UNL     1       1.790  -0.588  -5.601  0.00  0.00    -0.300 N 
ATOM      4  C   UNL     1       0.549  -1.325  -5.940  0.00  0.00    +0.115 C 
ATOM      5  C   UNL     1       0.515  -2.502  -4.944  0.00  0.00    -0.004 C 
ATOM      6  C   UNL     1      -0.918  -2.773  -4.497  0.00  0.00    -0.010 C 
ATOM      7  C   UNL     1      -1.733  -3.279  -5.690  0.00  0.00    -0.082 C 
ATOM      8  N   UNL     1      -1.123  -4.506  -6.217  0.00  0.00    +0.379 N 
ATOM      9  C   UNL     1       0.222  -4.217  -6.730  0.00  0.00    -0.082 C 
ATOM     10  C   UNL     1       1.119  -3.750  -5.580  0.00  0.00    -0.010 C 
ATOM     11  C   UNL     1       2.666  -0.012  -6.449  0.00  0.00    +0.219 C 
ATOM     12  O   UNL     1       3.689   0.479  -6.022  0.00  0.00    -0.275 OA
ATOM     13  H   UNL     1      -1.060  -5.192  -5.479  0.00  0.00    -0.086 HD
ATOM     14  H   UNL     1      -1.695  -4.872  -6.963  0.00  0.00    -0.086 HD
ENDROOT
BRANCH  11  15
ATOM     15  C   UNL     1       2.374   0.020  -7.927  0.00  0.00    +0.079 C 
ATOM     16  C   UNL     1       3.691   0.004  -8.713  0.00  0.00    +0.017 C 
ATOM     17  C   UNL     1       3.365  -0.142 -10.201  0.00  0.00    +0.027 C 
ATOM     18  C   UNL     1       2.317   0.855 -10.601  0.00  0.00    -0.031 C 
ATOM     19  C   UNL     1       1.554   1.481  -9.763  0.00  0.00    -0.030 C 
ATOM     20  C   UNL     1       1.614   1.303  -8.273  0.00  0.00    +0.039 C 
ENDBRANCH  11  15
BRANCH   1  22
ATOM     21  N   UNL     1       0.509  -3.071  -1.668  0.00  0.00    -0.312 N 
ATOM     22  C   UNL     1       0.536  -2.007  -2.494  0.00  0.00    +0.218 C 
ATOM     23  O   UNL     1      -0.111  -1.016  -2.227  0.00  0.00    -0.275 OA
ATOM     24  H   UNL     1       1.026  -3.864  -1.881  0.00  0.00    +0.149 HD
BRANCH  21  26
ATOM     25  C   UNL     1       0.498  -2.366   0.674  0.00  0.00    +0.028 C 
ATOM     26  C   UNL     1      -0.301  -3.032  -0.448  0.00  0.00    +0.070 C 
BRANCH  26  27
ATOM     27  C   UNL     1      -0.671  -4.458  -0.034  0.00  0.00    +0.022 C 
BRANCH  27  28
ATOM     28  C   UNL     1      -1.574  -5.080  -1.101  0.00  0.00    +0.005 C 
BRANCH  28  29
ATOM     29  C   UNL     1      -1.943  -6.506  -0.687  0.00  0.00    +0.034 C 
BRANCH  29  30
ATOM     30  C   UNL     1      -2.847  -7.129  -1.753  0.00  0.00    +0.061 C 
ATOM     31  C   UNL     1      -2.108  -7.161  -3.093  0.00  0.00    +0.041 C 
ATOM     32  C   UNL     1      -3.216  -8.555  -1.340  0.00  0.00    +0.041 C 
BRANCH  30  33
ATOM     33  O   UNL     1      -4.037  -6.348  -1.885  0.00  0.00    -0.389 OA
ATOM     34  H   UNL     1      -4.557  -6.284  -1.072  0.00  0.00    +0.210 HD
ENDBRANCH  30  33
ENDBRANCH  29  30
ENDBRANCH  28  29
ENDBRANCH  27  28
ENDBRANCH  26  27
ENDBRANCH  21  26
ENDBRANCH   1  22
TORSDOF 8
