REMARK  Name = ZINC03830437
REMARK  10 active torsions:
REMARK  status: ('A' for Active; 'I' for Inactive)
REMARK    1  A    between atoms: C_1  and  C_2
REMARK    2  A    between atoms: C_2  and  O_4
REMARK    3  A    between atoms: O_4  and  C_5
REMARK    4  A    between atoms: C_5  and  C_6
REMARK    5  A    between atoms: CA_7  and  C_30
REMARK    6  A    between atoms: CA_11  and  N_15
REMARK    7  A    between atoms: C_16  and  C_18
REMARK    8  A    between atoms: C_18  and  C_22
REMARK    9  A    between atoms: N_19  and  O_20
REMARK   10  A    between atoms: O_20  and  C_21
REMARK                            x       y       z     vdW  Elec       q    Type
REMARK                         _______ _______ _______ _____ _____    ______ ____
ROOT
ATOM      1  C   UNL     1      -2.151  -2.859  -0.406  0.00  0.00    +0.006 C 
ATOM      2  CA  UNL     1      -3.210  -2.064  -0.388  0.00  0.00    +0.130 C 
ATOM      3  N   UNL     1      -4.508  -2.597  -0.470  0.00  0.00    -0.249 N 
ATOM      4  C   UNL     1      -4.912  -4.009  -0.245  0.00  0.00    +0.169 C 
ATOM      5  CA  UNL     1      -6.155  -3.678  -1.043  0.00  0.00    +0.191 C 
ATOM      6  C   UNL     1      -5.741  -2.250  -0.812  0.00  0.00    +0.244 C 
ATOM      7  O   UNL     1      -6.316  -1.186  -0.904  0.00  0.00    -0.273 OA
ATOM      8  S   UNL     1      -3.668  -5.037  -1.097  0.00  0.00    -0.131 S 
ATOM      9  C   UNL     1      -2.119  -4.352  -0.468  0.00  0.00    +0.107 C 
ENDROOT
BRANCH   5  10
ATOM     10  N   UNL     1      -6.096  -4.102  -2.444  0.00  0.00    -0.296 N 
ATOM     11  C   UNL     1      -7.234  -4.342  -3.124  0.00  0.00    +0.268 C 
ATOM     12  O   UNL     1      -8.310  -4.207  -2.575  0.00  0.00    -0.268 OA
ATOM     13  H   UNL     1      -5.237  -4.209  -2.882  0.00  0.00    +0.150 HD
BRANCH  11  14
ATOM     14  C   UNL     1      -7.175  -4.771  -4.541  0.00  0.00    +0.190 C 
ATOM     15  N   UNL     1      -6.021  -4.915  -5.130  0.00  0.00    -0.078 NA
BRANCH  14  16
ATOM     16  C   UNL     1      -8.424  -5.035  -5.287  0.00  0.00    +0.107 A 
ATOM     17  C   UNL     1      -8.384  -5.653  -6.508  0.00  0.00    +0.078 A 
ATOM     18  S   UNL     1     -10.125  -5.702  -6.914  0.00  0.00    -0.060 S 
ATOM     19  C   UNL     1     -10.725  -4.902  -5.432  0.00  0.00    +0.156 A 
ATOM     20  N   UNL     1      -9.602  -4.678  -4.777  0.00  0.00    -0.223 NA
ATOM     21  N   UNL     1     -12.026  -4.602  -5.066  0.00  0.00    -0.338 N 
ATOM     22  H   UNL     1     -12.762  -4.833  -5.655  0.00  0.00    +0.144 HD
ATOM     23  H   UNL     1     -12.203  -4.160  -4.221  0.00  0.00    +0.144 HD
ENDBRANCH  14  16
BRANCH  15  24
ATOM     24  O   UNL     1      -5.959  -5.428  -6.448  0.00  0.00    -0.396 OA
ATOM     25  C   UNL     1      -4.632  -5.533  -6.968  0.00  0.00    +0.313 C 
ENDBRANCH  15  24
ENDBRANCH  11  14
ENDBRANCH   5  10
BRANCH   2  26
ATOM     26  C   UNL     1      -3.026  -0.608  -0.279  0.00  0.00    +0.401 C 
ATOM     27  O   UNL     1      -1.901  -0.129  -0.318  0.00  0.00    -0.239 OA
ATOM     28  OXT UNL     1      -3.999   0.123  -0.150  0.00  0.00    -0.239 OA
ENDBRANCH   2  26
BRANCH   1  29
ATOM     29  C   UNL     1      -0.810  -2.172  -0.364  0.00  0.00    +0.266 C 
BRANCH  29  30
ATOM     30  O   UNL     1       0.228  -3.154  -0.345  0.00  0.00    -0.460 OA
BRANCH  30  32
ATOM     31  C   UNL     1       2.639  -3.683  -0.391  0.00  0.00    +0.136 C 
ATOM     32  C   UNL     1       1.492  -2.706  -0.407  0.00  0.00    +0.304 C 
ATOM     33  O   UNL     1       1.710  -1.520  -0.476  0.00  0.00    -0.251 OA
ENDBRANCH  30  32
ENDBRANCH  29  30
ENDBRANCH   1  29
TORSDOF 8
