REMARK  Name = ZINC09171251
REMARK  9 active torsions:
REMARK  status: ('A' for Active; 'I' for Inactive)
REMARK    1  A    between atoms: C_1  and  C_2
REMARK    2  A    between atoms: C_5  and  N_29
REMARK    3  A    between atoms: C_7  and  S_8
REMARK    4  A    between atoms: S_8  and  N_11
REMARK    5  A    between atoms: N_11  and  C_12
REMARK    6  A    between atoms: N_18  and  C_26
REMARK    7  A    between atoms: C_21  and  C_24
REMARK    8  A    between atoms: C_21  and  C_25
REMARK    9  A    between atoms: C_26  and  C_27
REMARK                            x       y       z     vdW  Elec       q    Type
REMARK                         _______ _______ _______ _____ _____    ______ ____
ROOT
ATOM      1  C   UNL     1      -6.163   3.213   1.339  0.00  0.00    +0.050 A 
ATOM      2  C   UNL     1      -5.389   4.336   1.075  0.00  0.00    +0.028 A 
ATOM      3  C   UNL     1      -5.913   5.601   1.262  0.00  0.00    +0.049 A 
ATOM      4  C   UNL     1      -7.210   5.753   1.723  0.00  0.00    +0.142 A 
ATOM      5  C   UNL     1      -7.986   4.628   1.998  0.00  0.00    +0.080 A 
ATOM      6  C   UNL     1      -7.463   3.360   1.805  0.00  0.00    +0.051 A 
ATOM      7  N   UNL     1      -9.294   4.796   2.473  0.00  0.00    -0.264 N 
ATOM      8  C   UNL     1     -10.126   5.651   1.839  0.00  0.00    +0.229 C 
ATOM      9  O   UNL     1     -11.239   5.855   2.275  0.00  0.00    -0.275 OA
ATOM     10  C   UNL     1      -9.664   6.350   0.586  0.00  0.00    +0.076 C 
ATOM     11  C   UNL     1      -8.671   7.457   0.939  0.00  0.00    +0.244 C 
ATOM     12  O   UNL     1      -7.734   6.995   1.907  0.00  0.00    -0.489 OA
ATOM     13  C   UNL     1      -8.987   5.338  -0.340  0.00  0.00    +0.024 C 
ATOM     14  C   UNL     1     -10.870   6.963  -0.128  0.00  0.00    +0.024 C 
ENDROOT
BRANCH   1  15
ATOM     15  N   UNL     1      -5.631   1.934   1.142  0.00  0.00    -0.216 N 
ATOM     16  H   UNL     1      -5.745   1.251   1.821  0.00  0.00    +0.174 HD
BRANCH  15  17
ATOM     17  S   UNL     1      -4.808   1.586  -0.252  0.00  0.00    +0.073 S 
ATOM     18  O   UNL     1      -5.593   2.088  -1.324  0.00  0.00    -0.150 OA
ATOM     19  O   UNL     1      -4.420   0.222  -0.165  0.00  0.00    -0.150 OA
BRANCH  17  26
ATOM     20  C   UNL     1      -2.596   1.231   1.780  0.00  0.00    +0.046 C 
ATOM     21  C   UNL     1      -2.367   2.298   0.741  0.00  0.00    -0.024 A 
ATOM     22  C   UNL     1      -1.201   3.041   0.758  0.00  0.00    +0.007 A 
ATOM     23  C   UNL     1      -0.990   4.018  -0.197  0.00  0.00    +0.033 A 
ATOM     24  C   UNL     1      -1.948   4.257  -1.165  0.00  0.00    +0.128 A 
ATOM     25  C   UNL     1      -3.112   3.513  -1.183  0.00  0.00    +0.061 A 
ATOM     26  C   UNL     1      -3.322   2.534  -0.230  0.00  0.00    +0.114 A 
BRANCH  24  27
ATOM     27  N   UNL     1      -1.723   5.305  -2.185  0.00  0.00    +0.056 N 
ATOM     28  O   UNL     1      -2.565   5.512  -3.041  0.00  0.00    -0.126 OA
ATOM     29  O   UNL     1      -0.699   5.964  -2.166  0.00  0.00    -0.126 OA
ENDBRANCH  24  27
ENDBRANCH  17  26
ENDBRANCH  15  17
ENDBRANCH   1  15
BRANCH   7  30
ATOM     30  C   UNL     1      -9.754   4.051   3.648  0.00  0.00    +0.140 C 
BRANCH  30  31
ATOM     31  C   UNL     1      -9.470   4.851   4.893  0.00  0.00    -0.015 C 
ATOM     32  C   UNL     1     -10.441   5.130   5.727  0.00  0.00    +0.005 C 
ENDBRANCH  30  31
ENDBRANCH   7  30
TORSDOF 6
