REMARK  Name = ZINC36570136
REMARK  15 active torsions:
REMARK  status: ('A' for Active; 'I' for Inactive)
REMARK    1  A    between atoms: C_1  and  C_2
REMARK    2  A    between atoms: C_2  and  C_3
REMARK    3  A    between atoms: C_3  and  C_4
REMARK    4  A    between atoms: C_4  and  N_5
REMARK    5  A    between atoms: C_6  and  C_8
REMARK    6  A    between atoms: C_8  and  C_10
REMARK    7  A    between atoms: C_8  and  N_19
REMARK    8  A    between atoms: C_11  and  O_18
REMARK    9  A    between atoms: C_13  and  O_17
REMARK   10  A    between atoms: C_15  and  O_16
REMARK   11  A    between atoms: N_19  and  C_20
REMARK   12  A    between atoms: C_20  and  C_21
REMARK   13  A    between atoms: C_21  and  C_22
REMARK   14  A    between atoms: C_23  and  C_25
REMARK   15  A    between atoms: C_27  and  N_32
REMARK                            x       y       z     vdW  Elec       q    Type
REMARK                         _______ _______ _______ _____ _____    ______ ____
ROOT
ATOM      1  C   UNL     1       2.651  -5.079  -4.658  0.00  0.00    +0.199 C 
ENDROOT
BRANCH   1   2
ATOM      2  C   UNL     1       4.096  -5.234  -5.056  0.00  0.00    +0.065 A 
ATOM      3  C   UNL     1       4.435  -6.038  -6.134  0.00  0.00    +0.129 A 
ATOM      4  C   UNL     1       5.765  -6.181  -6.500  0.00  0.00    +0.091 A 
ATOM      5  C   UNL     1       6.755  -5.521  -5.788  0.00  0.00    +0.124 A 
ATOM      6  C   UNL     1       6.416  -4.716  -4.711  0.00  0.00    +0.091 A 
ATOM      7  C   UNL     1       5.085  -4.570  -4.348  0.00  0.00    +0.129 A 
BRANCH   7   8
ATOM      8  O   UNL     1       4.752  -3.778  -3.295  0.00  0.00    -0.506 OA
ATOM      9  H   UNL     1       4.731  -4.240  -2.446  0.00  0.00    +0.292 HD
ENDBRANCH   7   8
BRANCH   5  10
ATOM     10  O   UNL     1       8.059  -5.662  -6.146  0.00  0.00    -0.507 OA
ATOM     11  H   UNL     1       8.362  -5.009  -6.792  0.00  0.00    +0.292 HD
ENDBRANCH   5  10
BRANCH   3  12
ATOM     12  O   UNL     1       3.465  -6.686  -6.831  0.00  0.00    -0.506 OA
ATOM     13  H   UNL     1       3.057  -6.151  -7.526  0.00  0.00    +0.292 HD
ENDBRANCH   3  12
ENDBRANCH   1   2
BRANCH   1  15
ATOM     14  N   UNL     1       2.472  -2.624  -4.902  0.00  0.00    -0.313 N 
ATOM     15  C   UNL     1       2.431  -3.700  -4.091  0.00  0.00    +0.238 C 
ATOM     16  O   UNL     1       2.219  -3.558  -2.906  0.00  0.00    -0.273 OA
ATOM     17  H   UNL     1       2.642  -2.737  -5.850  0.00  0.00    +0.149 HD
BRANCH  14  18
ATOM     18  C   UNL     1       2.259  -1.283  -4.351  0.00  0.00    +0.104 C 
BRANCH  18  19
ATOM     19  C   UNL     1       2.355  -0.249  -5.474  0.00  0.00    +0.018 C 
BRANCH  19  21
ATOM     20  C   UNL     1       2.230   2.186  -6.021  0.00  0.00    +0.004 C 
ATOM     21  C   UNL     1       2.133   1.151  -4.898  0.00  0.00    -0.002 C 
ENDBRANCH  19  21
ENDBRANCH  18  19
ENDBRANCH  14  18
ENDBRANCH   1  15
BRANCH   1  22
ATOM     22  N   UNL     1       2.312  -6.082  -3.646  0.00  0.00    -0.282 N 
ATOM     23  C   UNL     1       1.040  -6.204  -3.217  0.00  0.00    +0.251 C 
ATOM     24  O   UNL     1       0.811  -6.674  -2.119  0.00  0.00    -0.270 OA
BRANCH  23  25
ATOM     25  C   UNL     1      -0.075  -5.766  -4.079  0.00  0.00    +0.086 A 
ATOM     26  C   UNL     1       0.095  -4.691  -4.955  0.00  0.00    +0.049 A 
ATOM     27  C   UNL     1      -0.949  -4.287  -5.757  0.00  0.00    +0.127 A 
ATOM     28  C   UNL     1      -2.169  -4.942  -5.700  0.00  0.00    +0.036 A 
ATOM     29  C   UNL     1      -2.350  -6.005  -4.838  0.00  0.00    +0.054 A 
ATOM     30  C   UNL     1      -1.308  -6.429  -4.028  0.00  0.00    +0.191 A 
ATOM     31  O   UNL     1      -1.483  -7.478  -3.186  0.00  0.00    -0.287 OA
BRANCH  27  32
ATOM     32  N   UNL     1      -0.768  -3.147  -6.684  0.00  0.00    +0.056 N 
ATOM     33  O   UNL     1       0.295  -2.573  -6.736  0.00  0.00    -0.126 OA
ATOM     34  O   UNL     1      -1.683  -2.790  -7.390  0.00  0.00    -0.126 OA
ENDBRANCH  27  32
ENDBRANCH  23  25
BRANCH  22  35
ATOM     35  C   UNL     1       3.355  -6.954  -3.100  0.00  0.00    +0.109 C 
BRANCH  35  36
ATOM     36  C   UNL     1       3.835  -6.396  -1.759  0.00  0.00    +0.016 C 
ATOM     37  C   UNL     1       5.014  -7.230  -1.253  0.00  0.00    +0.005 C 
ENDBRANCH  35  36
ENDBRANCH  22  35
ENDBRANCH   1  22
TORSDOF 13
