REMARK  Name = ZINC23590553
REMARK  9 active torsions:
REMARK  status: ('A' for Active; 'I' for Inactive)
REMARK    1  A    between atoms: C_1  and  C_2
REMARK    2  A    between atoms: C_4  and  C_32
REMARK    3  A    between atoms: C_5  and  N_9
REMARK    4  A    between atoms: C_6  and  C_8
REMARK    5  A    between atoms: C_10  and  C_12
REMARK    6  A    between atoms: C_12  and  N_13
REMARK    7  A    between atoms: C_14  and  C_16
REMARK    8  A    between atoms: C_16  and  S_17
REMARK    9  A    between atoms: S_17  and  C_18
REMARK                            x       y       z     vdW  Elec       q    Type
REMARK                         _______ _______ _______ _____ _____    ______ ____
ROOT
ATOM      1  N   UNL     1      -0.094  -0.010  -0.934  0.00  0.00    -0.306 N 
ATOM      2  C   UNL     1       0.030   1.310  -1.174  0.00  0.00    +0.224 C 
ATOM      3  O   UNL     1       0.787   1.980  -0.503  0.00  0.00    -0.275 OA
ATOM      4  H   UNL     1      -0.780  -0.618  -1.543  0.00  0.00    +0.149 HD
ENDROOT
BRANCH   1   5
ATOM      5  C   UNL     1       0.685  -0.637   0.137  0.00  0.00    +0.200 C 
BRANCH   5   7
ATOM      6  N   UNL     1       0.968  -2.893   1.111  0.00  0.00    -0.284 N 
ATOM      7  C   UNL     1       0.365  -2.108   0.196  0.00  0.00    +0.234 C 
ATOM      8  O   UNL     1      -0.435  -2.587  -0.580  0.00  0.00    -0.274 OA
ATOM      9  H   UNL     1       1.741  -2.473   1.772  0.00  0.00    +0.155 HD
BRANCH   6  14
ATOM     10  C   UNL     1      -0.478  -8.360   1.558  0.00  0.00    +0.044 C 
ATOM     11  C   UNL     1      -0.094  -6.908   1.439  0.00  0.00    -0.050 A 
ATOM     12  C   UNL     1       1.235  -6.555   1.293  0.00  0.00    +0.008 A 
ATOM     13  C   UNL     1       1.591  -5.225   1.184  0.00  0.00    -0.029 A 
ATOM     14  C   UNL     1       0.612  -4.241   1.221  0.00  0.00    +0.039 A 
ATOM     15  C   UNL     1      -0.722  -4.598   1.372  0.00  0.00    -0.029 A 
ATOM     16  C   UNL     1      -1.071  -5.930   1.476  0.00  0.00    +0.008 A 
ATOM     17  C   UNL     1      -1.787  -3.533   1.419  0.00  0.00    +0.045 C 
ATOM     18  C   UNL     1       3.039  -4.842   1.025  0.00  0.00    +0.045 C 
ENDBRANCH   6  14
ENDBRANCH   5   7
ENDBRANCH   1   5
BRANCH   2  19
ATOM     19  C   UNL     1      -0.767   1.953  -2.279  0.00  0.00    +0.173 C 
BRANCH  19  20
ATOM     20  S   UNL     1      -0.384   3.721  -2.350  0.00  0.00    -0.077 S 
BRANCH  20  21
ATOM     21  C   UNL     1      -1.422   4.206  -3.688  0.00  0.00    +0.191 A 
ATOM     22  N   UNL     1      -2.175   3.294  -4.292  0.00  0.00    -0.207 NA
ATOM     23  C   UNL     1      -2.974   3.599  -5.301  0.00  0.00    +0.129 A 
ATOM     24  C   UNL     1      -3.033   4.945  -5.760  0.00  0.00    +0.051 A 
ATOM     25  C   UNL     1      -3.835   5.506  -6.850  0.00  0.00    -0.025 A 
ATOM     26  C   UNL     1      -3.707   6.827  -7.085  0.00  0.00    -0.004 A 
ATOM     27  S   UNL     1      -2.529   7.399  -5.890  0.00  0.00    -0.073 S 
ATOM     28  C   UNL     1      -2.208   5.857  -5.073  0.00  0.00    +0.115 A 
ATOM     29  N   UNL     1      -1.441   5.476  -4.069  0.00  0.00    -0.214 NA
ATOM     30  C   UNL     1      -4.411   7.634  -8.133  0.00  0.00    +0.043 C 
ATOM     31  C   UNL     1      -5.030   6.669  -9.154  0.00  0.00    +0.005 C 
ATOM     32  C   UNL     1      -5.778   5.568  -8.397  0.00  0.00    +0.005 C 
ATOM     33  C   UNL     1      -4.778   4.651  -7.692  0.00  0.00    +0.037 C 
ATOM     34  N   UNL     1      -3.743   2.620  -5.904  0.00  0.00    -0.343 N 
ATOM     35  H   UNL     1      -4.405   2.880  -6.743  0.00  0.00    +0.144 HD
ATOM     36  H   UNL     1      -3.692   1.582  -5.544  0.00  0.00    +0.144 HD
ENDBRANCH  20  21
ENDBRANCH  19  20
ENDBRANCH   2  19
TORSDOF 6
