REMARK  Name = ZINC04716069
REMARK  10 active torsions:
REMARK  status: ('A' for Active; 'I' for Inactive)
REMARK    1  A    between atoms: C_1  and  C_2
REMARK    2  A    between atoms: C_2  and  O_3
REMARK    3  A    between atoms: O_3  and  C_4
REMARK    4  A    between atoms: C_7  and  C_12
REMARK    5  A    between atoms: C_8  and  O_10
REMARK    6  A    between atoms: O_10  and  C_11
REMARK    7  A    between atoms: C_17  and  C_21
REMARK    8  A    between atoms: C_17  and  C_22
REMARK    9  A    between atoms: C_27  and  S_29
REMARK   10  A    between atoms: S_29  and  C_30
REMARK                            x       y       z     vdW  Elec       q    Type
REMARK                         _______ _______ _______ _____ _____    ______ ____
ROOT
ATOM      1  C   UNL     1       1.137  -6.064   1.756  0.00  0.00    +0.166 C 
ATOM      2  C   UNL     1       2.507  -6.486   1.261  0.00  0.00    +0.041 C 
ATOM      3  C   UNL     1       2.564  -7.413   0.237  0.00  0.00    +0.028 C 
ATOM      4  C   UNL     1       3.903  -7.872  -0.289  0.00  0.00    +0.060 C 
ATOM      5  C   UNL     1       4.925  -6.744  -0.135  0.00  0.00    -0.023 C 
ATOM      6  C   UNL     1       5.017  -6.353   1.343  0.00  0.00    +0.086 C 
ATOM      7  C   UNL     1       3.649  -5.947   1.829  0.00  0.00    +0.164 C 
ATOM      8  O   UNL     1       3.547  -5.136   2.730  0.00  0.00    -0.292 OA
ATOM      9  C   UNL     1       6.294  -7.223  -0.624  0.00  0.00    +0.011 C 
ATOM     10  C   UNL     1       4.480  -5.533  -0.958  0.00  0.00    +0.011 C 
ATOM     11  N   UNL     1       1.456  -7.910  -0.294  0.00  0.00    -0.330 N 
ATOM     12  C   UNL     1       0.223  -7.593   0.077  0.00  0.00    +0.215 C 
ATOM     13  N   UNL     1      -0.007  -6.688   1.081  0.00  0.00    -0.208 N 
ATOM     14  N   UNL     1      -1.393  -6.579   1.221  0.00  0.00    -0.239 N 
ATOM     15  C   UNL     1      -1.938  -7.422   0.292  0.00  0.00    +0.174 C 
ATOM     16  N   UNL     1      -0.970  -8.011  -0.368  0.00  0.00    -0.192 NA
ATOM     17  H   UNL     1       1.556  -8.556  -1.011  0.00  0.00    +0.168 HD
ATOM     18  H   UNL     1      -1.872  -6.018   1.852  0.00  0.00    +0.172 HD
ENDROOT
BRANCH   1  22
ATOM     19  C   UNL     1       0.805  -1.824   1.306  0.00  0.00    +0.124 A 
ATOM     20  C   UNL     1       1.097  -2.373   2.547  0.00  0.00    +0.046 A 
ATOM     21  C   UNL     1       1.203  -3.743   2.689  0.00  0.00    +0.013 A 
ATOM     22  C   UNL     1       1.020  -4.570   1.597  0.00  0.00    +0.021 A 
ATOM     23  C   UNL     1       0.728  -4.026   0.355  0.00  0.00    +0.129 A 
ATOM     24  C   UNL     1       0.615  -2.651   0.210  0.00  0.00    +0.091 A 
BRANCH  23  25
ATOM     25  O   UNL     1       0.548  -4.839  -0.719  0.00  0.00    -0.495 OA
ATOM     26  C   UNL     1       0.251  -4.210  -1.967  0.00  0.00    +0.277 C 
ENDBRANCH  23  25
BRANCH  19  27
ATOM     27  O   UNL     1       0.701  -0.476   1.167  0.00  0.00    -0.492 OA
BRANCH  27  29
ATOM     28  C   UNL     1       0.752   1.796   1.987  0.00  0.00    +0.048 C 
ATOM     29  C   UNL     1       0.909   0.315   2.338  0.00  0.00    +0.225 C 
ENDBRANCH  27  29
ENDBRANCH  19  27
ENDBRANCH   1  22
BRANCH  15  30
ATOM     30  S   UNL     1      -3.662  -7.680   0.029  0.00  0.00    -0.092 S 
ATOM     31  C   UNL     1      -3.723  -8.893  -1.318  0.00  0.00    +0.093 C 
ENDBRANCH  15  30
TORSDOF 5
