REMARK  Name = ZINC34870815
REMARK  6 active torsions:
REMARK  status: ('A' for Active; 'I' for Inactive)
REMARK    1  A    between atoms: C_4  and  C_7
REMARK    2  A    between atoms: C_7  and  N_8
REMARK    3  A    between atoms: C_11  and  N_14
REMARK    4  A    between atoms: C_15  and  C_17
REMARK    5  A    between atoms: C_21  and  C_23
REMARK    6  A    between atoms: C_23  and  N_24
REMARK                            x       y       z     vdW  Elec       q    Type
REMARK                         _______ _______ _______ _____ _____    ______ ____
ROOT
ATOM      1  N   UNL     1       5.822  -3.421   4.166  0.00  0.00    -0.309 N 
ATOM      2  C   UNL     1       6.726  -4.252   4.721  0.00  0.00    +0.244 C 
ATOM      3  O   UNL     1       7.320  -5.055   4.028  0.00  0.00    -0.270 OA
ATOM      4  H   UNL     1       5.349  -2.780   4.719  0.00  0.00    +0.149 HD
ENDROOT
BRANCH   1   8
ATOM      5  N   UNL     1       4.895  -2.088   0.277  0.00  0.00    +0.382 N 
ATOM      6  C   UNL     1       3.904  -2.949   0.933  0.00  0.00    -0.077 C 
ATOM      7  C   UNL     1       4.147  -2.954   2.444  0.00  0.00    +0.004 C 
ATOM      8  C   UNL     1       5.555  -3.485   2.727  0.00  0.00    +0.070 C 
ATOM      9  C   UNL     1       6.575  -2.623   1.978  0.00  0.00    +0.004 C 
ATOM     10  C   UNL     1       6.243  -2.631   0.484  0.00  0.00    -0.077 C 
ATOM     11  H   UNL     1       4.843  -1.160   0.670  0.00  0.00    -0.081 HD
BRANCH   5  12
ATOM     12  C   UNL     1       4.610  -2.025  -1.163  0.00  0.00    -0.043 C 
BRANCH  12  16
ATOM     13  C   UNL     1       0.836  -0.125  -1.789  0.00  0.00    +0.000 A 
ATOM     14  C   UNL     1       1.992   0.631  -1.748  0.00  0.00    +0.000 A 
ATOM     15  C   UNL     1       3.213   0.017  -1.545  0.00  0.00    +0.002 A 
ATOM     16  C   UNL     1       3.279  -1.355  -1.383  0.00  0.00    -0.064 A 
ATOM     17  C   UNL     1       2.122  -2.111  -1.423  0.00  0.00    +0.002 A 
ATOM     18  C   UNL     1       0.901  -1.496  -1.627  0.00  0.00    +0.000 A 
ENDBRANCH  12  16
ENDBRANCH   5  12
ENDBRANCH   1   8
BRANCH   2  19
ATOM     19  C   UNL     1       6.996  -4.187   6.174  0.00  0.00    +0.037 A 
ATOM     20  C   UNL     1       6.312  -3.270   6.973  0.00  0.00    +0.013 A 
ATOM     21  C   UNL     1       6.568  -3.215   8.328  0.00  0.00    +0.001 A 
ATOM     22  C   UNL     1       7.501  -4.066   8.894  0.00  0.00    +0.005 A 
ATOM     23  C   UNL     1       8.182  -4.977   8.107  0.00  0.00    -0.029 A 
ATOM     24  C   UNL     1       7.931  -5.046   6.752  0.00  0.00    +0.018 A 
BRANCH  23  25
ATOM     25  C   UNL     1       9.197  -5.900   8.732  0.00  0.00    +0.149 C 
BRANCH  25  26
ATOM     26  N   UNL     1       8.527  -7.115   9.202  0.00  0.00    -0.261 N 
ATOM     27  C   UNL     1       8.296  -8.185   8.326  0.00  0.00    +0.079 A 
ATOM     28  C   UNL     1       8.958  -8.261   7.112  0.00  0.00    +0.027 A 
ATOM     29  C   UNL     1       8.715  -9.325   6.262  0.00  0.00    +0.002 A 
ATOM     30  C   UNL     1       7.814 -10.310   6.621  0.00  0.00    +0.004 A 
ATOM     31  C   UNL     1       7.150 -10.240   7.832  0.00  0.00    +0.047 A 
ATOM     32  C   UNL     1       7.388  -9.179   8.689  0.00  0.00    +0.143 A 
ATOM     33  O   UNL     1       6.747  -9.095   9.885  0.00  0.00    -0.481 OA
ATOM     34  C   UNL     1       7.471  -8.495  10.962  0.00  0.00    +0.325 C 
ATOM     35  C   UNL     1       8.128  -7.224  10.488  0.00  0.00    +0.258 C 
ATOM     36  O   UNL     1       8.294  -6.301  11.258  0.00  0.00    -0.271 OA
ENDBRANCH  25  26
ENDBRANCH  23  25
ENDBRANCH   2  19
TORSDOF 6
