REMARK  Name = ZINC08643984
REMARK  7 active torsions:
REMARK  status: ('A' for Active; 'I' for Inactive)
REMARK    1  A    between atoms: C_1  and  C_2
REMARK    2  A    between atoms: C_5  and  C_8
REMARK    3  A    between atoms: C_8  and  C_31
REMARK    4  A    between atoms: N_11  and  C_15
REMARK    5  A    between atoms: C_15  and  C_16
REMARK    6  A    between atoms: N_21  and  C_22
REMARK    7  A    between atoms: C_28  and  C_30
REMARK                            x       y       z     vdW  Elec       q    Type
REMARK                         _______ _______ _______ _____ _____    ______ ____
ROOT
ATOM      1  C   UNL     1       0.002  -0.004   0.002  0.00  0.00    +0.135 C 
ATOM      2  C   UNL     1      -1.408  -0.556  -0.058  0.00  0.00    +0.251 C 
ATOM      3  O   UNL     1      -2.292  -0.398   0.757  0.00  0.00    -0.272 OA
ATOM      4  N   UNL     1      -1.476  -1.259  -1.205  0.00  0.00    -0.215 N 
ATOM      5  C   UNL     1      -0.317  -1.228  -1.872  0.00  0.00    +0.310 C 
ATOM      6  O   UNL     1      -0.134  -1.789  -2.935  0.00  0.00    -0.252 OA
ATOM      7  N   UNL     1       0.627  -0.507  -1.234  0.00  0.00    -0.281 N 
ATOM      8  C   UNL     1      -0.019   1.526   0.010  0.00  0.00    +0.047 C 
ATOM      9  H   UNL     1       1.537  -0.349  -1.528  0.00  0.00    +0.152 HD
ENDROOT
BRANCH   1  14
ATOM     10  C   UNL     1       2.780  -2.018   4.652  0.00  0.00    +0.044 C 
ATOM     11  C   UNL     1       2.055  -1.493   3.439  0.00  0.00    -0.050 A 
ATOM     12  C   UNL     1       2.756  -1.222   2.279  0.00  0.00    +0.004 A 
ATOM     13  C   UNL     1       2.092  -0.740   1.167  0.00  0.00    +0.006 A 
ATOM     14  C   UNL     1       0.726  -0.530   1.214  0.00  0.00    -0.015 A 
ATOM     15  C   UNL     1       0.026  -0.796   2.376  0.00  0.00    +0.006 A 
ATOM     16  C   UNL     1       0.690  -1.282   3.487  0.00  0.00    +0.004 A 
ENDBRANCH   1  14
BRANCH   4  17
ATOM     17  C   UNL     1      -2.672  -1.970  -1.666  0.00  0.00    +0.214 C 
BRANCH  17  18
ATOM     18  C   UNL     1      -3.510  -1.047  -2.512  0.00  0.00    +0.238 C 
ATOM     19  O   UNL     1      -3.145   0.091  -2.712  0.00  0.00    -0.274 OA
ATOM     20  N   UNL     1      -4.666  -1.488  -3.048  0.00  0.00    -0.239 N 
ATOM     21  C   UNL     1      -5.415  -0.663  -3.805  0.00  0.00    +0.306 C 
ATOM     22  O   UNL     1      -5.050   0.479  -4.005  0.00  0.00    -0.252 OA
ATOM     23  N   UNL     1      -6.571  -1.104  -4.341  0.00  0.00    -0.296 N 
ATOM     24  H   UNL     1      -4.958  -2.399  -2.888  0.00  0.00    +0.159 HD
ATOM     25  H   UNL     1      -6.863  -2.015  -4.181  0.00  0.00    +0.151 HD
BRANCH  23  26
ATOM     26  C   UNL     1      -7.386  -0.207  -5.164  0.00  0.00    +0.077 C 
ATOM     27  C   UNL     1      -8.294   0.630  -4.261  0.00  0.00    +0.022 C 
ATOM     28  C   UNL     1      -9.209  -0.298  -3.458  0.00  0.00    +0.002 C 
ATOM     29  C   UNL     1     -10.066  -1.125  -4.418  0.00  0.00    +0.000 C 
ATOM     30  C   UNL     1      -9.158  -1.961  -5.321  0.00  0.00    +0.005 C 
ATOM     31  C   UNL     1      -8.243  -1.034  -6.124  0.00  0.00    +0.006 C 
ATOM     32  C   UNL     1      -7.335  -1.871  -7.027  0.00  0.00    +0.009 C 
ENDBRANCH  23  26
ENDBRANCH  17  18
ENDBRANCH   4  17
TORSDOF 4
