REMARK  Name = ZINC13032532
REMARK  11 active torsions:
REMARK  status: ('A' for Active; 'I' for Inactive)
REMARK    1  A    between atoms: C_1  and  C_2
REMARK    2  A    between atoms: C_2  and  C_3
REMARK    3  A    between atoms: C_3  and  C_4
REMARK    4  A    between atoms: C_3  and  C_5
REMARK    5  A    between atoms: C_3  and  N_6
REMARK    6  A    between atoms: C_7  and  C_9
REMARK    7  A    between atoms: C_9  and  C_11
REMARK    8  A    between atoms: C_9  and  N_16
REMARK    9  A    between atoms: N_16  and  C_17
REMARK   10  A    between atoms: C_27  and  C_29
REMARK   11  A    between atoms: C_29  and  N_30
REMARK                            x       y       z     vdW  Elec       q    Type
REMARK                         _______ _______ _______ _____ _____    ______ ____
ROOT
ATOM      1  N   UNL     1       3.666  -0.660  -0.500  0.00  0.00    -0.251 N 
ATOM      2  C   UNL     1       4.778   0.020  -0.156  0.00  0.00    +0.242 C 
ATOM      3  O   UNL     1       5.787  -0.581   0.147  0.00  0.00    -0.273 OA
ENDROOT
BRANCH   1   4
ATOM      4  C   UNL     1       2.498   0.034  -0.841  0.00  0.00    +0.041 A 
ATOM      5  C   UNL     1       1.532  -0.577  -1.629  0.00  0.00    +0.027 A 
ATOM      6  C   UNL     1       0.380   0.107  -1.965  0.00  0.00    +0.051 A 
ATOM      7  C   UNL     1       0.185   1.406  -1.518  0.00  0.00    +0.162 A 
ATOM      8  C   UNL     1       1.149   2.019  -0.727  0.00  0.00    +0.164 A 
ATOM      9  C   UNL     1       2.306   1.333  -0.391  0.00  0.00    +0.073 A 
ATOM     10  O   UNL     1       0.972   3.290  -0.272  0.00  0.00    -0.485 OA
ATOM     11  C   UNL     1      -0.022   4.078  -0.935  0.00  0.00    +0.270 C 
ATOM     12  C   UNL     1      -1.288   3.224  -1.092  0.00  0.00    +0.270 C 
ATOM     13  O   UNL     1      -0.953   2.067  -1.867  0.00  0.00    -0.485 OA
ENDBRANCH   1   4
BRANCH   1  14
ATOM     14  C   UNL     1       3.680  -2.125  -0.518  0.00  0.00    +0.233 C 
BRANCH  14  15
ATOM     15  C   UNL     1       2.650  -2.649   0.449  0.00  0.00    +0.135 A 
ATOM     16  C   UNL     1       2.801  -3.711   1.260  0.00  0.00    +0.047 A 
ATOM     17  C   UNL     1       1.598  -3.843   1.991  0.00  0.00    +0.041 A 
ATOM     18  C   UNL     1       0.781  -2.858   1.577  0.00  0.00    +0.195 A 
ATOM     19  O   UNL     1       1.423  -2.138   0.643  0.00  0.00    -0.465 OA
ENDBRANCH  14  15
BRANCH  14  21
ATOM     20  N   UNL     1       3.314  -3.935  -2.164  0.00  0.00    -0.308 N 
ATOM     21  C   UNL     1       3.358  -2.613  -1.908  0.00  0.00    +0.242 C 
ATOM     22  O   UNL     1       3.140  -1.816  -2.795  0.00  0.00    -0.273 OA
ATOM     23  H   UNL     1       3.489  -4.573  -1.454  0.00  0.00    +0.149 HD
BRANCH  20  24
ATOM     24  C   UNL     1       3.002  -4.410  -3.514  0.00  0.00    +0.029 C 
ATOM     25  C   UNL     1       1.616  -3.907  -3.923  0.00  0.00    +0.031 C 
ATOM     26  C   UNL     1       4.047  -3.878  -4.496  0.00  0.00    +0.031 C 
BRANCH  24  28
ATOM     27  C   UNL     1       2.689  -6.435  -4.944  0.00  0.00    +0.006 C 
ATOM     28  C   UNL     1       3.016  -5.939  -3.533  0.00  0.00    +0.022 C 
ENDBRANCH  24  28
ENDBRANCH  20  24
ENDBRANCH  14  21
ENDBRANCH   1  14
BRANCH   2  29
ATOM     29  C   UNL     1       4.767   1.527  -0.147  0.00  0.00    +0.242 C 
BRANCH  29  30
ATOM     30  N   UNL     1       6.121   2.026  -0.400  0.00  0.00    -0.235 N 
ATOM     31  C   UNL     1       6.677   2.311  -1.624  0.00  0.00    +0.090 A 
ATOM     32  C   UNL     1       6.217   2.241  -2.935  0.00  0.00    +0.029 A 
ATOM     33  C   UNL     1       7.038   2.607  -3.964  0.00  0.00    +0.002 A 
ATOM     34  C   UNL     1       8.331   3.049  -3.713  0.00  0.00    +0.002 A 
ATOM     35  C   UNL     1       8.807   3.127  -2.437  0.00  0.00    +0.032 A 
ATOM     36  C   UNL     1       7.984   2.758  -1.364  0.00  0.00    +0.113 A 
ATOM     37  N   UNL     1       8.169   2.728  -0.029  0.00  0.00    -0.129 NA
ATOM     38  N   UNL     1       7.103   2.313   0.560  0.00  0.00    -0.064 NA
ENDBRANCH  29  30
ENDBRANCH   2  29
TORSDOF 8
