REMARK  Name = ZINC39486350
REMARK  6 active torsions:
REMARK  status: ('A' for Active; 'I' for Inactive)
REMARK    1  A    between atoms: C_4  and  O_7
REMARK    2  A    between atoms: O_7  and  S_8
REMARK    3  A    between atoms: S_8  and  C_11
REMARK    4  A    between atoms: C_11  and  C_13
REMARK    5  A    between atoms: C_15  and  C_31
REMARK    6  A    between atoms: C_25  and  O_27
REMARK                            x       y       z     vdW  Elec       q    Type
REMARK                         _______ _______ _______ _____ _____    ______ ____
ROOT
ATOM      1  C   UNL     1       3.409  -3.675   1.492  0.00  0.00    +0.130 C 
ATOM      2  C   UNL     1       2.468  -4.632   2.219  0.00  0.00    +0.065 C 
ATOM      3  C   UNL     1       2.557  -6.022   1.648  0.00  0.00    -0.025 A 
ATOM      4  C   UNL     1       2.170  -7.093   2.429  0.00  0.00    +0.054 A 
ATOM      5  C   UNL     1       2.237  -8.387   1.933  0.00  0.00    +0.167 A 
ATOM      6  C   UNL     1       2.696  -8.618   0.634  0.00  0.00    +0.167 A 
ATOM      7  C   UNL     1       3.084  -7.555  -0.155  0.00  0.00    +0.061 A 
ATOM      8  C   UNL     1       3.019  -6.251   0.349  0.00  0.00    +0.028 A 
ATOM      9  C   UNL     1       3.445  -5.121  -0.494  0.00  0.00    +0.193 C 
ATOM     10  O   UNL     1       4.037  -5.305  -1.537  0.00  0.00    -0.289 OA
ATOM     11  C   UNL     1       3.120  -3.722  -0.014  0.00  0.00    +0.198 C 
ATOM     12  O   UNL     1       2.664  -9.961   0.393  0.00  0.00    -0.453 OA
ATOM     13  C   UNL     1       2.570 -10.581   1.689  0.00  0.00    +0.466 C 
ATOM     14  O   UNL     1       1.919  -9.586   2.499  0.00  0.00    -0.453 OA
ENDROOT
BRANCH   2  15
ATOM     15  C   UNL     1       2.837  -4.675   3.679  0.00  0.00    -0.038 A 
ATOM     16  C   UNL     1       4.103  -5.081   4.060  0.00  0.00    +0.004 A 
ATOM     17  C   UNL     1       4.443  -5.120   5.399  0.00  0.00    +0.002 A 
ATOM     18  C   UNL     1       3.517  -4.754   6.358  0.00  0.00    +0.020 A 
ATOM     19  C   UNL     1       2.251  -4.347   5.978  0.00  0.00    +0.041 A 
ATOM     20  C   UNL     1       1.913  -4.302   4.636  0.00  0.00    +0.024 A 
ATOM     21 CL   UNL     1       1.088  -3.887   7.182  0.00  0.00    -0.084 Cl
ENDBRANCH   2  15
BRANCH   1  22
ATOM     22  C   UNL     1       3.192  -2.273   2.002  0.00  0.00    +0.313 C 
ATOM     23  O   UNL     1       2.369  -2.064   2.860  0.00  0.00    -0.268 OA
BRANCH  22  24
ATOM     24  S   UNL     1       4.140  -0.941   1.346  0.00  0.00    +0.185 S 
ATOM     25  O   UNL     1       5.458  -1.436   1.154  0.00  0.00    -0.128 OA
ATOM     26  O   UNL     1       3.863   0.192   2.158  0.00  0.00    -0.128 OA
BRANCH  24  27
ATOM     27  O   UNL     1       3.586  -0.632  -0.037  0.00  0.00    -0.340 OA
BRANCH  27  31
ATOM     28  C   UNL     1      -0.017   1.378   0.010  0.00  0.00    +0.000 A 
ATOM     29  C   UNL     1       1.170   2.088   0.002  0.00  0.00    +0.004 A 
ATOM     30  C   UNL     1       2.377   1.417  -0.013  0.00  0.00    +0.048 A 
ATOM     31  C   UNL     1       2.399   0.030  -0.021  0.00  0.00    +0.157 A 
ATOM     32  C   UNL     1       1.207  -0.680  -0.013  0.00  0.00    +0.048 A 
ATOM     33  C   UNL     1       0.002  -0.004   0.002  0.00  0.00    +0.004 A 
ENDBRANCH  27  31
ENDBRANCH  24  27
ENDBRANCH  22  24
ENDBRANCH   1  22
BRANCH  11  34
ATOM     34  O   UNL     1       3.940  -2.771  -0.696  0.00  0.00    -0.383 OA
ATOM     35  H   UNL     1       3.805  -2.751  -1.653  0.00  0.00    +0.210 HD
ENDBRANCH  11  34
TORSDOF 6
