REMARK  Name = ZINC13321452
REMARK  9 active torsions:
REMARK  status: ('A' for Active; 'I' for Inactive)
REMARK    1  A    between atoms: C_1  and  C_2
REMARK    2  A    between atoms: C_5  and  C_8
REMARK    3  A    between atoms: C_10  and  C_19
REMARK    4  A    between atoms: C_13  and  C_18
REMARK    5  A    between atoms: N_21  and  N_22
REMARK    6  A    between atoms: C_23  and  C_24
REMARK    7  A    between atoms: C_23  and  C_25
REMARK    8  A    between atoms: C_27  and  O_32
REMARK    9  A    between atoms: C_30  and  O_31
REMARK                            x       y       z     vdW  Elec       q    Type
REMARK                         _______ _______ _______ _____ _____    ______ ____
ROOT
ATOM      1  C   UNL     1       0.044  -4.255  -0.021  0.00  0.00    +0.072 A 
ATOM      2  C   UNL     1       0.053  -4.939   1.204  0.00  0.00    +0.042 A 
ATOM      3  C   UNL     1       0.086  -6.327   1.209  0.00  0.00    +0.050 A 
ATOM      4  C   UNL     1       0.109  -7.003  -0.088  0.00  0.00    +0.013 A 
ATOM      5  C   UNL     1       0.141  -8.398  -0.185  0.00  0.00    +0.014 A 
ATOM      6  C   UNL     1       0.162  -8.988  -1.414  0.00  0.00    -0.050 A 
ATOM      7  C   UNL     1       0.151  -8.218  -2.575  0.00  0.00    +0.005 A 
ATOM      8  C   UNL     1       0.119  -6.859  -2.517  0.00  0.00    +0.028 A 
ATOM      9  C   UNL     1       0.097  -6.215  -1.266  0.00  0.00    +0.072 A 
ATOM     10  N   UNL     1       0.060  -4.884  -1.178  0.00  0.00    -0.247 NA
ATOM     11  C   UNL     1       0.198 -10.491  -1.518  0.00  0.00    +0.044 C 
ENDROOT
BRANCH   1  16
ATOM     12  C   UNL     1      -0.092   1.501   0.010  0.00  0.00    +0.044 C 
ATOM     13  C   UNL     1      -0.056  -0.005   0.002  0.00  0.00    -0.050 A 
ATOM     14  C   UNL     1      -0.038  -0.687  -1.201  0.00  0.00    +0.004 A 
ATOM     15  C   UNL     1      -0.005  -2.067  -1.215  0.00  0.00    +0.010 A 
ATOM     16  C   UNL     1       0.010  -2.773  -0.013  0.00  0.00    +0.000 A 
ATOM     17  C   UNL     1      -0.008  -2.080   1.196  0.00  0.00    +0.010 A 
ATOM     18  C   UNL     1      -0.036  -0.700   1.198  0.00  0.00    +0.004 A 
ENDBRANCH   1  16
BRANCH   3  19
ATOM     19  C   UNL     1       0.096  -7.090   2.475  0.00  0.00    +0.264 C 
ATOM     20  O   UNL     1       0.020  -8.304   2.454  0.00  0.00    -0.268 OA
ATOM     21  N   UNL     1       0.191  -6.442   3.653  0.00  0.00    -0.203 N 
ATOM     22  H   UNL     1       0.252  -5.474   3.670  0.00  0.00    +0.178 HD
BRANCH  21  23
ATOM     23  N   UNL     1       0.201  -7.165   4.852  0.00  0.00    -0.184 NA
ATOM     24  C   UNL     1       0.292  -6.541   5.987  0.00  0.00    +0.067 C 
ATOM     25  C   UNL     1       0.387  -5.037   6.013  0.00  0.00    +0.068 C 
BRANCH  24  26
ATOM     26  C   UNL     1       0.303  -7.302   7.248  0.00  0.00    +0.042 A 
ATOM     27  C   UNL     1       0.395  -6.633   8.471  0.00  0.00    +0.058 A 
ATOM     28  C   UNL     1       0.404  -7.354   9.651  0.00  0.00    +0.118 A 
ATOM     29  C   UNL     1       0.323  -8.740   9.623  0.00  0.00    +0.049 A 
ATOM     30  C   UNL     1       0.232  -9.409   8.417  0.00  0.00    +0.049 A 
ATOM     31  C   UNL     1       0.215  -8.700   7.228  0.00  0.00    +0.126 A 
BRANCH  31  32
ATOM     32  O   UNL     1       0.120  -9.359   6.043  0.00  0.00    -0.506 OA
ATOM     33  H   UNL     1       0.974  -9.605   5.660  0.00  0.00    +0.292 HD
ENDBRANCH  31  32
BRANCH  28  34
ATOM     34  O   UNL     1       0.493  -6.704  10.842  0.00  0.00    -0.507 OA
ATOM     35  H   UNL     1      -0.362  -6.465  11.225  0.00  0.00    +0.292 HD
ENDBRANCH  28  34
ENDBRANCH  24  26
ENDBRANCH  21  23
ENDBRANCH   3  19
TORSDOF 6
