REMARK  Name = ZINC09614644
REMARK  5 active torsions:
REMARK  status: ('A' for Active; 'I' for Inactive)
REMARK    1  A    between atoms: C_1  and  C_2
REMARK    2  A    between atoms: C_5  and  C_8
REMARK    3  A    between atoms: C_21  and  C_22
REMARK    4  A    between atoms: C_21  and  C_28
REMARK    5  A    between atoms: C_21  and  N_61
REMARK                            x       y       z     vdW  Elec       q    Type
REMARK                         _______ _______ _______ _____ _____    ______ ____
ROOT
ATOM      1  C   UNL     1      -2.878   0.870  -0.728  0.00  0.00    +0.080 A 
ATOM      2  C   UNL     1      -4.122   1.446  -0.936  0.00  0.00    +0.098 A 
ATOM      3  C   UNL     1      -5.249   0.612  -0.994  0.00  0.00    +0.253 A 
ATOM      4  O   UNL     1      -6.361   1.082  -1.175  0.00  0.00    -0.268 OA
ATOM      5  N   UNL     1      -5.082  -0.719  -0.847  0.00  0.00    -0.295 N 
ATOM      6  H   UNL     1      -5.850  -1.310  -0.884  0.00  0.00    +0.172 HD
ATOM      7  C   UNL     1      -3.839  -1.233  -0.645  0.00  0.00    +0.199 A 
ATOM      8  N   UNL     1      -2.776  -0.459  -0.594  0.00  0.00    -0.216 NA
ATOM      9  N   UNL     1      -3.689  -2.587  -0.499  0.00  0.00    -0.305 N 
ATOM     10  C   UNL     1      -4.610  -3.111   0.520  0.00  0.00    +0.089 C 
ATOM     11  C   UNL     1      -4.468  -4.633   0.597  0.00  0.00    -0.058 C 
ATOM     12  C   UNL     1      -2.157  -4.453  -0.098  0.00  0.00    -0.058 C 
ATOM     13  C   UNL     1      -2.298  -2.931  -0.175  0.00  0.00    +0.089 C 
ATOM     14  N   UNL     1      -3.071  -4.965   0.945  0.00  0.00    +0.389 N 
ATOM     15  H   UNL     1      -2.836  -4.522   1.841  0.00  0.00    -0.080 HD
ENDROOT
BRANCH   1  20
ATOM     16  C   UNL     1       1.832   4.172  -0.479  0.00  0.00    +0.044 C 
ATOM     17  C   UNL     1       0.599   3.308  -0.542  0.00  0.00    -0.050 A 
ATOM     18  C   UNL     1       0.710   1.937  -0.397  0.00  0.00    +0.004 A 
ATOM     19  C   UNL     1      -0.415   1.141  -0.452  0.00  0.00    +0.010 A 
ATOM     20  C   UNL     1      -1.666   1.720  -0.661  0.00  0.00    +0.001 A 
ATOM     21  C   UNL     1      -1.773   3.104  -0.801  0.00  0.00    +0.010 A 
ATOM     22  C   UNL     1      -0.640   3.890  -0.744  0.00  0.00    +0.004 A 
ENDBRANCH   1  20
BRANCH  14  23
ATOM     23  C   UNL     1      -2.917  -6.429   1.079  0.00  0.00    -0.007 C 
BRANCH  23  24
ATOM     24  C   UNL     1      -1.486  -6.741   1.435  0.00  0.00    -0.057 A 
ATOM     25  C   UNL     1      -0.826  -5.975   2.378  0.00  0.00    +0.002 A 
ATOM     26  C   UNL     1       0.484  -6.264   2.709  0.00  0.00    +0.000 A 
ATOM     27  C   UNL     1       1.138  -7.313   2.090  0.00  0.00    +0.000 A 
ATOM     28  C   UNL     1       0.480  -8.075   1.143  0.00  0.00    +0.000 A 
ATOM     29  C   UNL     1      -0.832  -7.789   0.816  0.00  0.00    +0.002 A 
ENDBRANCH  23  24
BRANCH  23  30
ATOM     30  C   UNL     1      -3.826  -6.919   2.176  0.00  0.00    -0.057 A 
ATOM     31  C   UNL     1      -3.916  -6.218   3.364  0.00  0.00    +0.002 A 
ATOM     32  C   UNL     1      -4.754  -6.664   4.368  0.00  0.00    +0.000 A 
ATOM     33  C   UNL     1      -5.495  -7.817   4.189  0.00  0.00    +0.000 A 
ATOM     34  C   UNL     1      -5.401  -8.521   3.003  0.00  0.00    +0.000 A 
ATOM     35  C   UNL     1      -4.567  -8.072   1.996  0.00  0.00    +0.002 A 
ENDBRANCH  23  30
ENDBRANCH  14  23
TORSDOF 4
