REMARK  Name = ZINC28296961
REMARK  7 active torsions:
REMARK  status: ('A' for Active; 'I' for Inactive)
REMARK    1  A    between atoms: C_3  and  C_11
REMARK    2  A    between atoms: C_4  and  N_8
REMARK    3  A    between atoms: C_14  and  C_16
REMARK    4  A    between atoms: N_20  and  C_24
REMARK    5  A    between atoms: C_24  and  C_26
REMARK    6  A    between atoms: C_24  and  C_30
REMARK    7  A    between atoms: C_26  and  C_27
REMARK                            x       y       z     vdW  Elec       q    Type
REMARK                         _______ _______ _______ _____ _____    ______ ____
ROOT
ATOM      1  C   UNL     1       3.368  -2.478   2.789  0.00  0.00    +0.066 C 
ATOM      2  C   UNL     1       2.239  -1.688   2.517  0.00  0.00    +0.080 C 
ATOM      3  C   UNL     1       1.694  -1.241   1.201  0.00  0.00    +0.259 C 
ATOM      4  O   UNL     1       2.222  -1.545   0.150  0.00  0.00    -0.269 OA
ATOM      5  N   UNL     1       0.604  -0.491   1.246  0.00  0.00    -0.241 N 
ATOM      6  C   UNL     1       0.043  -0.178   2.430  0.00  0.00    +0.121 C 
ATOM      7  S   UNL     1      -1.356   0.763   2.723  0.00  0.00    -0.027 S 
ATOM      8  S   UNL     1       1.104  -0.977   3.621  0.00  0.00    -0.061 S 
ENDROOT
BRANCH   1  12
ATOM      9  C   UNL     1       4.910  -3.346  -0.278  0.00  0.00    +0.138 A 
ATOM     10  C   UNL     1       5.794  -4.005   0.603  0.00  0.00    +0.050 A 
ATOM     11  C   UNL     1       5.356  -3.776   1.871  0.00  0.00    +0.050 A 
ATOM     12  C   UNL     1       4.151  -2.950   1.747  0.00  0.00    +0.130 A 
ATOM     13  O   UNL     1       3.948  -2.731   0.429  0.00  0.00    -0.455 OA
BRANCH   9  16
ATOM     14  C   UNL     1       6.344  -2.996  -3.709  0.00  0.00    +0.021 A 
ATOM     15  C   UNL     1       6.246  -2.999  -2.347  0.00  0.00    +0.015 A 
ATOM     16  C   UNL     1       5.025  -3.335  -1.735  0.00  0.00    +0.048 A 
ATOM     17  C   UNL     1       3.912  -3.654  -2.535  0.00  0.00    +0.138 A 
ATOM     18  C   UNL     1       4.029  -3.640  -3.896  0.00  0.00    +0.053 A 
ATOM     19  C   UNL     1       5.241  -3.312  -4.490  0.00  0.00    +0.043 A 
ATOM     20 CL   UNL     1       5.376  -3.299  -6.221  0.00  0.00    -0.083 Cl
BRANCH  17  21
ATOM     21  N   UNL     1       2.619  -4.003  -1.904  0.00  0.00    +0.057 N 
ATOM     22  O   UNL     1       1.579  -4.301  -2.655  0.00  0.00    -0.126 OA
ATOM     23  O   UNL     1       2.509  -4.015  -0.592  0.00  0.00    -0.126 OA
ENDBRANCH  17  21
ENDBRANCH   9  16
ENDBRANCH   1  12
BRANCH   5  24
ATOM     24  C   UNL     1       0.002  -0.004   0.002  0.00  0.00    +0.206 C 
BRANCH  24  25
ATOM     25  C   UNL     1      -1.407  -0.525  -0.111  0.00  0.00    +0.377 C 
ATOM     26  O   UNL     1      -1.862  -1.231   0.758  0.00  0.00    -0.244 OA
ATOM     27  O   UNL     1      -2.158  -0.205  -1.177  0.00  0.00    -0.244 OA
ENDBRANCH  24  25
BRANCH  24  28
ATOM     28  C   UNL     1      -0.019   1.526   0.010  0.00  0.00    +0.159 C 
BRANCH  28  29
ATOM     29  C   UNL     1       1.395   2.047  -0.000  0.00  0.00    +0.358 C 
ATOM     30  O   UNL     1       2.324   1.275  -0.013  0.00  0.00    -0.246 OA
ATOM     31  O   UNL     1       1.623   3.370   0.005  0.00  0.00    -0.246 OA
ENDBRANCH  28  29
ENDBRANCH  24  28
ENDBRANCH   5  24
TORSDOF 7
