REMARK  Name = ZINC04067003
REMARK  11 active torsions:
REMARK  status: ('A' for Active; 'I' for Inactive)
REMARK    1  A    between atoms: C_1  and  C_2
REMARK    2  A    between atoms: C_2  and  O_3
REMARK    3  A    between atoms: O_3  and  C_4
REMARK    4  A    between atoms: C_6  and  C_12
REMARK    5  A    between atoms: C_9  and  O_10
REMARK    6  A    between atoms: C_17  and  C_21
REMARK    7  A    between atoms: C_17  and  C_22
REMARK    8  A    between atoms: C_24  and  C_30
REMARK    9  A    between atoms: C_25  and  C_26
REMARK   10  A    between atoms: C_26  and  O_28
REMARK   11  A    between atoms: O_28  and  C_29
REMARK                            x       y       z     vdW  Elec       q    Type
REMARK                         _______ _______ _______ _____ _____    ______ ____
ROOT
ATOM      1  C   UNL     1       2.486   1.128   0.014  0.00  0.00    +0.092 C 
ATOM      2  C   UNL     1       1.201   1.918   0.001  0.00  0.00    +0.024 C 
ATOM      3  C   UNL     1       1.221   3.268  -0.014  0.00  0.00    +0.016 C 
ATOM      4  C   UNL     1      -0.060   4.064  -0.024  0.00  0.00    +0.058 C 
ATOM      5  C   UNL     1      -1.153   3.289   0.713  0.00  0.00    -0.023 C 
ATOM      6  C   UNL     1      -1.335   1.932   0.019  0.00  0.00    +0.086 C 
ATOM      7  C   UNL     1      -0.014   1.211   0.009  0.00  0.00    +0.162 C 
ATOM      8  O   UNL     1       0.002  -0.004   0.002  0.00  0.00    -0.292 OA
ATOM      9  C   UNL     1      -0.738   3.074   2.170  0.00  0.00    +0.011 C 
ATOM     10  C   UNL     1      -2.465   4.075   0.663  0.00  0.00    +0.011 C 
ATOM     11  N   UNL     1       2.412   3.944  -0.022  0.00  0.00    -0.321 N 
ATOM     12  C   UNL     1       3.564   3.321  -0.411  0.00  0.00    +0.016 C 
ATOM     13  C   UNL     1       3.645   1.979  -0.414  0.00  0.00    +0.065 C 
ATOM     14  C   UNL     1       4.753   4.143  -0.838  0.00  0.00    +0.061 C 
ATOM     15  H   UNL     1       2.446   5.000   0.285  0.00  0.00    +0.152 HD
ENDROOT
BRANCH   1  18
ATOM     16  C   UNL     1       3.058  -1.221   2.917  0.00  0.00    +0.163 A 
ATOM     17  C   UNL     1       2.822  -0.746   1.636  0.00  0.00    +0.054 A 
ATOM     18  C   UNL     1       2.736   0.614   1.408  0.00  0.00    -0.030 A 
ATOM     19  C   UNL     1       2.875   1.505   2.457  0.00  0.00    +0.023 A 
ATOM     20  C   UNL     1       3.105   1.038   3.738  0.00  0.00    +0.063 A 
ATOM     21  C   UNL     1       3.197  -0.326   3.973  0.00  0.00    +0.173 A 
ATOM     22 BR   UNL     1       3.293   2.259   5.170  0.00  0.00    -0.046 Br
BRANCH  21  23
ATOM     23  O   UNL     1       3.422  -0.787   5.232  0.00  0.00    -0.503 OA
ATOM     24  H   UNL     1       3.533  -0.078   6.066  0.00  0.00    +0.292 HD
ENDBRANCH  21  23
BRANCH  16  25
ATOM     25  O   UNL     1       3.147  -2.559   3.142  0.00  0.00    -0.489 OA
BRANCH  25  27
ATOM     26  C   UNL     1       3.125  -4.877   2.457  0.00  0.00    +0.048 C 
ATOM     27  C   UNL     1       2.994  -3.419   2.011  0.00  0.00    +0.226 C 
ENDBRANCH  25  27
ENDBRANCH  16  25
ENDBRANCH   1  18
BRANCH  13  28
ATOM     28  C   UNL     1       4.846   1.357  -0.828  0.00  0.00    +0.337 C 
ATOM     29  O   UNL     1       5.794   2.036  -1.177  0.00  0.00    -0.245 OA
BRANCH  28  30
ATOM     30  O   UNL     1       4.941   0.011  -0.836  0.00  0.00    -0.465 OA
ATOM     31  C   UNL     1       6.184  -0.549  -1.266  0.00  0.00    +0.280 C 
ENDBRANCH  28  30
ENDBRANCH  13  28
TORSDOF 6
