REMARK  Name = ZINC64002484
REMARK  8 active torsions:
REMARK  status: ('A' for Active; 'I' for Inactive)
REMARK    1  A    between atoms: C_1  and  C_2
REMARK    2  A    between atoms: C_7  and  C_8
REMARK    3  A    between atoms: C_23  and  C_25
REMARK    4  A    between atoms: C_28  and  C_30
REMARK    5  A    between atoms: C_31  and  C_32
REMARK    6  A    between atoms: C_32  and  C_33
REMARK    7  A    between atoms: C_32  and  C_34
REMARK    8  A    between atoms: C_32  and  O_35
REMARK                            x       y       z     vdW  Elec       q    Type
REMARK                         _______ _______ _______ _____ _____    ______ ____
ROOT
ATOM      1  C   UNL     1       0.016  -0.178   2.611  0.00  0.00    +0.133 C 
ATOM      2  C   UNL     1      -1.420  -0.085   3.137  0.00  0.00    +0.131 C 
ATOM      3  C   UNL     1      -1.319   0.290   4.610  0.00  0.00    -0.035 C 
ATOM      4  C   UNL     1      -2.034   1.399   4.764  0.00  0.00    -0.001 A 
ATOM      5  C   UNL     1      -2.366   2.191   5.959  0.00  0.00    +0.010 A 
ATOM      6  C   UNL     1      -3.126   3.299   5.751  0.00  0.00    +0.001 A 
ATOM      7  C   UNL     1      -3.582   3.693   4.489  0.00  0.00    +0.002 A 
ATOM      8  C   UNL     1      -3.328   3.022   3.338  0.00  0.00    +0.026 A 
ATOM      9  C   UNL     1      -2.542   1.837   3.429  0.00  0.00    +0.043 A 
ATOM     10  N   UNL     1      -2.170   0.990   2.485  0.00  0.00    -0.375 N 
ATOM     11  C   UNL     1      -0.471  -0.485   5.588  0.00  0.00    +0.052 C 
ATOM     12  C   UNL     1       0.926  -0.617   4.955  0.00  0.00    +0.113 C 
ATOM     13  N   UNL     1       0.789  -1.009   3.548  0.00  0.00    -0.285 N 
ATOM     14  C   UNL     1       1.374  -2.141   3.110  0.00  0.00    +0.283 C 
ATOM     15  O   UNL     1       1.356  -2.417   1.925  0.00  0.00    -0.267 OA
ATOM     16  H   UNL     1      -2.350   1.060   1.534  0.00  0.00    +0.160 HD
ENDROOT
BRANCH   1  23
ATOM     17  C   UNL     1       2.191   0.337   0.780  0.00  0.00    +0.044 C 
ATOM     18  C   UNL     1       1.059  -0.568   0.369  0.00  0.00    -0.045 A 
ATOM     19  C   UNL     1       1.064  -1.157  -0.882  0.00  0.00    +0.004 A 
ATOM     20  C   UNL     1       0.025  -1.987  -1.259  0.00  0.00    +0.000 A 
ATOM     21  C   UNL     1      -1.018  -2.229  -0.385  0.00  0.00    +0.000 A 
ATOM     22  C   UNL     1      -1.023  -1.642   0.866  0.00  0.00    +0.006 A 
ATOM     23  C   UNL     1       0.018  -0.815   1.244  0.00  0.00    -0.022 A 
ENDBRANCH   1  23
BRANCH  14  24
ATOM     24  C   UNL     1       2.033  -3.040   4.061  0.00  0.00    +0.191 A 
ATOM     25  C   UNL     1       2.551  -4.283   3.769  0.00  0.00    +0.056 A 
ATOM     26  C   UNL     1       3.082  -4.790   4.958  0.00  0.00    +0.059 A 
ATOM     27  C   UNL     1       2.868  -3.838   5.932  0.00  0.00    +0.179 A 
ATOM     28  O   UNL     1       2.240  -2.790   5.371  0.00  0.00    -0.442 OA
BRANCH  27  29
ATOM     29  C   UNL     1       3.253  -3.945   7.307  0.00  0.00    -0.026 C 
ATOM     30  C   UNL     1       3.570  -4.033   8.434  0.00  0.00    -0.060 C 
BRANCH  30  31
ATOM     31  C   UNL     1       3.966  -4.143   9.847  0.00  0.00    +0.121 C 
ATOM     32  C   UNL     1       3.547  -2.876  10.595  0.00  0.00    +0.055 C 
ATOM     33  C   UNL     1       3.279  -5.357  10.476  0.00  0.00    +0.055 C 
BRANCH  31  34
ATOM     34  O   UNL     1       5.383  -4.300   9.933  0.00  0.00    -0.377 OA
ATOM     35  H   UNL     1       5.885  -3.566   9.553  0.00  0.00    +0.211 HD
ENDBRANCH  31  34
ENDBRANCH  30  31
ENDBRANCH  27  29
ENDBRANCH  14  24
TORSDOF 5
