REMARK  Name = ZINC16530963
REMARK  10 active torsions:
REMARK  status: ('A' for Active; 'I' for Inactive)
REMARK    1  A    between atoms: C_1  and  C_2
REMARK    2  A    between atoms: C_7  and  C_8
REMARK    3  A    between atoms: C_18  and  C_20
REMARK    4  A    between atoms: C_20  and  N_21
REMARK    5  A    between atoms: N_21  and  C_22
REMARK    6  A    between atoms: N_21  and  S_26
REMARK    7  A    between atoms: C_22  and  C_23
REMARK    8  A    between atoms: C_23  and  O_24
REMARK    9  A    between atoms: O_24  and  C_25
REMARK   10  A    between atoms: S_26  and  C_29
REMARK                            x       y       z     vdW  Elec       q    Type
REMARK                         _______ _______ _______ _____ _____    ______ ____
ROOT
ATOM      1  C   UNL     1      -0.036   0.174  -0.045  0.00  0.00    +0.138 C 
ATOM      2  C   UNL     1       0.056   1.651  -0.425  0.00  0.00    -0.012 A 
ATOM      3  C   UNL     1      -1.035   2.394  -0.874  0.00  0.00    +0.013 A 
ATOM      4  C   UNL     1      -0.880   3.699  -1.192  0.00  0.00    +0.046 A 
ATOM      5  S   UNL     1       0.856   3.956  -0.858  0.00  0.00    -0.101 S 
ATOM      6  C   UNL     1       1.244   2.308  -0.328  0.00  0.00    -0.003 A 
ATOM      7  C   UNL     1       2.561   1.762   0.118  0.00  0.00    +0.062 C 
ATOM      8  C   UNL     1       2.321   0.431   0.847  0.00  0.00    +0.114 C 
ATOM      9  N   UNL     1       1.333  -0.343   0.082  0.00  0.00    -0.289 N 
ATOM     10  C   UNL     1       1.679  -1.511  -0.495  0.00  0.00    +0.232 C 
ATOM     11  O   UNL     1       0.900  -2.075  -1.235  0.00  0.00    -0.274 OA
ENDROOT
BRANCH   1  18
ATOM     12  C   UNL     1      -1.768  -2.026   0.667  0.00  0.00    +0.044 C 
ATOM     13  C   UNL     1      -1.600  -1.637  -0.779  0.00  0.00    -0.045 A 
ATOM     14  C   UNL     1      -2.274  -2.333  -1.766  0.00  0.00    +0.004 A 
ATOM     15  C   UNL     1      -2.119  -1.976  -3.092  0.00  0.00    +0.000 A 
ATOM     16  C   UNL     1      -1.291  -0.922  -3.432  0.00  0.00    +0.000 A 
ATOM     17  C   UNL     1      -0.621  -0.224  -2.446  0.00  0.00    +0.006 A 
ATOM     18  C   UNL     1      -0.771  -0.584  -1.120  0.00  0.00    -0.020 A 
ENDBRANCH   1  18
BRANCH  10  19
ATOM     19  C   UNL     1       3.031  -2.116  -0.222  0.00  0.00    +0.205 C 
BRANCH  19  20
ATOM     20  N   UNL     1       3.163  -3.374  -0.961  0.00  0.00    -0.166 NA
BRANCH  20  21
ATOM     21  S   UNL     1       3.895  -3.389  -2.446  0.00  0.00    +0.061 S 
ATOM     22  O   UNL     1       3.398  -4.530  -3.132  0.00  0.00    -0.153 OA
ATOM     23  O   UNL     1       3.777  -2.074  -2.970  0.00  0.00    -0.153 OA
BRANCH  21  24
ATOM     24  C   UNL     1       5.613  -3.672  -2.176  0.00  0.00    +0.106 A 
ATOM     25  C   UNL     1       6.470  -2.601  -1.999  0.00  0.00    +0.030 A 
ATOM     26  C   UNL     1       7.817  -2.822  -1.782  0.00  0.00    +0.022 A 
ATOM     27  C   UNL     1       8.310  -4.115  -1.754  0.00  0.00    +0.041 A 
ATOM     28  C   UNL     1       7.453  -5.186  -1.937  0.00  0.00    +0.022 A 
ATOM     29  C   UNL     1       6.105  -4.963  -2.148  0.00  0.00    +0.030 A 
ATOM     30 CL   UNL     1      10.003  -4.393  -1.489  0.00  0.00    -0.084 Cl
ENDBRANCH  21  24
ENDBRANCH  20  21
BRANCH  20  31
ATOM     31  C   UNL     1       2.646  -4.618  -0.386  0.00  0.00    +0.138 C 
BRANCH  31  32
ATOM     32  C   UNL     1       1.157  -4.752  -0.713  0.00  0.00    +0.176 C 
BRANCH  32  33
ATOM     33  O   UNL     1       0.990  -4.889  -2.126  0.00  0.00    -0.382 OA
ATOM     34  C   UNL     1      -0.371  -5.022  -2.540  0.00  0.00    +0.194 C 
ENDBRANCH  32  33
ENDBRANCH  31  32
ENDBRANCH  20  31
ENDBRANCH  19  20
ENDBRANCH  10  19
TORSDOF 8
