REMARK  Name = ZINC12745040
REMARK  5 active torsions:
REMARK  status: ('A' for Active; 'I' for Inactive)
REMARK    1  A    between atoms: C_4  and  C_7
REMARK    2  A    between atoms: C_7  and  C_9
REMARK    3  A    between atoms: C_14  and  N_15
REMARK    4  A    between atoms: C_14  and  N_49
REMARK    5  A    between atoms: C_20  and  C_22
REMARK                            x       y       z     vdW  Elec       q    Type
REMARK                         _______ _______ _______ _____ _____    ______ ____
ROOT
ATOM      1  C   UNL     1      -1.210   2.248   0.004  0.00  0.00    +0.072 C 
ENDROOT
BRANCH   1   7
ATOM      2  C   UNL     1      -3.413   2.661   3.646  0.00  0.00    +0.057 C 
ATOM      3  C   UNL     1      -2.950   3.915   2.898  0.00  0.00    -0.007 C 
ATOM      4  C   UNL     1      -2.657   3.554   1.440  0.00  0.00    -0.076 C 
ATOM      5  C   UNL     1      -2.056   1.290   2.061  0.00  0.00    -0.076 C 
ATOM      6  C   UNL     1      -2.331   1.583   3.537  0.00  0.00    -0.007 C 
ATOM      7  N   UNL     1      -1.591   2.530   1.404  0.00  0.00    +0.393 N 
ATOM      8  H   UNL     1      -0.770   2.887   1.907  0.00  0.00    -0.079 HD
BRANCH   2   9
ATOM      9  C   UNL     1      -3.647   2.998   5.096  0.00  0.00    +0.166 C 
ATOM     10  O   UNL     1      -3.066   3.934   5.602  0.00  0.00    -0.292 OA
BRANCH   9  14
ATOM     11  C   UNL     1      -6.338   0.671   7.405  0.00  0.00    +0.000 A 
ATOM     12  C   UNL     1      -5.677   1.738   7.987  0.00  0.00    +0.001 A 
ATOM     13  C   UNL     1      -4.800   2.500   7.243  0.00  0.00    +0.011 A 
ATOM     14  C   UNL     1      -4.580   2.190   5.897  0.00  0.00    +0.018 A 
ATOM     15  C   UNL     1      -5.256   1.113   5.315  0.00  0.00    +0.011 A 
ATOM     16  C   UNL     1      -6.125   0.358   6.074  0.00  0.00    +0.001 A 
ENDBRANCH   9  14
ENDBRANCH   2   9
ENDBRANCH   1   7
BRANCH   1  17
ATOM     17  N   UNL     1      -0.017   1.397   0.003  0.00  0.00    -0.257 N 
ATOM     18  C   UNL     1       1.264   1.821   0.007  0.00  0.00    +0.174 A 
ATOM     19  S   UNL     1       1.790   3.450   0.022  0.00  0.00    -0.012 S 
ATOM     20  N   UNL     1       2.055   0.729  -0.002  0.00  0.00    -0.317 N 
ATOM     21  H   UNL     1       3.025   0.730  -0.001  0.00  0.00    +0.169 HD
ATOM     22  C   UNL     1       1.247  -0.391  -0.012  0.00  0.00    +0.162 A 
ATOM     23  N   UNL     1       0.002  -0.004  -0.009  0.00  0.00    -0.153 NA
BRANCH  22  24
ATOM     24  C   UNL     1       1.716  -1.794  -0.024  0.00  0.00    +0.039 A 
ATOM     25  C   UNL     1       3.076  -2.077  -0.143  0.00  0.00    +0.033 A 
ATOM     26  C   UNL     1       3.507  -3.389  -0.153  0.00  0.00    +0.042 A 
ATOM     27  C   UNL     1       2.592  -4.422  -0.045  0.00  0.00    +0.021 A 
ATOM     28  C   UNL     1       1.242  -4.149   0.074  0.00  0.00    +0.022 A 
ATOM     29  C   UNL     1       0.799  -2.840   0.091  0.00  0.00    +0.052 A 
ATOM     30 CL   UNL     1      -0.896  -2.498   0.248  0.00  0.00    -0.083 Cl
ATOM     31 CL   UNL     1       5.200  -3.743  -0.303  0.00  0.00    -0.084 Cl
ENDBRANCH  22  24
ENDBRANCH   1  17
TORSDOF 5
