REMARK  Name = ZINC20465545
REMARK  11 active torsions:
REMARK  status: ('A' for Active; 'I' for Inactive)
REMARK    1  A    between atoms: C_1  and  O_2
REMARK    2  A    between atoms: O_2  and  C_3
REMARK    3  A    between atoms: C_8  and  N_9
REMARK    4  A    between atoms: N_12  and  C_15
REMARK    5  A    between atoms: C_17  and  C_27
REMARK    6  A    between atoms: C_20  and  C_25
REMARK    7  A    between atoms: C_22  and  O_24
REMARK    8  A    between atoms: C_25  and  O_26
REMARK    9  A    between atoms: C_27  and  N_28
REMARK   10  A    between atoms: N_28  and  S_29
REMARK   11  A    between atoms: S_29  and  C_32
REMARK                            x       y       z     vdW  Elec       q    Type
REMARK                         _______ _______ _______ _____ _____    ______ ____
ROOT
ATOM      1  C   UNL     1      -5.519  -1.749   0.375  0.00  0.00    +0.118 C 
ATOM      2  C   UNL     1      -5.374  -2.986   1.283  0.00  0.00    +0.154 C 
ATOM      3  O   UNL     1      -6.503  -2.997   2.173  0.00  0.00    -0.366 OA
ATOM      4  C   UNL     1      -7.576  -2.301   1.501  0.00  0.00    +0.174 C 
ATOM      5  C   UNL     1      -6.860  -1.111   0.813  0.00  0.00    +0.165 C 
ENDROOT
BRANCH   1   9
ATOM      6  N   UNL     1      -2.391   1.034  -0.192  0.00  0.00    -0.325 N 
ATOM      7  C   UNL     1      -3.613   1.498   0.480  0.00  0.00    +0.120 C 
ATOM      8  C   UNL     1      -4.764   0.542   0.158  0.00  0.00    +0.104 C 
ATOM      9  N   UNL     1      -4.408  -0.815   0.598  0.00  0.00    -0.292 NA
ATOM     10  C   UNL     1      -3.186  -1.279  -0.074  0.00  0.00    +0.104 C 
ATOM     11  C   UNL     1      -2.035  -0.323   0.247  0.00  0.00    +0.120 C 
BRANCH   6  17
ATOM     12  C   UNL     1      -0.770   2.609  -1.054  0.00  0.00    +0.141 A 
ATOM     13  C   UNL     1       0.282   3.484  -0.839  0.00  0.00    +0.047 A 
ATOM     14  C   UNL     1       0.767   3.681   0.441  0.00  0.00    +0.004 A 
ATOM     15  C   UNL     1       0.205   3.006   1.508  0.00  0.00    +0.002 A 
ATOM     16  C   UNL     1      -0.844   2.131   1.302  0.00  0.00    +0.027 A 
ATOM     17  C   UNL     1      -1.333   1.924   0.020  0.00  0.00    +0.072 A 
BRANCH  12  19
ATOM     18  C   UNL     1      -0.618   3.146  -3.367  0.00  0.00    +0.277 C 
ATOM     19  O   UNL     1      -1.248   2.414  -2.313  0.00  0.00    -0.493 OA
ENDBRANCH  12  19
ENDBRANCH   6  17
ENDBRANCH   1   9
BRANCH   5  20
ATOM     20  O   UNL     1      -6.639  -0.045   1.738  0.00  0.00    -0.388 OA
ATOM     21  H   UNL     1      -7.493   0.514   2.147  0.00  0.00    +0.210 HD
ENDBRANCH   5  20
BRANCH   4  22
ATOM     22  C   UNL     1      -8.609  -1.800   2.512  0.00  0.00    +0.190 C 
BRANCH  22  23
ATOM     23  O   UNL     1      -9.261  -2.917   3.120  0.00  0.00    -0.392 OA
ATOM     24  H   UNL     1     -10.041  -2.753   3.878  0.00  0.00    +0.210 HD
ENDBRANCH  22  23
ENDBRANCH   4  22
BRANCH   2  25
ATOM     25  C   UNL     1      -4.076  -2.892   2.087  0.00  0.00    +0.139 C 
BRANCH  25  26
ATOM     26  N   UNL     1      -4.058  -3.940   3.110  0.00  0.00    -0.187 NA
ATOM     27  H   UNL     1      -5.003  -4.358   3.486  0.00  0.00    +0.148 HD
BRANCH  26  28
ATOM     28  S   UNL     1      -2.642  -4.323   3.879  0.00  0.00    +0.058 S 
ATOM     29  O   UNL     1      -2.953  -5.341   4.819  0.00  0.00    -0.153 OA
ATOM     30  O   UNL     1      -1.663  -4.496   2.863  0.00  0.00    -0.153 OA
BRANCH  28  31
ATOM     31  C   UNL     1      -2.156  -2.908   4.810  0.00  0.00    +0.105 A 
ATOM     32  C   UNL     1      -1.341  -1.950   4.237  0.00  0.00    +0.030 A 
ATOM     33  C   UNL     1      -0.964  -0.838   4.965  0.00  0.00    +0.022 A 
ATOM     34  C   UNL     1      -1.393  -0.689   6.272  0.00  0.00    +0.041 A 
ATOM     35  C   UNL     1      -2.205  -1.651   6.847  0.00  0.00    +0.022 A 
ATOM     36  C   UNL     1      -2.586  -2.760   6.116  0.00  0.00    +0.030 A 
ATOM     37 CL   UNL     1      -0.915   0.705   7.190  0.00  0.00    -0.084 Cl
ENDBRANCH  28  31
ENDBRANCH  26  28
ENDBRANCH  25  26
ENDBRANCH   2  25
TORSDOF 10
