REMARK  Name = ZINC39674762
REMARK  10 active torsions:
REMARK  status: ('A' for Active; 'I' for Inactive)
REMARK    1  A    between atoms: C_1  and  C_2
REMARK    2  A    between atoms: C_4  and  C_14
REMARK    3  A    between atoms: C_7  and  C_12
REMARK    4  A    between atoms: C_14  and  C_15
REMARK    5  A    between atoms: C_15  and  N_16
REMARK    6  A    between atoms: C_17  and  C_19
REMARK    7  A    between atoms: C_30  and  C_32
REMARK    8  A    between atoms: C_36  and  N_38
REMARK    9  A    between atoms: N_38  and  C_39
REMARK   10  A    between atoms: N_38  and  C_40
REMARK                            x       y       z     vdW  Elec       q    Type
REMARK                         _______ _______ _______ _____ _____    ______ ____
ROOT
ATOM      1  C   UNL     1      -7.422  -0.893  -2.957  0.00  0.00    +0.100 C 
ATOM      2  C   UNL     1      -6.721  -1.568  -4.158  0.00  0.00    +0.121 C 
ATOM      3  N   UNL     1      -7.255  -2.950  -4.174  0.00  0.00    -0.296 N 
ATOM      4  C   UNL     1      -8.689  -2.796  -3.833  0.00  0.00    +0.115 C 
ATOM      5  C   UNL     1      -8.715  -1.700  -2.750  0.00  0.00    -0.004 C 
ATOM      6  C   UNL     1      -9.934  -0.801  -2.936  0.00  0.00    -0.010 C 
ATOM      7  C   UNL     1     -11.205  -1.611  -2.668  0.00  0.00    -0.082 C 
ATOM      8  N   UNL     1     -11.169  -2.144  -1.300  0.00  0.00    +0.379 N 
ATOM      9  C   UNL     1     -10.047  -3.079  -1.157  0.00  0.00    -0.082 C 
ATOM     10  C   UNL     1      -8.727  -2.331  -1.361  0.00  0.00    -0.010 C 
ATOM     11  C   UNL     1      -6.586  -4.091  -4.438  0.00  0.00    +0.247 C 
ATOM     12  O   UNL     1      -5.379  -4.069  -4.578  0.00  0.00    -0.270 OA
ATOM     13  H   UNL     1     -11.056  -1.383  -0.648  0.00  0.00    -0.086 HD
ATOM     14  H   UNL     1     -12.034  -2.625  -1.105  0.00  0.00    -0.086 HD
ENDROOT
BRANCH  11  15
ATOM     15  C   UNL     1      -7.322  -5.368  -4.558  0.00  0.00    +0.039 A 
ATOM     16  C   UNL     1      -8.690  -5.365  -4.835  0.00  0.00    +0.013 A 
ATOM     17  C   UNL     1      -9.374  -6.558  -4.946  0.00  0.00    +0.003 A 
ATOM     18  C   UNL     1      -8.710  -7.759  -4.784  0.00  0.00    +0.023 A 
ATOM     19  C   UNL     1      -7.347  -7.773  -4.508  0.00  0.00    +0.030 A 
ATOM     20  C   UNL     1      -6.649  -6.580  -4.401  0.00  0.00    +0.036 A 
BRANCH  19  21
ATOM     21  N   UNL     1      -6.680  -8.990  -4.345  0.00  0.00    -0.336 N 
ATOM     22  C   UNL     1      -7.416 -10.251  -4.465  0.00  0.00    +0.129 C 
ATOM     23  C   UNL     1      -5.244  -9.004  -4.055  0.00  0.00    +0.129 C 
ENDBRANCH  19  21
ENDBRANCH  11  15
BRANCH   1  25
ATOM     24  N   UNL     1      -6.711  -0.080  -0.732  0.00  0.00    -0.315 N 
ATOM     25  C   UNL     1      -6.552  -0.972  -1.730  0.00  0.00    +0.218 C 
ATOM     26  O   UNL     1      -5.708  -1.839  -1.639  0.00  0.00    -0.275 OA
ATOM     27  H   UNL     1      -7.385   0.614  -0.805  0.00  0.00    +0.149 HD
BRANCH  24  28
ATOM     28  C   UNL     1      -5.865  -0.157   0.461  0.00  0.00    +0.108 C 
BRANCH  28  29
ATOM     29  C   UNL     1      -6.248   0.963   1.431  0.00  0.00    +0.052 C 
BRANCH  29  32
ATOM     30  C   UNL     1      -6.792   1.720   4.535  0.00  0.00    +0.035 C 
ATOM     31  C   UNL     1      -5.420   1.797   3.863  0.00  0.00    +0.103 C 
ATOM     32  C   UNL     1      -5.377   0.884   2.659  0.00  0.00    -0.037 C 
ATOM     33  C   UNL     1      -4.397  -0.021   2.907  0.00  0.00    +0.000 A 
ATOM     34  C   UNL     1      -3.902  -1.114   2.148  0.00  0.00    +0.028 A 
ATOM     35  C   UNL     1      -2.880  -1.891   2.642  0.00  0.00    +0.052 A 
ATOM     36  C   UNL     1      -2.281  -1.616   3.944  0.00  0.00    +0.021 A 
ATOM     37  C   UNL     1      -2.710  -0.591   4.709  0.00  0.00    +0.027 A 
ATOM     38  C   UNL     1      -3.799   0.268   4.229  0.00  0.00    +0.043 A 
ATOM     39  N   UNL     1      -4.382   1.308   4.777  0.00  0.00    -0.378 N 
ATOM     40  H   UNL     1      -4.164   1.690   5.642  0.00  0.00    +0.160 HD
BRANCH  35  41
ATOM     41  C   UNL     1      -2.393  -2.989   1.863  0.00  0.00    +0.099 C 
ATOM     42  N   UNL     1      -2.007  -3.861   1.245  0.00  0.00    -0.191 NA
ENDBRANCH  35  41
ENDBRANCH  29  32
ENDBRANCH  28  29
ENDBRANCH  24  28
ENDBRANCH   1  25
TORSDOF 7
