REMARK  Name = ZINC14157852
REMARK  10 active torsions:
REMARK  status: ('A' for Active; 'I' for Inactive)
REMARK    1  A    between atoms: C_1  and  C_2
REMARK    2  A    between atoms: C_2  and  C_4
REMARK    3  A    between atoms: C_2  and  N_14
REMARK    4  A    between atoms: C_7  and  S_10
REMARK    5  A    between atoms: S_10  and  N_13
REMARK    6  A    between atoms: C_15  and  C_17
REMARK    7  A    between atoms: C_17  and  S_18
REMARK    8  A    between atoms: S_18  and  C_19
REMARK    9  A    between atoms: C_22  and  C_27
REMARK   10  A    between atoms: N_23  and  C_24
REMARK                            x       y       z     vdW  Elec       q    Type
REMARK                         _______ _______ _______ _____ _____    ______ ____
ROOT
ATOM      1  N   UNL     1      -2.894   4.971   5.750  0.00  0.00    -0.308 N 
ATOM      2  C   UNL     1      -3.083   4.843   7.079  0.00  0.00    +0.224 C 
ATOM      3  O   UNL     1      -4.114   4.364   7.501  0.00  0.00    -0.275 OA
ATOM      4  H   UNL     1      -2.070   5.354   5.412  0.00  0.00    +0.149 HD
ENDROOT
BRANCH   1   6
ATOM      5  C   UNL     1      -4.959   5.651   4.631  0.00  0.00    +0.033 C 
ATOM      6  C   UNL     1      -3.934   4.531   4.817  0.00  0.00    +0.100 C 
BRANCH   6   7
ATOM      7  C   UNL     1      -3.307   4.198   3.487  0.00  0.00    -0.027 A 
ATOM      8  C   UNL     1      -3.744   3.097   2.774  0.00  0.00    +0.007 A 
ATOM      9  C   UNL     1      -3.169   2.792   1.555  0.00  0.00    +0.029 A 
ATOM     10  C   UNL     1      -2.158   3.587   1.048  0.00  0.00    +0.105 A 
ATOM     11  C   UNL     1      -1.718   4.685   1.764  0.00  0.00    +0.029 A 
ATOM     12  C   UNL     1      -2.296   4.993   2.981  0.00  0.00    +0.007 A 
BRANCH  10  13
ATOM     13  S   UNL     1      -1.426   3.197  -0.506  0.00  0.00    +0.056 S 
ATOM     14  O   UNL     1      -1.635   1.808  -0.717  0.00  0.00    -0.153 OA
ATOM     15  O   UNL     1      -0.130   3.781  -0.502  0.00  0.00    -0.153 OA
BRANCH  13  16
ATOM     16  N   UNL     1      -2.297   3.989  -1.670  0.00  0.00    -0.204 NA
ATOM     17  H   UNL     1      -3.055   4.540  -1.419  0.00  0.00    +0.144 HD
ATOM     18  H   UNL     1      -2.050   3.902  -2.604  0.00  0.00    +0.144 HD
ENDBRANCH  13  16
ENDBRANCH  10  13
ENDBRANCH   6   7
ENDBRANCH   1   6
BRANCH   2  19
ATOM     19  C   UNL     1      -2.013   5.295   8.039  0.00  0.00    +0.173 C 
BRANCH  19  20
ATOM     20  S   UNL     1      -2.561   4.994   9.738  0.00  0.00    -0.077 S 
BRANCH  20  21
ATOM     21  C   UNL     1      -1.161   5.598  10.622  0.00  0.00    +0.193 A 
ATOM     22  N   UNL     1      -0.068   6.102  10.098  0.00  0.00    -0.122 NA
ATOM     23  N   UNL     1       0.750   6.448  11.027  0.00  0.00    -0.128 NA
ATOM     24  C   UNL     1       0.231   6.176  12.205  0.00  0.00    +0.172 A 
ATOM     25  N   UNL     1      -1.010   5.622  11.980  0.00  0.00    -0.299 N 
BRANCH  24  26
ATOM     26  C   UNL     1       0.859   6.417  13.514  0.00  0.00    +0.056 A 
ATOM     27  C   UNL     1       2.170   6.697  13.807  0.00  0.00    +0.019 A 
ATOM     28  C   UNL     1       2.527   6.887  15.123  0.00  0.00    +0.008 A 
ATOM     29  C   UNL     1       1.576   6.792  16.088  0.00  0.00    +0.046 A 
ATOM     30  S   UNL     1       0.110   6.428  15.135  0.00  0.00    -0.094 S 
ENDBRANCH  24  26
BRANCH  25  31
ATOM     31  C   UNL     1      -1.967   5.157  12.987  0.00  0.00    +0.091 C 
ATOM     32  C   UNL     1      -3.093   4.234  12.517  0.00  0.00    +0.027 C 
ATOM     33  C   UNL     1      -3.400   5.685  12.897  0.00  0.00    +0.027 C 
ENDBRANCH  25  31
ENDBRANCH  20  21
ENDBRANCH  19  20
ENDBRANCH   2  19
TORSDOF 9
