REMARK  Name = ZINC07426145
REMARK  7 active torsions:
REMARK  status: ('A' for Active; 'I' for Inactive)
REMARK    1  A    between atoms: C_1  and  C_2
REMARK    2  A    between atoms: C_2  and  N_3
REMARK    3  A    between atoms: C_13  and  S_14
REMARK    4  A    between atoms: S_14  and  C_15
REMARK    5  A    between atoms: C_15  and  C_16
REMARK    6  A    between atoms: N_18  and  C_19
REMARK    7  A    between atoms: N_18  and  C_22
REMARK                            x       y       z     vdW  Elec       q    Type
REMARK                         _______ _______ _______ _____ _____    ______ ____
ROOT
ATOM      1  S   UNL     1       2.988   0.070   0.333  0.00  0.00    -0.078 S 
ENDROOT
BRANCH   1  12
ATOM      2  N   UNL     1       0.785   0.280  -1.206  0.00  0.00    -0.288 N 
ATOM      3  C   UNL     1       0.070   0.195  -2.353  0.00  0.00    +0.262 A 
ATOM      4  O   UNL     1      -1.106   0.505  -2.388  0.00  0.00    -0.267 OA
ATOM      5  C   UNL     1       0.768  -0.284  -3.553  0.00  0.00    +0.065 A 
ATOM      6  C   UNL     1       0.121  -0.406  -4.782  0.00  0.00    +0.015 A 
ATOM      7  C   UNL     1       0.819  -0.857  -5.869  0.00  0.00    +0.001 A 
ATOM      8  C   UNL     1       2.162  -1.193  -5.761  0.00  0.00    +0.002 A 
ATOM      9  C   UNL     1       2.820  -1.083  -4.569  0.00  0.00    +0.028 A 
ATOM     10  C   UNL     1       2.135  -0.625  -3.439  0.00  0.00    +0.079 A 
ATOM     11  N   UNL     1       2.746  -0.501  -2.244  0.00  0.00    -0.223 NA
ATOM     12  C   UNL     1       2.106  -0.067  -1.187  0.00  0.00    +0.173 A 
BRANCH   2  14
ATOM     13  C   UNL     1       0.274   2.273   0.116  0.00  0.00    +0.027 C 
ATOM     14  C   UNL     1       0.138   0.752   0.021  0.00  0.00    +0.124 C 
ENDBRANCH   2  14
ENDBRANCH   1  12
BRANCH   1  15
ATOM     15  C   UNL     1       4.666  -0.478  -0.084  0.00  0.00    +0.173 C 
BRANCH  15  16
ATOM     16  C   UNL     1       5.536  -0.409   1.145  0.00  0.00    +0.230 C 
ATOM     17  O   UNL     1       5.096   0.058   2.174  0.00  0.00    -0.274 OA
ATOM     18  N   UNL     1       6.803  -0.867   1.100  0.00  0.00    -0.272 N 
BRANCH  18  19
ATOM     19  C   UNL     1       7.568  -0.912   2.263  0.00  0.00    +0.010 C 
ATOM     20  C   UNL     1       8.746  -1.469   2.200  0.00  0.00    -0.008 C 
ATOM     21  C   UNL     1       9.676  -1.597   3.370  0.00  0.00    +0.029 C 
ATOM     22  C   UNL     1       9.253  -0.640   4.487  0.00  0.00    +0.004 C 
ATOM     23  C   UNL     1       7.751  -0.821   4.739  0.00  0.00    +0.006 C 
ATOM     24  C   UNL     1       6.991  -0.311   3.511  0.00  0.00    +0.051 C 
ENDBRANCH  18  19
BRANCH  18  25
ATOM     25  C   UNL     1       7.374  -1.318  -0.171  0.00  0.00    +0.081 C 
ATOM     26  C   UNL     1       8.754  -0.780  -0.555  0.00  0.00    +0.025 C 
ATOM     27  C   UNL     1       7.508  -0.284  -1.291  0.00  0.00    +0.025 C 
ENDBRANCH  18  25
ENDBRANCH  15  16
ENDBRANCH   1  15
TORSDOF 6
