REMARK  Name = ZINC61718590
REMARK  3 active torsions:
REMARK  status: ('A' for Active; 'I' for Inactive)
REMARK    1  A    between atoms: C_3  and  C_6
REMARK    2  A    between atoms: N_14  and  C_20
REMARK    3  A    between atoms: C_16  and  C_17
REMARK                            x       y       z     vdW  Elec       q    Type
REMARK                         _______ _______ _______ _____ _____    ______ ____
ROOT
ATOM      1  C   UNL     1       3.761   1.845  -0.024  0.00  0.00    +0.083 C 
ATOM      2  C   UNL     1       4.479   1.339  -1.278  0.00  0.00    +0.111 C 
ATOM      3  C   UNL     1       4.852  -0.111  -1.153  0.00  0.00    +0.218 C 
ATOM      4  O   UNL     1       4.792  -0.821  -2.134  0.00  0.00    -0.275 OA
ATOM      5  N   UNL     1       5.252  -0.647   0.022  0.00  0.00    -0.283 N 
ATOM      6  C   UNL     1       5.182   0.158   1.165  0.00  0.00    +0.070 A 
ATOM      7  C   UNL     1       4.493   1.334   1.192  0.00  0.00    +0.054 A 
ATOM      8  N   UNL     1       4.604   1.886   2.431  0.00  0.00    -0.317 N 
ATOM      9  C   UNL     1       5.356   1.099   3.230  0.00  0.00    +0.108 A 
ATOM     10  C   UNL     1       5.760  -0.018   2.493  0.00  0.00    +0.102 A 
ATOM     11  H   UNL     1       5.577  -1.560   0.071  0.00  0.00    +0.155 HD
ENDROOT
BRANCH   8  12
ATOM     12  C   UNL     1       4.021   3.099   2.822  0.00  0.00    +0.052 A 
ATOM     13  C   UNL     1       4.184   4.233   2.037  0.00  0.00    +0.064 A 
ATOM     14  C   UNL     1       3.607   5.430   2.425  0.00  0.00    +0.128 A 
ATOM     15  C   UNL     1       2.869   5.497   3.594  0.00  0.00    +0.076 A 
ATOM     16  C   UNL     1       2.706   4.367   4.378  0.00  0.00    +0.128 A 
ATOM     17  C   UNL     1       3.276   3.167   3.991  0.00  0.00    +0.064 A 
ATOM     18  F   UNL     1       1.985   4.435   5.518  0.00  0.00    -0.205 F 
ATOM     19  F   UNL     1       3.766   6.533   1.662  0.00  0.00    -0.205 F 
ENDBRANCH   8  12
BRANCH   1  22
ATOM     20  C   UNL     1      -0.016   1.351   0.009  0.00  0.00    +0.008 A 
ATOM     21  C   UNL     1       1.183   2.038   0.002  0.00  0.00    +0.012 A 
ATOM     22  C   UNL     1       2.343   1.336  -0.013  0.00  0.00    -0.001 A 
ATOM     23  S   UNL     1       1.754  -0.349  -0.017  0.00  0.00    -0.101 S 
ATOM     24  C   UNL     1       0.002  -0.004   0.002  0.00  0.00    +0.045 A 
ENDBRANCH   1  22
BRANCH  10  25
ATOM     25  C   UNL     1       6.590  -1.134   2.956  0.00  0.00    +0.390 C 
ATOM     26  O   UNL     1       7.009  -1.149   4.106  0.00  0.00    -0.240 OA
ATOM     27  O   UNL     1       6.865  -2.050   2.192  0.00  0.00    -0.240 OA
ENDBRANCH  10  25
TORSDOF 3
