REMARK  Name = ZINC12602112
REMARK  6 active torsions:
REMARK  status: ('A' for Active; 'I' for Inactive)
REMARK    1  A    between atoms: C_1  and  N_2
REMARK    2  A    between atoms: C_3  and  C_14
REMARK    3  A    between atoms: C_5  and  C_7
REMARK    4  A    between atoms: C_22  and  C_24
REMARK    5  A    between atoms: C_24  and  N_25
REMARK    6  A    between atoms: C_26  and  C_28
REMARK                            x       y       z     vdW  Elec       q    Type
REMARK                         _______ _______ _______ _____ _____    ______ ____
ROOT
ATOM      1  C   UNL     1      -3.299  11.060   1.139  0.00  0.00    +0.024 C 
ATOM      2  C   UNL     1      -2.511   9.979   0.394  0.00  0.00    -0.068 C 
ATOM      3  C   UNL     1      -4.294   9.718  -1.225  0.00  0.00    -0.078 C 
ATOM      4  C   UNL     1      -5.133  10.791  -0.526  0.00  0.00    -0.015 C 
ATOM      5  C   UNL     1      -4.799  10.784   0.971  0.00  0.00    -0.007 C 
ATOM      6  C   UNL     1      -5.106   9.392   1.535  0.00  0.00    -0.010 C 
ATOM      7  C   UNL     1      -4.268   8.356   0.779  0.00  0.00    -0.051 C 
ATOM      8  N   UNL     1      -3.433   9.018  -0.247  0.00  0.00    +0.383 N 
ATOM      9  H   UNL     1      -2.883   8.304  -0.739  0.00  0.00    -0.081 HD
ENDROOT
BRANCH   1  12
ATOM     10  C   UNL     1      -4.723  12.587   3.425  0.00  0.00    +0.172 C 
ATOM     11  N   UNL     1      -3.568  11.700   3.590  0.00  0.00    -0.271 N 
ATOM     12  C   UNL     1      -2.938  11.029   2.602  0.00  0.00    +0.041 A 
ATOM     13  C   UNL     1      -1.930  10.321   3.157  0.00  0.00    +0.053 A 
ATOM     14  C   UNL     1      -1.937  10.574   4.542  0.00  0.00    +0.093 A 
ATOM     15  N   UNL     1      -2.927  11.402   4.798  0.00  0.00    -0.171 NA
BRANCH  14  16
ATOM     16  C   UNL     1      -0.997  10.002   5.539  0.00  0.00    +0.002 A 
ATOM     17  C   UNL     1       0.008   9.127   5.130  0.00  0.00    +0.013 A 
ATOM     18  C   UNL     1       0.884   8.603   6.058  0.00  0.00    +0.039 A 
ATOM     19  C   UNL     1       0.757   8.936   7.397  0.00  0.00    +0.123 A 
ATOM     20  C   UNL     1      -0.244   9.800   7.809  0.00  0.00    +0.039 A 
ATOM     21  C   UNL     1      -1.120  10.334   6.886  0.00  0.00    +0.013 A 
ATOM     22  F   UNL     1       1.613   8.416   8.304  0.00  0.00    -0.205 F 
ENDBRANCH  14  16
ENDBRANCH   1  12
BRANCH   7  23
ATOM     23  C   UNL     1      -3.357   7.621   1.763  0.00  0.00    +0.089 C 
BRANCH  23  24
ATOM     24  N   UNL     1      -2.470   6.718   1.025  0.00  0.00    -0.313 N 
ATOM     25  C   UNL     1      -1.574   5.961   1.690  0.00  0.00    +0.244 C 
ATOM     26  O   UNL     1      -1.502   6.029   2.902  0.00  0.00    -0.270 OA
ATOM     27  H   UNL     1      -2.527   6.664   0.058  0.00  0.00    +0.149 HD
BRANCH  25  28
ATOM     28  C   UNL     1      -0.680   5.052   0.946  0.00  0.00    +0.040 A 
ATOM     29  C   UNL     1      -0.761   4.973  -0.446  0.00  0.00    +0.017 A 
ATOM     30  C   UNL     1       0.073   4.123  -1.138  0.00  0.00    +0.050 A 
ATOM     31  C   UNL     1       0.997   3.342  -0.456  0.00  0.00    +0.166 A 
ATOM     32  C   UNL     1       1.083   3.416   0.934  0.00  0.00    +0.167 A 
ATOM     33  C   UNL     1       0.249   4.266   1.634  0.00  0.00    +0.062 A 
ATOM     34  O   UNL     1       2.062   2.560   1.358  0.00  0.00    -0.453 OA
ATOM     35  C   UNL     1       2.844   2.265   0.186  0.00  0.00    +0.466 C 
ATOM     36  O   UNL     1       1.917   2.439  -0.902  0.00  0.00    -0.453 OA
ENDBRANCH  25  28
ENDBRANCH  23  24
ENDBRANCH   7  23
TORSDOF 5
