REMARK  Name = ZINC19874006
REMARK  9 active torsions:
REMARK  status: ('A' for Active; 'I' for Inactive)
REMARK    1  A    between atoms: C_1  and  C_2
REMARK    2  A    between atoms: C_2  and  O_3
REMARK    3  A    between atoms: O_3  and  C_4
REMARK    4  A    between atoms: C_6  and  C_18
REMARK    5  A    between atoms: C_16  and  C_17
REMARK    6  A    between atoms: C_20  and  C_23
REMARK    7  A    between atoms: C_23  and  S_24
REMARK    8  A    between atoms: S_24  and  C_25
REMARK    9  A    between atoms: N_29  and  C_30
REMARK                            x       y       z     vdW  Elec       q    Type
REMARK                         _______ _______ _______ _____ _____    ______ ____
ROOT
ATOM      1  C   UNL     1       0.775  -1.810   1.321  0.00  0.00    +0.338 C 
ATOM      2  C   UNL     1       1.442  -2.336   2.408  0.00  0.00    +0.070 C 
ATOM      3  C   UNL     1       1.461  -3.822   2.611  0.00  0.00    +0.099 C 
ATOM      4  C   UNL     1       2.237  -4.190   3.850  0.00  0.00    +0.029 C 
ATOM      5  C   UNL     1       2.827  -3.228   4.634  0.00  0.00    +0.049 C 
ATOM      6  C   UNL     1       3.608  -3.616   5.868  0.00  0.00    +0.056 C 
ATOM      7  C   UNL     1       3.022  -4.897   6.464  0.00  0.00    +0.014 C 
ATOM      8  C   UNL     1       3.084  -6.000   5.402  0.00  0.00    +0.080 C 
ATOM      9  C   UNL     1       2.336  -5.545   4.179  0.00  0.00    +0.162 C 
ATOM     10  O   UNL     1       1.807  -6.373   3.462  0.00  0.00    -0.292 OA
ATOM     11  N   UNL     1       2.733  -1.933   4.338  0.00  0.00    -0.256 NA
ATOM     12  C   UNL     1       2.087  -1.481   3.286  0.00  0.00    +0.049 C 
ATOM     13  C   UNL     1       2.042   0.004   3.034  0.00  0.00    +0.066 C 
ATOM     14  O   UNL     1       0.248  -2.632   0.393  0.00  0.00    -0.245 OA
ENDROOT
BRANCH   3  15
ATOM     15  C   UNL     1       2.103  -4.476   1.415  0.00  0.00    +0.002 A 
ATOM     16  C   UNL     1       1.578  -5.381   0.552  0.00  0.00    +0.016 A 
ATOM     17  C   UNL     1       2.360  -5.849  -0.486  0.00  0.00    -0.030 A 
ATOM     18  C   UNL     1       3.630  -5.390  -0.612  0.00  0.00    +0.050 A 
ATOM     19  S   UNL     1       3.749  -4.255   0.761  0.00  0.00    -0.100 S 
BRANCH  17  20
ATOM     20  C   UNL     1       1.810  -6.856  -1.464  0.00  0.00    +0.113 C 
BRANCH  20  21
ATOM     21  S   UNL     1       1.030  -5.986  -2.852  0.00  0.00    -0.080 S 
BRANCH  21  22
ATOM     22  C   UNL     1       0.446  -7.283  -3.892  0.00  0.00    +0.209 A 
ATOM     23  N   UNL     1       0.562  -8.574  -3.672  0.00  0.00    -0.102 NA
ATOM     24  N   UNL     1       0.027  -9.244  -4.628  0.00  0.00    -0.022 NA
ATOM     25  N   UNL     1      -0.463  -8.446  -5.514  0.00  0.00    -0.043 NA
ATOM     26  N   UNL     1      -0.214  -7.137  -5.066  0.00  0.00    -0.223 N 
ATOM     27  C   UNL     1      -0.587  -5.884  -5.727  0.00  0.00    +0.177 C 
ENDBRANCH  21  22
ENDBRANCH  20  21
ENDBRANCH  17  20
ENDBRANCH   3  15
BRANCH   1  28
ATOM     28  O   UNL     1       0.649  -0.476   1.189  0.00  0.00    -0.462 OA
BRANCH  28  30
ATOM     29  C   UNL     1      -0.096   1.528   0.062  0.00  0.00    +0.048 C 
ATOM     30  C   UNL     1      -0.055  -0.001   0.040  0.00  0.00    +0.229 C 
ENDBRANCH  28  30
ENDBRANCH   1  28
TORSDOF 6
