REMARK  Name = ZINC09747201
REMARK  15 active torsions:
REMARK  status: ('A' for Active; 'I' for Inactive)
REMARK    1  A    between atoms: C_1  and  C_2
REMARK    2  A    between atoms: C_2  and  C_3
REMARK    3  A    between atoms: C_3  and  C_4
REMARK    4  A    between atoms: C_4  and  C_5
REMARK    5  A    between atoms: C_8  and  N_11
REMARK    6  A    between atoms: C_12  and  C_14
REMARK    7  A    between atoms: C_14  and  S_15
REMARK    8  A    between atoms: S_15  and  C_16
REMARK    9  A    between atoms: N_19  and  C_23
REMARK   10  A    between atoms: C_23  and  C_24
REMARK   11  A    between atoms: C_24  and  N_25
REMARK   12  A    between atoms: N_25  and  C_26
REMARK   13  A    between atoms: N_25  and  C_28
REMARK   14  A    between atoms: C_26  and  C_27
REMARK   15  A    between atoms: C_28  and  C_29
REMARK                            x       y       z     vdW  Elec       q    Type
REMARK                         _______ _______ _______ _____ _____    ______ ____
ROOT
ATOM      1  C   UNL     1       6.724  -4.207  -9.976  0.00  0.00    +0.108 A 
ATOM      2  C   UNL     1       8.112  -4.274  -9.699  0.00  0.00    +0.004 A 
ATOM      3  C   UNL     1       8.936  -4.780 -10.635  0.00  0.00    +0.029 A 
ATOM      4  N   UNL     1       8.409  -5.200 -11.827  0.00  0.00    -0.298 N 
ATOM      5  C   UNL     1       7.089  -5.122 -12.061  0.00  0.00    +0.350 A 
ATOM      6  O   UNL     1       6.643  -5.507 -13.130  0.00  0.00    -0.244 OA
ATOM      7  N   UNL     1       6.259  -4.637 -11.140  0.00  0.00    -0.186 NA
ATOM      8  C   UNL     1      10.421  -4.915 -10.431  0.00  0.00    +0.054 C 
ATOM      9  C   UNL     1      10.889  -4.028  -9.278  0.00  0.00    +0.006 C 
ATOM     10  C   UNL     1       9.993  -4.303  -8.064  0.00  0.00    +0.005 C 
ATOM     11  C   UNL     1       8.595  -3.768  -8.367  0.00  0.00    +0.039 C 
ENDROOT
BRANCH   1  12
ATOM     12  S   UNL     1       5.616  -3.560  -8.769  0.00  0.00    -0.096 S 
BRANCH  12  13
ATOM     13  C   UNL     1       3.987  -3.683  -9.558  0.00  0.00    +0.171 C 
BRANCH  13  15
ATOM     14  N   UNL     1       1.638  -3.148  -8.995  0.00  0.00    -0.285 N 
ATOM     15  C   UNL     1       2.933  -3.155  -8.619  0.00  0.00    +0.227 C 
ATOM     16  O   UNL     1       3.249  -2.737  -7.526  0.00  0.00    -0.275 OA
ATOM     17  H   UNL     1       1.376  -3.550  -9.838  0.00  0.00    +0.155 HD
BRANCH  14  21
ATOM     18  C   UNL     1      -1.235  -1.399  -6.538  0.00  0.00    -0.047 A 
ATOM     19  C   UNL     1       0.045  -0.878  -6.581  0.00  0.00    +0.005 A 
ATOM     20  C   UNL     1       1.000  -1.456  -7.394  0.00  0.00    +0.023 A 
ATOM     21  C   UNL     1       0.673  -2.561  -8.169  0.00  0.00    +0.033 A 
ATOM     22  C   UNL     1      -0.613  -3.082  -8.124  0.00  0.00    +0.023 A 
ATOM     23  C   UNL     1      -1.562  -2.502  -7.304  0.00  0.00    +0.005 A 
BRANCH  18  24
ATOM     24  C   UNL     1      -2.275  -0.766  -5.649  0.00  0.00    +0.035 C 
BRANCH  24  25
ATOM     25  C   UNL     1      -2.231  -1.421  -4.267  0.00  0.00    +0.004 C 
BRANCH  25  27
ATOM     26  C   UNL     1      -3.242  -1.433  -1.982  0.00  0.00    +0.004 C 
ATOM     27  C   UNL     1      -3.286  -0.778  -3.364  0.00  0.00    -0.003 C 
ENDBRANCH  25  27
ENDBRANCH  24  25
ENDBRANCH  18  24
ENDBRANCH  14  21
ENDBRANCH  13  15
ENDBRANCH  12  13
ENDBRANCH   1  12
BRANCH   4  28
ATOM     28  C   UNL     1       9.297  -5.741 -12.860  0.00  0.00    +0.108 C 
BRANCH  28  29
ATOM     29  C   UNL     1       9.431  -7.254 -12.675  0.00  0.00    -0.057 C 
BRANCH  29  30
ATOM     30  N   UNL     1      10.214  -7.815 -13.785  0.00  0.00    +0.380 N 
ATOM     31  H   UNL     1       9.792  -7.549 -14.662  0.00  0.00    -0.082 HD
BRANCH  30  32
ATOM     32  C   UNL     1      11.588  -7.298 -13.726  0.00  0.00    -0.082 C 
ATOM     33  C   UNL     1      12.368  -7.782 -14.950  0.00  0.00    -0.017 C 
ENDBRANCH  30  32
BRANCH  30  34
ATOM     34  C   UNL     1      10.237  -9.280 -13.677  0.00  0.00    -0.082 C 
ATOM     35  C   UNL     1       8.824  -9.829 -13.887  0.00  0.00    -0.017 C 
ENDBRANCH  30  34
ENDBRANCH  29  30
ENDBRANCH  28  29
ENDBRANCH   4  28
TORSDOF 12
