REMARK  Name = ZINC36643792
REMARK  7 active torsions:
REMARK  status: ('A' for Active; 'I' for Inactive)
REMARK    1  A    between atoms: C_1  and  N_2
REMARK    2  A    between atoms: N_2  and  C_3
REMARK    3  A    between atoms: N_2  and  C_4
REMARK    4  A    between atoms: C_4  and  C_5
REMARK    5  A    between atoms: C_5  and  C_6
REMARK    6  A    between atoms: C_6  and  N_7
REMARK    7  A    between atoms: C_19  and  C_21
REMARK                            x       y       z     vdW  Elec       q    Type
REMARK                         _______ _______ _______ _____ _____    ______ ____
ROOT
ATOM      1  N   UNL     1      -0.063  -0.252   4.903  0.00  0.00    -0.246 N 
ATOM      2  C   UNL     1      -1.102  -1.055   5.343  0.00  0.00    +0.168 A 
ATOM      3  N   UNL     1      -1.531  -2.191   4.846  0.00  0.00    -0.221 NA
ATOM      4  C   UNL     1      -2.567  -2.873   5.384  0.00  0.00    +0.116 A 
ATOM      5  C   UNL     1      -3.125  -4.100   4.949  0.00  0.00    +0.152 A 
ATOM      6  C   UNL     1      -4.186  -4.662   5.613  0.00  0.00    +0.079 A 
ATOM      7  C   UNL     1      -4.747  -4.054   6.729  0.00  0.00    +0.127 A 
ATOM      8  C   UNL     1      -4.225  -2.854   7.181  0.00  0.00    +0.055 A 
ATOM      9  C   UNL     1      -3.164  -2.285   6.521  0.00  0.00    +0.046 A 
ATOM     10  S   UNL     1      -2.195  -0.811   6.736  0.00  0.00    -0.052 S 
ATOM     11  F   UNL     1      -5.792  -4.627   7.366  0.00  0.00    -0.205 F 
ATOM     12  F   UNL     1      -2.608  -4.723   3.867  0.00  0.00    -0.203 F 
ATOM     13  C   UNL     1       0.232   0.888   5.559  0.00  0.00    +0.260 C 
ATOM     14  O   UNL     1      -0.346   1.161   6.594  0.00  0.00    -0.269 OA
ENDROOT
BRANCH  13  15
ATOM     15  C   UNL     1       1.250   1.799   5.024  0.00  0.00    +0.094 A 
ATOM     16  C   UNL     1       1.768   2.921   5.595  0.00  0.00    +0.068 A 
ATOM     17  C   UNL     1       2.748   3.667   4.913  0.00  0.00    +0.008 A 
ATOM     18  C   UNL     1       3.403   4.852   5.336  0.00  0.00    +0.010 A 
ATOM     19  C   UNL     1       4.332   5.451   4.549  0.00  0.00    +0.001 A 
ATOM     20  C   UNL     1       4.678   4.933   3.306  0.00  0.00    +0.001 A 
ATOM     21  C   UNL     1       4.065   3.782   2.856  0.00  0.00    +0.016 A 
ATOM     22  C   UNL     1       3.119   3.162   3.644  0.00  0.00    +0.021 A 
ATOM     23  S   UNL     1       2.119   1.706   3.468  0.00  0.00    -0.082 S 
ATOM     24 CL   UNL     1       1.222   3.431   7.162  0.00  0.00    -0.082 Cl
ENDBRANCH  13  15
BRANCH   1  25
ATOM     25  C   UNL     1       0.716  -0.642   3.725  0.00  0.00    +0.114 C 
BRANCH  25  26
ATOM     26  C   UNL     1       0.085  -0.034   2.472  0.00  0.00    +0.001 C 
BRANCH  26  27
ATOM     27  C   UNL     1       0.898  -0.441   1.242  0.00  0.00    -0.078 C 
BRANCH  27  29
ATOM     28  C   UNL     1       0.391   1.608   0.102  0.00  0.00    -0.097 C 
ATOM     29  N   UNL     1       0.292   0.144   0.038  0.00  0.00    +0.376 N 
ATOM     30  C   UNL     1       1.001  -0.344  -1.153  0.00  0.00    -0.097 C 
ATOM     31  H   UNL     1      -0.679  -0.126  -0.014  0.00  0.00    -0.083 HD
ENDBRANCH  27  29
ENDBRANCH  26  27
ENDBRANCH  25  26
ENDBRANCH   1  25
TORSDOF 5
