REMARK  Name = ZINC65059019
REMARK  8 active torsions:
REMARK  status: ('A' for Active; 'I' for Inactive)
REMARK    1  A    between atoms: C_1  and  C_2
REMARK    2  A    between atoms: C_5  and  C_8
REMARK    3  A    between atoms: C_8  and  N_9
REMARK    4  A    between atoms: C_10  and  C_12
REMARK    5  A    between atoms: C_12  and  C_29
REMARK    6  A    between atoms: N_20  and  C_21
REMARK    7  A    between atoms: C_25  and  C_28
REMARK    8  A    between atoms: C_26  and  C_27
REMARK                            x       y       z     vdW  Elec       q    Type
REMARK                         _______ _______ _______ _____ _____    ______ ____
ROOT
ATOM      1  C   UNL     1       2.983  -6.367  -0.658  0.00  0.00    +0.060 C 
ATOM      2  C   UNL     1       2.992  -7.873  -0.385  0.00  0.00    +0.019 C 
ATOM      3  C   UNL     1       4.419  -8.328  -0.070  0.00  0.00    +0.020 C 
ATOM      4  C   UNL     1       5.318  -8.050  -1.278  0.00  0.00    +0.109 C 
ATOM      5  N   UNL     1       5.202  -6.630  -1.637  0.00  0.00    -0.284 N 
ATOM      6  C   UNL     1       3.866  -6.068  -1.873  0.00  0.00    +0.125 C 
ATOM      7  C   UNL     1       6.302  -5.858  -1.748  0.00  0.00    +0.306 C 
ATOM      8  O   UNL     1       6.201  -4.707  -2.126  0.00  0.00    -0.252 OA
ATOM      9  N   UNL     1       7.513  -6.362  -1.439  0.00  0.00    -0.269 N 
ATOM     10  C   UNL     1       3.526  -5.623   0.564  0.00  0.00    +0.022 C 
ATOM     11  H   UNL     1       7.603  -7.299  -1.203  0.00  0.00    +0.156 HD
ENDROOT
BRANCH   9  12
ATOM     12  C   UNL     1       8.641  -5.535  -1.458  0.00  0.00    +0.038 A 
ATOM     13  C   UNL     1       8.492  -4.154  -1.415  0.00  0.00    +0.023 A 
ATOM     14  C   UNL     1       9.608  -3.340  -1.434  0.00  0.00    +0.002 A 
ATOM     15  C   UNL     1      10.872  -3.898  -1.497  0.00  0.00    +0.004 A 
ATOM     16  C   UNL     1      11.023  -5.272  -1.541  0.00  0.00    -0.046 A 
ATOM     17  C   UNL     1       9.912  -6.092  -1.516  0.00  0.00    -0.026 A 
ATOM     18  C   UNL     1      10.078  -7.589  -1.558  0.00  0.00    +0.046 C 
ATOM     19  C   UNL     1      12.402  -5.875  -1.610  0.00  0.00    +0.044 C 
ENDBRANCH   9  12
BRANCH   1  21
ATOM     20  N   UNL     1       1.322  -4.619  -1.209  0.00  0.00    -0.311 N 
ATOM     21  C   UNL     1       1.573  -5.915  -0.936  0.00  0.00    +0.221 C 
ATOM     22  O   UNL     1       0.663  -6.717  -0.916  0.00  0.00    -0.275 OA
ATOM     23  H   UNL     1       2.050  -3.978  -1.225  0.00  0.00    +0.149 HD
BRANCH  20  24
ATOM     24  C   UNL     1      -0.049  -4.179  -1.480  0.00  0.00    +0.139 C 
BRANCH  24  29
ATOM     25  C   UNL     1      -0.081   1.504  -2.525  0.00  0.00    +0.044 C 
ATOM     26  C   UNL     1      -0.072   0.022  -2.252  0.00  0.00    -0.050 A 
ATOM     27  C   UNL     1       0.095  -0.871  -3.294  0.00  0.00    +0.003 A 
ATOM     28  C   UNL     1       0.102  -2.231  -3.044  0.00  0.00    +0.005 A 
ATOM     29  C   UNL     1      -0.056  -2.697  -1.752  0.00  0.00    -0.030 A 
ATOM     30  C   UNL     1      -0.222  -1.804  -0.710  0.00  0.00    +0.005 A 
ATOM     31  C   UNL     1      -0.226  -0.444  -0.960  0.00  0.00    +0.003 A 
ENDBRANCH  24  29
ENDBRANCH  20  24
ENDBRANCH   1  21
TORSDOF 4
