REMARK  Name = ZINC16918602
REMARK  11 active torsions:
REMARK  status: ('A' for Active; 'I' for Inactive)
REMARK    1  A    between atoms: C_1  and  C_2
REMARK    2  A    between atoms: C_2  and  C_3
REMARK    3  A    between atoms: C_3  and  C_5
REMARK    4  A    between atoms: C_3  and  O_7
REMARK    5  A    between atoms: O_7  and  C_8
REMARK    6  A    between atoms: C_11  and  C_17
REMARK    7  A    between atoms: C_13  and  O_14
REMARK    8  A    between atoms: O_14  and  C_15
REMARK    9  A    between atoms: C_15  and  C_16
REMARK   10  A    between atoms: N_21  and  N_25
REMARK   11  A    between atoms: C_26  and  C_28
REMARK                            x       y       z     vdW  Elec       q    Type
REMARK                         _______ _______ _______ _____ _____    ______ ____
ROOT
ATOM      1  C   UNL     1      -4.405   4.913   1.492  0.00  0.00    +0.028 C 
ATOM      2  C   UNL     1      -5.084   5.400   0.422  0.00  0.00    +0.079 C 
ATOM      3  C   UNL     1      -5.253   4.823  -0.927  0.00  0.00    +0.275 C 
ATOM      4  O   UNL     1      -4.751   3.758  -1.234  0.00  0.00    -0.267 OA
ATOM      5  N   UNL     1      -5.977   5.523  -1.784  0.00  0.00    -0.169 N 
ATOM      6  C   UNL     1      -6.531   6.703  -1.439  0.00  0.00    +0.138 C 
ATOM      7  S   UNL     1      -7.492   7.747  -2.397  0.00  0.00    -0.026 S 
ATOM      8  S   UNL     1      -6.026   6.910   0.261  0.00  0.00    -0.059 S 
ENDROOT
BRANCH   1  12
ATOM      9  C   UNL     1      -1.942   1.485   1.058  0.00  0.00    +0.163 A 
ATOM     10  C   UNL     1      -1.931   2.474   0.084  0.00  0.00    +0.050 A 
ATOM     11  C   UNL     1      -2.733   3.586   0.217  0.00  0.00    +0.012 A 
ATOM     12  C   UNL     1      -3.554   3.726   1.343  0.00  0.00    -0.020 A 
ATOM     13  C   UNL     1      -3.559   2.730   2.328  0.00  0.00    +0.057 A 
ATOM     14  C   UNL     1      -2.756   1.616   2.183  0.00  0.00    +0.162 A 
BRANCH   9  15
ATOM     15  O   UNL     1      -1.153   0.388   0.918  0.00  0.00    -0.474 OA
BRANCH  15  16
ATOM     16  C   UNL     1      -0.249   0.376  -0.189  0.00  0.00    +0.285 C 
BRANCH  16  17
ATOM     17  C   UNL     1      -0.092  -1.035  -0.695  0.00  0.00    +0.396 C 
ATOM     18  O   UNL     1      -0.620  -1.949  -0.107  0.00  0.00    -0.242 OA
ATOM     19  O   UNL     1       0.634  -1.276  -1.797  0.00  0.00    -0.242 OA
ENDBRANCH  16  17
BRANCH  16  21
ATOM     20  C   UNL     1       0.976   2.384   0.654  0.00  0.00    +0.008 C 
ATOM     21  C   UNL     1       1.112   0.912   0.258  0.00  0.00    +0.053 C 
ENDBRANCH  16  21
ENDBRANCH  15  16
ENDBRANCH   9  15
BRANCH  14  22
ATOM     22  O   UNL     1      -2.759   0.647   3.136  0.00  0.00    -0.489 OA
BRANCH  22  23
ATOM     23  C   UNL     1      -3.617   0.847   4.262  0.00  0.00    +0.226 C 
ATOM     24  C   UNL     1      -3.485  -0.339   5.220  0.00  0.00    +0.048 C 
ENDBRANCH  22  23
ENDBRANCH  14  22
ENDBRANCH   1  12
BRANCH   5  25
ATOM     25  N   UNL     1      -6.172   5.028  -3.080  0.00  0.00    -0.222 N 
ATOM     26  C   UNL     1      -7.361   4.495  -3.425  0.00  0.00    +0.262 C 
ATOM     27  O   UNL     1      -8.264   4.444  -2.613  0.00  0.00    -0.269 OA
ATOM     28  H   UNL     1      -5.452   5.068  -3.728  0.00  0.00    +0.174 HD
BRANCH  26  29
ATOM     29  C   UNL     1      -7.567   3.972  -4.793  0.00  0.00    +0.056 A 
ATOM     30  C   UNL     1      -8.795   3.411  -5.163  0.00  0.00    +0.016 A 
ATOM     31  C   UNL     1      -8.938   2.940  -6.456  0.00  0.00    +0.020 A 
ATOM     32  C   UNL     1      -7.870   3.029  -7.331  0.00  0.00    +0.111 A 
ATOM     33  N   UNL     1      -6.723   3.558  -6.953  0.00  0.00    -0.263 NA
ATOM     34  C   UNL     1      -6.539   4.024  -5.735  0.00  0.00    +0.123 A 
ENDBRANCH  26  29
ENDBRANCH   5  25
TORSDOF 9
