REMARK  Name = ZINC39330112
REMARK  9 active torsions:
REMARK  status: ('A' for Active; 'I' for Inactive)
REMARK    1  A    between atoms: C_1  and  C_2
REMARK    2  A    between atoms: C_8  and  C_19
REMARK    3  A    between atoms: C_10  and  C_16
REMARK    4  A    between atoms: C_12  and  C_14
REMARK    5  A    between atoms: C_12  and  O_15
REMARK    6  A    between atoms: C_16  and  C_18
REMARK    7  A    between atoms: C_22  and  C_25
REMARK    8  A    between atoms: C_25  and  C_26
REMARK    9  A    between atoms: C_25  and  C_27
REMARK                            x       y       z     vdW  Elec       q    Type
REMARK                         _______ _______ _______ _____ _____    ______ ____
ROOT
ATOM      1  C   UNL     1       0.669   2.069   1.160  0.00  0.00    +0.063 C 
ATOM      2  C   UNL     1       0.522   0.594   0.892  0.00  0.00    +0.047 C 
ATOM      3  N   UNL     1       0.432   0.015  -0.265  0.00  0.00    -0.158 NA
ATOM      4  N   UNL     1       0.349  -1.374  -0.160  0.00  0.00    -0.158 NA
ATOM      5  C   UNL     1       0.434  -1.770   1.049  0.00  0.00    +0.053 C 
ATOM      6  C   UNL     1       0.456  -0.513   1.911  0.00  0.00    +0.089 C 
ATOM      7  C   UNL     1       1.719  -0.605   2.768  0.00  0.00    +0.046 C 
ATOM      8  C   UNL     1       1.685  -1.933   3.532  0.00  0.00    +0.095 C 
ATOM      9  C   UNL     1       1.761  -3.127   2.583  0.00  0.00    +0.078 C 
ATOM     10  C   UNL     1       0.527  -3.147   1.654  0.00  0.00    +0.088 C 
ATOM     11  C   UNL     1       3.034  -3.024   1.741  0.00  0.00    +0.042 C 
ENDROOT
BRANCH   7  12
ATOM     12  C   UNL     1       2.938  -0.557   1.884  0.00  0.00    -0.043 A 
ATOM     13  C   UNL     1       2.854  -0.973   0.568  0.00  0.00    +0.004 A 
ATOM     14  C   UNL     1       3.972  -0.929  -0.244  0.00  0.00    +0.004 A 
ATOM     15  C   UNL     1       5.174  -0.470   0.260  0.00  0.00    -0.045 A 
ATOM     16  C   UNL     1       5.258  -0.053   1.576  0.00  0.00    +0.004 A 
ATOM     17  C   UNL     1       4.139  -0.092   2.386  0.00  0.00    +0.004 A 
BRANCH  15  18
ATOM     18  C   UNL     1       6.393  -0.423  -0.624  0.00  0.00    +0.013 C 
ATOM     19  C   UNL     1       6.896   1.018  -0.725  0.00  0.00    +0.012 C 
ATOM     20  C   UNL     1       7.491  -1.305  -0.026  0.00  0.00    +0.012 C 
ENDBRANCH  15  18
ENDBRANCH   7  12
BRANCH   8  21
ATOM     21  C   UNL     1       2.853  -1.986   4.482  0.00  0.00    +0.137 C 
ATOM     22  O   UNL     1       3.846  -1.337   4.255  0.00  0.00    -0.297 OA
ATOM     23  C   UNL     1       2.784  -2.849   5.715  0.00  0.00    +0.086 C 
ENDBRANCH   8  21
BRANCH   9  24
ATOM     24  O   UNL     1       1.797  -4.335   3.345  0.00  0.00    -0.388 OA
ATOM     25  H   UNL     1       1.846  -5.138   2.807  0.00  0.00    +0.210 HD
ENDBRANCH   9  24
TORSDOF 4
