REMARK  Name = ZINC14741633
REMARK  9 active torsions:
REMARK  status: ('A' for Active; 'I' for Inactive)
REMARK    1  A    between atoms: C_1  and  O_2
REMARK    2  A    between atoms: O_2  and  C_3
REMARK    3  A    between atoms: C_3  and  C_5
REMARK    4  A    between atoms: C_5  and  N_6
REMARK    5  A    between atoms: C_14  and  C_15
REMARK    6  A    between atoms: C_14  and  N_65
REMARK    7  A    between atoms: N_25  and  C_28
REMARK    8  A    between atoms: C_28  and  C_29
REMARK    9  A    between atoms: C_29  and  C_30
REMARK                            x       y       z     vdW  Elec       q    Type
REMARK                         _______ _______ _______ _____ _____    ______ ____
ROOT
ATOM      1  N   UNL     1      -1.027  -2.215   0.002  0.00  0.00    -0.213 N 
ATOM      2  C   UNL     1      -0.859  -2.946  -1.120  0.00  0.00    +0.247 C 
ATOM      3  O   UNL     1      -0.935  -2.558  -2.266  0.00  0.00    -0.273 OA
ATOM      4  C   UNL     1      -0.553  -4.347  -0.646  0.00  0.00    +0.112 C 
ATOM      5  C   UNL     1      -1.617  -5.319  -1.145  0.00  0.00    +0.017 C 
ATOM      6  C   UNL     1      -1.272  -6.735  -0.673  0.00  0.00    -0.076 C 
ATOM      7  C   UNL     1       1.097  -6.217  -0.644  0.00  0.00    -0.076 C 
ATOM      8  C   UNL     1       0.832  -4.784  -1.115  0.00  0.00    +0.017 C 
ATOM      9  N   UNL     1      -0.593  -4.247   0.818  0.00  0.00    -0.271 N 
ATOM     10  C   UNL     1      -0.877  -2.961   1.103  0.00  0.00    +0.312 C 
ATOM     11  O   UNL     1      -0.987  -2.528   2.233  0.00  0.00    -0.252 OA
ATOM     12  N   UNL     1       0.057  -7.106  -1.206  0.00  0.00    +0.383 N 
ATOM     13  H   UNL     1       0.047  -7.001  -2.227  0.00  0.00    -0.081 HD
ENDROOT
BRANCH   1  14
ATOM     14  C   UNL     1      -1.340  -0.784   0.013  0.00  0.00    +0.238 C 
BRANCH  14  15
ATOM     15  C   UNL     1      -0.059   0.011   0.034  0.00  0.00    +0.325 C 
ATOM     16  O   UNL     1       1.006  -0.560   0.039  0.00  0.00    -0.249 OA
BRANCH  15  18
ATOM     17  C   UNL     1       1.170   2.052   0.067  0.00  0.00    +0.280 C 
ATOM     18  O   UNL     1      -0.102   1.352   0.048  0.00  0.00    -0.467 OA
ENDBRANCH  15  18
ENDBRANCH  14  15
ENDBRANCH   1  14
BRANCH  12  19
ATOM     19  C   UNL     1       0.360  -8.512  -0.870  0.00  0.00    -0.025 C 
BRANCH  19  20
ATOM     20  C   UNL     1      -0.584  -9.406  -1.632  0.00  0.00    +0.000 A 
ATOM     21  C   UNL     1      -1.726  -9.916  -1.143  0.00  0.00    +0.029 A 
ATOM     22  C   UNL     1      -2.327 -10.718  -2.211  0.00  0.00    -0.000 A 
ATOM     23  C   UNL     1      -3.494 -11.478  -2.313  0.00  0.00    +0.010 A 
ATOM     24  C   UNL     1      -3.778 -12.132  -3.479  0.00  0.00    +0.001 A 
ATOM     25  C   UNL     1      -2.915 -12.047  -4.563  0.00  0.00    +0.002 A 
ATOM     26  C   UNL     1      -1.758 -11.303  -4.483  0.00  0.00    +0.026 A 
ATOM     27  C   UNL     1      -1.450 -10.629  -3.306  0.00  0.00    +0.047 A 
ATOM     28  N   UNL     1      -0.400  -9.825  -2.921  0.00  0.00    -0.360 N 
ATOM     29  H   UNL     1       0.356  -9.590  -3.481  0.00  0.00    +0.166 HD
ENDBRANCH  19  20
ENDBRANCH  12  19
BRANCH   9  30
ATOM     30  C   UNL     1      -0.369  -5.330   1.779  0.00  0.00    +0.115 C 
BRANCH  30  31
ATOM     31  C   UNL     1       0.916  -5.058   2.564  0.00  0.00    +0.054 C 
BRANCH  31  32
ATOM     32  C   UNL     1       1.211  -6.229   3.465  0.00  0.00    -0.046 A 
ATOM     33  C   UNL     1       0.710  -6.254   4.753  0.00  0.00    +0.004 A 
ATOM     34  C   UNL     1       0.977  -7.331   5.578  0.00  0.00    +0.000 A 
ATOM     35  C   UNL     1       1.754  -8.378   5.118  0.00  0.00    +0.000 A 
ATOM     36  C   UNL     1       2.260  -8.351   3.832  0.00  0.00    +0.000 A 
ATOM     37  C   UNL     1       1.988  -7.276   3.005  0.00  0.00    +0.004 A 
ENDBRANCH  31  32
ENDBRANCH  30  31
ENDBRANCH   9  30
TORSDOF 8
