REMARK  Name = ZINC39671992
REMARK  6 active torsions:
REMARK  status: ('A' for Active; 'I' for Inactive)
REMARK    1  A    between atoms: C_6  and  C_10
REMARK    2  A    between atoms: C_10  and  N_11
REMARK    3  A    between atoms: C_12  and  C_14
REMARK    4  A    between atoms: C_25  and  C_27
REMARK    5  A    between atoms: C_27  and  O_28
REMARK    6  A    between atoms: O_28  and  C_29
REMARK                            x       y       z     vdW  Elec       q    Type
REMARK                         _______ _______ _______ _____ _____    ______ ____
ROOT
ATOM      1  C   UNL     1       4.615  -5.543   2.959  0.00  0.00    +0.100 C 
ATOM      2  C   UNL     1       5.558  -4.616   3.758  0.00  0.00    +0.121 C 
ATOM      3  N   UNL     1       6.341  -5.532   4.621  0.00  0.00    -0.297 N 
ATOM      4  C   UNL     1       6.617  -6.705   3.759  0.00  0.00    +0.115 C 
ATOM      5  C   UNL     1       5.314  -6.913   2.961  0.00  0.00    -0.004 C 
ATOM      6  C   UNL     1       5.633  -7.346   1.534  0.00  0.00    -0.010 C 
ATOM      7  C   UNL     1       6.274  -8.736   1.557  0.00  0.00    -0.082 C 
ATOM      8  N   UNL     1       5.353  -9.691   2.184  0.00  0.00    +0.379 N 
ATOM      9  C   UNL     1       5.124  -9.319   3.586  0.00  0.00    -0.082 C 
ATOM     10  C   UNL     1       4.434  -7.954   3.648  0.00  0.00    -0.010 C 
ATOM     11  C   UNL     1       6.717  -5.340   5.901  0.00  0.00    +0.253 C 
ATOM     12  O   UNL     1       7.361  -6.191   6.478  0.00  0.00    -0.272 OA
ATOM     13  H   UNL     1       4.474  -9.684   1.688  0.00  0.00    -0.086 HD
ATOM     14  H   UNL     1       5.751 -10.617   2.144  0.00  0.00    -0.086 HD
ENDROOT
BRANCH   1  16
ATOM     15  N   UNL     1       3.318  -5.290   0.868  0.00  0.00    -0.309 N 
ATOM     16  C   UNL     1       4.454  -5.038   1.549  0.00  0.00    +0.219 C 
ATOM     17  O   UNL     1       5.347  -4.405   1.025  0.00  0.00    -0.275 OA
ATOM     18  H   UNL     1       2.604  -5.796   1.287  0.00  0.00    +0.149 HD
BRANCH  15  19
ATOM     19  C   UNL     1       3.162  -4.799  -0.503  0.00  0.00    +0.161 C 
BRANCH  19  25
ATOM     20  C   UNL     1      -1.870  -7.106  -2.807  0.00  0.00    +0.005 A 
ATOM     21  C   UNL     1      -2.405  -5.864  -2.426  0.00  0.00    +0.018 A 
ATOM     22  C   UNL     1      -1.623  -4.940  -1.829  0.00  0.00    +0.092 A 
ATOM     23  N   UNL     1      -0.304  -5.197  -1.588  0.00  0.00    -0.306 N 
ATOM     24  C   UNL     1       0.693  -4.457  -1.012  0.00  0.00    +0.117 A 
ATOM     25  C   UNL     1       1.813  -5.212  -1.034  0.00  0.00    +0.077 A 
ATOM     26  N   UNL     1       1.526  -6.385  -1.603  0.00  0.00    -0.231 NA
ATOM     27  C   UNL     1       0.246  -6.400  -1.948  0.00  0.00    +0.138 A 
ATOM     28  C   UNL     1      -0.558  -7.375  -2.572  0.00  0.00    +0.047 A 
ENDBRANCH  19  25
ENDBRANCH  15  19
ENDBRANCH   1  16
BRANCH  11  29
ATOM     29  C   UNL     1       6.337  -4.070   6.617  0.00  0.00    +0.324 C 
BRANCH  29  30
ATOM     30  O   UNL     1       6.847  -4.103   7.951  0.00  0.00    -0.483 OA
BRANCH  30  31
ATOM     31  C   UNL     1       6.590  -3.025   8.737  0.00  0.00    +0.123 A 
ATOM     32  C   UNL     1       5.857  -1.958   8.236  0.00  0.00    +0.046 A 
ATOM     33  C   UNL     1       5.597  -0.863   9.037  0.00  0.00    +0.005 A 
ATOM     34  C   UNL     1       6.066  -0.829  10.337  0.00  0.00    +0.020 A 
ATOM     35  C   UNL     1       6.797  -1.890  10.839  0.00  0.00    +0.044 A 
ATOM     36  C   UNL     1       7.056  -2.991  10.043  0.00  0.00    +0.065 A 
ATOM     37 CL   UNL     1       7.385  -1.843  12.472  0.00  0.00    -0.083 Cl
ENDBRANCH  30  31
ENDBRANCH  29  30
ENDBRANCH  11  29
TORSDOF 6
