REMARK  Name = ZINC36490389
REMARK  15 active torsions:
REMARK  status: ('A' for Active; 'I' for Inactive)
REMARK    1  A    between atoms: C_1  and  C_2
REMARK    2  A    between atoms: C_2  and  C_3
REMARK    3  A    between atoms: C_2  and  C_4
REMARK    4  A    between atoms: C_2  and  C_5
REMARK    5  A    between atoms: C_5  and  C_6
REMARK    6  A    between atoms: C_6  and  C_7
REMARK    7  A    between atoms: C_6  and  C_8
REMARK    8  A    between atoms: C_6  and  N_9
REMARK    9  A    between atoms: C_10  and  C_12
REMARK   10  A    between atoms: C_12  and  C_14
REMARK   11  A    between atoms: C_12  and  N_20
REMARK   12  A    between atoms: N_20  and  C_21
REMARK   13  A    between atoms: C_27  and  C_29
REMARK   14  A    between atoms: C_29  and  N_30
REMARK   15  A    between atoms: C_31  and  C_33
REMARK                            x       y       z     vdW  Elec       q    Type
REMARK                         _______ _______ _______ _____ _____    ______ ____
ROOT
ATOM      1  N   UNL     1       5.167  -1.267  -3.547  0.00  0.00    -0.285 N 
ATOM      2  C   UNL     1       5.702  -2.352  -4.141  0.00  0.00    +0.234 C 
ATOM      3  O   UNL     1       4.979  -3.212  -4.599  0.00  0.00    -0.274 OA
ENDROOT
BRANCH   1   4
ATOM      4  C   UNL     1       6.040  -0.248  -2.960  0.00  0.00    +0.077 C 
ATOM      5  C   UNL     1       6.729  -0.819  -1.719  0.00  0.00    +0.022 C 
ATOM      6  C   UNL     1       7.640   0.245  -1.106  0.00  0.00    +0.002 C 
ATOM      7  C   UNL     1       8.698   0.662  -2.130  0.00  0.00    +0.000 C 
ATOM      8  C   UNL     1       8.010   1.233  -3.371  0.00  0.00    +0.002 C 
ATOM      9  C   UNL     1       7.098   0.169  -3.984  0.00  0.00    +0.022 C 
ENDBRANCH   1   4
BRANCH   1  10
ATOM     10  C   UNL     1       3.712  -1.107  -3.489  0.00  0.00    +0.165 C 
BRANCH  10  11
ATOM     11  C   UNL     1       3.304   0.139  -4.278  0.00  0.00    +0.018 C 
ATOM     12  C   UNL     1       1.794   0.353  -4.148  0.00  0.00    +0.006 C 
ATOM     13  C   UNL     1       1.387   1.599  -4.936  0.00  0.00    +0.000 C 
ATOM     14  C   UNL     1       1.750   1.411  -6.411  0.00  0.00    +0.000 C 
ATOM     15  C   UNL     1       3.260   1.197  -6.540  0.00  0.00    +0.000 C 
ATOM     16  C   UNL     1       3.667  -0.049  -5.752  0.00  0.00    +0.006 C 
ENDBRANCH  10  11
BRANCH  10  18
ATOM     17  N   UNL     1       1.982  -1.105  -1.721  0.00  0.00    -0.309 N 
ATOM     18  C   UNL     1       3.280  -0.957  -2.053  0.00  0.00    +0.234 C 
ATOM     19  O   UNL     1       4.100  -0.702  -1.197  0.00  0.00    -0.274 OA
ATOM     20  H   UNL     1       1.338  -1.381  -2.391  0.00  0.00    +0.149 HD
BRANCH  17  21
ATOM     21  C   UNL     1       1.544  -0.849  -0.346  0.00  0.00    +0.030 C 
ATOM     22  C   UNL     1       1.714   0.637  -0.025  0.00  0.00    +0.031 C 
ATOM     23  C   UNL     1       2.390  -1.680   0.622  0.00  0.00    +0.031 C 
BRANCH  21  24
ATOM     24  C   UNL     1       0.072  -1.238  -0.199  0.00  0.00    +0.031 C 
BRANCH  24  26
ATOM     25  C   UNL     1       0.469  -3.407   0.975  0.00  0.00    +0.010 C 
ATOM     26  C   UNL     1      -0.068  -2.758  -0.303  0.00  0.00    -0.036 C 
ATOM     27  C   UNL     1       0.732  -3.262  -1.506  0.00  0.00    +0.010 C 
ATOM     28  C   UNL     1      -1.542  -3.124  -0.480  0.00  0.00    +0.010 C 
ENDBRANCH  24  26
ENDBRANCH  21  24
ENDBRANCH  17  21
ENDBRANCH  10  18
ENDBRANCH   1  10
BRANCH   2  29
ATOM     29  C   UNL     1       7.199  -2.498  -4.235  0.00  0.00    +0.200 C 
BRANCH  29  30
ATOM     30  N   UNL     1       7.536  -3.888  -4.552  0.00  0.00    -0.303 N 
ATOM     31  C   UNL     1       8.825  -4.256  -4.686  0.00  0.00    +0.244 C 
ATOM     32  O   UNL     1       9.710  -3.434  -4.544  0.00  0.00    -0.270 OA
ATOM     33  H   UNL     1       6.830  -4.544  -4.665  0.00  0.00    +0.150 HD
BRANCH  31  34
ATOM     34  C   UNL     1       9.165  -5.659  -5.006  0.00  0.00    +0.037 A 
ATOM     35  C   UNL     1       8.152  -6.604  -5.176  0.00  0.00    +0.013 A 
ATOM     36  C   UNL     1       8.476  -7.911  -5.474  0.00  0.00    +0.001 A 
ATOM     37  C   UNL     1       9.801  -8.286  -5.606  0.00  0.00    +0.000 A 
ATOM     38  C   UNL     1      10.810  -7.354  -5.438  0.00  0.00    +0.001 A 
ATOM     39  C   UNL     1      10.500  -6.043  -5.146  0.00  0.00    +0.013 A 
ENDBRANCH  31  34
ENDBRANCH  29  30
ENDBRANCH   2  29
TORSDOF 10
