REMARK  Name = ZINC38965518
REMARK  11 active torsions:
REMARK  status: ('A' for Active; 'I' for Inactive)
REMARK    1  A    between atoms: C_1  and  C_2
REMARK    2  A    between atoms: C_2  and  C_3
REMARK    3  A    between atoms: C_3  and  O_4
REMARK    4  A    between atoms: O_4  and  C_5
REMARK    5  A    between atoms: C_5  and  C_7
REMARK    6  A    between atoms: C_10  and  N_13
REMARK    7  A    between atoms: N_13  and  C_14
REMARK    8  A    between atoms: N_17  and  S_18
REMARK    9  A    between atoms: S_18  and  C_21
REMARK   10  A    between atoms: C_24  and  O_27
REMARK   11  A    between atoms: O_27  and  C_28
REMARK                            x       y       z     vdW  Elec       q    Type
REMARK                         _______ _______ _______ _____ _____    ______ ____
ROOT
ATOM      1  C   UNL     1      -4.115  -8.900   0.098  0.00  0.00    +0.237 C 
ATOM      2  C   UNL     1      -4.134 -10.022  -0.916  0.00  0.00    +0.192 C 
ATOM      3  N   UNL     1      -3.962  -9.772  -2.180  0.00  0.00    -0.110 NA
ATOM      4  N   UNL     1      -4.330 -11.280  -0.491  0.00  0.00    -0.226 NA
ATOM      5  C   UNL     1      -4.507 -11.560   0.783  0.00  0.00    +0.089 A 
ATOM      6  C   UNL     1      -4.712 -12.901   1.196  0.00  0.00    +0.030 A 
ATOM      7  C   UNL     1      -4.894 -13.193   2.503  0.00  0.00    +0.002 A 
ATOM      8  C   UNL     1      -4.891 -12.212   3.508  0.00  0.00    +0.002 A 
ATOM      9  C   UNL     1      -4.705 -10.904   3.224  0.00  0.00    +0.027 A 
ATOM     10  C   UNL     1      -4.500 -10.503   1.825  0.00  0.00    +0.063 A 
ATOM     11  N   UNL     1      -4.316  -9.251   1.513  0.00  0.00    -0.359 N 
ATOM     12  H   UNL     1      -4.311  -8.565   2.199  0.00  0.00    +0.162 HD
ENDROOT
BRANCH   3  13
ATOM     13  S   UNL     1      -3.984 -11.009  -3.280  0.00  0.00    +0.100 S 
ATOM     14  O   UNL     1      -2.849 -11.819  -3.004  0.00  0.00    -0.146 OA
ATOM     15  O   UNL     1      -5.308 -11.528  -3.281  0.00  0.00    -0.146 OA
BRANCH  13  16
ATOM     16  C   UNL     1      -3.721 -10.298  -4.870  0.00  0.00    +0.113 A 
ATOM     17  C   UNL     1      -4.800  -9.874  -5.624  0.00  0.00    +0.032 A 
ATOM     18  C   UNL     1      -4.596  -9.317  -6.871  0.00  0.00    +0.047 A 
ATOM     19  C   UNL     1      -3.307  -9.182  -7.367  0.00  0.00    +0.120 A 
ATOM     20  C   UNL     1      -2.226  -9.607  -6.609  0.00  0.00    +0.047 A 
ATOM     21  C   UNL     1      -2.435 -10.160  -5.360  0.00  0.00    +0.032 A 
BRANCH  19  22
ATOM     22  O   UNL     1      -3.104  -8.634  -8.594  0.00  0.00    -0.495 OA
ATOM     23  C   UNL     1      -1.750  -8.526  -9.041  0.00  0.00    +0.277 C 
ENDBRANCH  19  22
ENDBRANCH  13  16
ENDBRANCH   3  13
BRANCH   1  24
ATOM     24  N   UNL     1      -2.825  -8.217  -0.015  0.00  0.00    -0.318 N 
ATOM     25  H   UNL     1      -2.001  -8.729   0.009  0.00  0.00    +0.148 HD
BRANCH  24  29
ATOM     26  C   UNL     1      -2.691  -4.084  -0.437  0.00  0.00    +0.059 A 
ATOM     27  C   UNL     1      -3.903  -4.720  -0.150  0.00  0.00    +0.017 A 
ATOM     28  C   UNL     1      -3.944  -6.084  -0.012  0.00  0.00    +0.024 A 
ATOM     29  C   UNL     1      -2.780  -6.835  -0.157  0.00  0.00    +0.029 A 
ATOM     30  C   UNL     1      -1.572  -6.204  -0.442  0.00  0.00    +0.024 A 
ATOM     31  C   UNL     1      -1.525  -4.841  -0.587  0.00  0.00    +0.017 A 
BRANCH  26  32
ATOM     32  C   UNL     1      -2.644  -2.618  -0.587  0.00  0.00    +0.339 C 
ATOM     33  O   UNL     1      -1.591  -2.067  -0.841  0.00  0.00    -0.245 OA
BRANCH  32  34
ATOM     34  O   UNL     1      -3.768  -1.889  -0.441  0.00  0.00    -0.461 OA
BRANCH  34  35
ATOM     35  C   UNL     1      -3.649  -0.474  -0.600  0.00  0.00    +0.232 C 
BRANCH  35  37
ATOM     36  C   UNL     1      -4.891   1.694  -0.570  0.00  0.00    +0.007 C 
ATOM     37  C   UNL     1      -5.018   0.178  -0.401  0.00  0.00    +0.038 C 
ENDBRANCH  35  37
ENDBRANCH  34  35
ENDBRANCH  32  34
ENDBRANCH  26  32
ENDBRANCH  24  29
ENDBRANCH   1  24
TORSDOF 9
