REMARK  Name = ZINC13216344
REMARK  11 active torsions:
REMARK  status: ('A' for Active; 'I' for Inactive)
REMARK    1  A    between atoms: C_1  and  C_2
REMARK    2  A    between atoms: C_2  and  O_3
REMARK    3  A    between atoms: O_3  and  C_4
REMARK    4  A    between atoms: C_9  and  C_10
REMARK    5  A    between atoms: C_12  and  C_28
REMARK    6  A    between atoms: N_16  and  C_17
REMARK    7  A    between atoms: C_19  and  C_24
REMARK    8  A    between atoms: C_22  and  C_23
REMARK    9  A    between atoms: C_28  and  C_30
REMARK   10  A    between atoms: C_33  and  O_36
REMARK   11  A    between atoms: O_36  and  C_37
REMARK                            x       y       z     vdW  Elec       q    Type
REMARK                         _______ _______ _______ _____ _____    ______ ____
ROOT
ATOM      1  C   UNL     1      -3.848  -1.424   0.051  0.00  0.00    +0.153 C 
ATOM      2  C   UNL     1      -4.212  -1.025   1.462  0.00  0.00    +0.077 C 
ATOM      3  C   UNL     1      -5.425  -1.567   1.721  0.00  0.00    +0.250 C 
ATOM      4  C   UNL     1      -5.885  -2.315   0.533  0.00  0.00    +0.292 C 
ATOM      5  O   UNL     1      -6.939  -2.914   0.452  0.00  0.00    -0.266 OA
ATOM      6  N   UNL     1      -4.966  -2.234  -0.448  0.00  0.00    -0.253 N 
ATOM      7  O   UNL     1      -6.107  -1.444   2.883  0.00  0.00    -0.282 OA
ENDROOT
BRANCH   6   8
ATOM      8  C   UNL     1      -5.059  -2.817  -1.715  0.00  0.00    +0.041 A 
ATOM      9  C   UNL     1      -4.659  -4.131  -1.904  0.00  0.00    +0.039 A 
ATOM     10  C   UNL     1      -4.754  -4.708  -3.172  0.00  0.00    +0.065 A 
ATOM     11  C   UNL     1      -5.252  -3.957  -4.240  0.00  0.00    +0.015 A 
ATOM     12  C   UNL     1      -5.647  -2.650  -4.040  0.00  0.00    +0.006 A 
ATOM     13  C   UNL     1      -5.557  -2.080  -2.783  0.00  0.00    -0.029 A 
ATOM     14  C   UNL     1      -5.996  -0.654  -2.573  0.00  0.00    +0.045 C 
BRANCH  10  15
ATOM     15  C   UNL     1      -4.331  -6.106  -3.383  0.00  0.00    +0.387 C 
ATOM     16  O   UNL     1      -3.895  -6.760  -2.446  0.00  0.00    -0.241 OA
ATOM     17  O   UNL     1      -4.415  -6.609  -4.494  0.00  0.00    -0.241 OA
ENDBRANCH  10  15
ENDBRANCH   6   8
BRANCH   1  23
ATOM     18  C   UNL     1      -1.873  -2.426  -1.125  0.00  0.00    +0.126 A 
ATOM     19  C   UNL     1      -0.702  -3.172  -1.118  0.00  0.00    +0.046 A 
ATOM     20  C   UNL     1      -0.247  -3.729   0.061  0.00  0.00    +0.004 A 
ATOM     21  C   UNL     1      -0.956  -3.544   1.233  0.00  0.00    +0.001 A 
ATOM     22  C   UNL     1      -2.122  -2.802   1.229  0.00  0.00    +0.009 A 
ATOM     23  C   UNL     1      -2.579  -2.238   0.054  0.00  0.00    +0.020 A 
BRANCH  18  24
ATOM     24  O   UNL     1      -2.323  -1.877  -2.284  0.00  0.00    -0.492 OA
BRANCH  24  26
ATOM     25  C   UNL     1      -2.187  -1.404  -4.650  0.00  0.00    +0.048 C 
ATOM     26  C   UNL     1      -1.588  -2.175  -3.472  0.00  0.00    +0.225 C 
ENDBRANCH  24  26
ENDBRANCH  18  24
ENDBRANCH   1  23
BRANCH   2  27
ATOM     27  C   UNL     1      -3.406  -0.208   2.375  0.00  0.00    +0.195 C 
ATOM     28  O   UNL     1      -2.962  -0.696   3.397  0.00  0.00    -0.287 OA
BRANCH  27  29
ATOM     29  C   UNL     1      -3.133   1.207   2.054  0.00  0.00    +0.022 A 
ATOM     30  C   UNL     1      -3.740   1.804   0.945  0.00  0.00    +0.015 A 
ATOM     31  C   UNL     1      -3.483   3.123   0.649  0.00  0.00    +0.046 A 
ATOM     32  C   UNL     1      -2.621   3.862   1.451  0.00  0.00    +0.120 A 
ATOM     33  C   UNL     1      -2.015   3.273   2.554  0.00  0.00    +0.046 A 
ATOM     34  C   UNL     1      -2.272   1.955   2.861  0.00  0.00    +0.015 A 
BRANCH  32  35
ATOM     35  O   UNL     1      -2.370   5.163   1.155  0.00  0.00    -0.495 OA
ATOM     36  C   UNL     1      -1.389   5.831   1.952  0.00  0.00    +0.277 C 
ENDBRANCH  32  35
ENDBRANCH  27  29
ENDBRANCH   2  27
TORSDOF 8
