REMARK  Name = ZINC20504077
REMARK  9 active torsions:
REMARK  status: ('A' for Active; 'I' for Inactive)
REMARK    1  A    between atoms: C_1  and  O_2
REMARK    2  A    between atoms: O_2  and  C_3
REMARK    3  A    between atoms: C_3  and  C_4
REMARK    4  A    between atoms: C_4  and  N_5
REMARK    5  A    between atoms: N_5  and  C_6
REMARK    6  A    between atoms: C_9  and  C_32
REMARK    7  A    between atoms: C_12  and  C_28
REMARK    8  A    between atoms: C_28  and  O_30
REMARK    9  A    between atoms: O_30  and  C_31
REMARK                            x       y       z     vdW  Elec       q    Type
REMARK                         _______ _______ _______ _____ _____    ______ ____
ROOT
ATOM      1  C   UNL     1       5.735   4.122   1.004  0.00  0.00    -0.068 C 
ATOM      2  C   UNL     1       6.570   2.905   1.410  0.00  0.00    +0.008 C 
ATOM      3  C   UNL     1       6.345   1.772   0.405  0.00  0.00    +0.087 C 
ATOM      4  N   UNL     1       4.919   1.429   0.372  0.00  0.00    -0.274 NA
ATOM      5  C   UNL     1       4.665   0.230  -0.434  0.00  0.00    +0.172 C 
ATOM      6  C   UNL     1       3.263  -0.310  -0.119  0.00  0.00    +0.068 C 
ATOM      7  C   UNL     1       2.291   0.841  -0.178  0.00  0.00    -0.016 A 
ATOM      8  C   UNL     1       0.848   0.819  -0.259  0.00  0.00    +0.003 A 
ATOM      9  C   UNL     1      -0.086  -0.222  -0.307  0.00  0.00    +0.010 A 
ATOM     10  C   UNL     1      -1.409   0.134  -0.390  0.00  0.00    +0.001 A 
ATOM     11  C   UNL     1      -1.815   1.458  -0.415  0.00  0.00    +0.002 A 
ATOM     12  C   UNL     1      -0.914   2.508  -0.368  0.00  0.00    +0.026 A 
ATOM     13  C   UNL     1       0.437   2.177  -0.289  0.00  0.00    +0.047 A 
ATOM     14  N   UNL     1       1.565   2.945  -0.228  0.00  0.00    -0.356 N 
ATOM     15  H   UNL     1       1.484   4.042  -0.236  0.00  0.00    +0.166 HD
ATOM     16  C   UNL     1       2.670   2.141  -0.162  0.00  0.00    +0.038 A 
ATOM     17  C   UNL     1       4.113   2.571  -0.082  0.00  0.00    +0.103 C 
ATOM     18  C   UNL     1       4.260   3.720   0.917  0.00  0.00    +0.009 C 
ENDROOT
BRANCH   3  19
ATOM     19  C   UNL     1       7.144   0.564   0.821  0.00  0.00    -0.027 A 
ATOM     20  C   UNL     1       6.673  -0.265   1.821  0.00  0.00    +0.008 A 
ATOM     21  C   UNL     1       7.401  -1.376   2.201  0.00  0.00    +0.041 A 
ATOM     22  C   UNL     1       8.610  -1.654   1.587  0.00  0.00    +0.158 A 
ATOM     23  C   UNL     1       9.086  -0.820   0.587  0.00  0.00    +0.159 A 
ATOM     24  C   UNL     1       8.351   0.289   0.205  0.00  0.00    +0.046 A 
ATOM     25  F   UNL     1      10.265  -1.089  -0.014  0.00  0.00    -0.202 F 
ATOM     26  F   UNL     1       9.326  -2.737   1.962  0.00  0.00    -0.202 F 
ENDBRANCH   3  19
BRANCH   1  27
ATOM     27  N   UNL     1       5.897   5.184   2.006  0.00  0.00    +0.382 N 
ATOM     28  H   UNL     1       5.988   4.720   2.999  0.00  0.00    -0.085 HD
ATOM     29  H   UNL     1       5.006   5.829   1.982  0.00  0.00    -0.085 HD
BRANCH  27  30
ATOM     30  C   UNL     1       7.093   5.991   1.730  0.00  0.00    -0.054 C 
BRANCH  30  31
ATOM     31  C   UNL     1       7.227   7.084   2.792  0.00  0.00    +0.140 C 
BRANCH  31  33
ATOM     32  C   UNL     1       7.603   7.421   5.135  0.00  0.00    +0.193 C 
ATOM     33  O   UNL     1       7.462   6.483   4.067  0.00  0.00    -0.385 OA
ENDBRANCH  31  33
ENDBRANCH  30  31
ENDBRANCH  27  30
ENDBRANCH   1  27
BRANCH   5  34
ATOM     34  C   UNL     1       4.752   0.581  -1.897  0.00  0.00    +0.325 C 
ATOM     35  O   UNL     1       5.195   1.652  -2.236  0.00  0.00    -0.249 OA
BRANCH  34  36
ATOM     36  O   UNL     1       4.337  -0.298  -2.823  0.00  0.00    -0.467 OA
ATOM     37  C   UNL     1       4.450   0.108  -4.213  0.00  0.00    +0.280 C 
ENDBRANCH  34  36
ENDBRANCH   5  34
TORSDOF 7
