REMARK  Name = ZINC64002332
REMARK  8 active torsions:
REMARK  status: ('A' for Active; 'I' for Inactive)
REMARK    1  A    between atoms: C_1  and  C_2
REMARK    2  A    between atoms: C_6  and  C_8
REMARK    3  A    between atoms: C_10  and  C_15
REMARK    4  A    between atoms: C_15  and  C_17
REMARK    5  A    between atoms: C_19  and  C_22
REMARK    6  A    between atoms: C_22  and  N_23
REMARK    7  A    between atoms: C_24  and  C_26
REMARK    8  A    between atoms: C_26  and  C_27
REMARK                            x       y       z     vdW  Elec       q    Type
REMARK                         _______ _______ _______ _____ _____    ______ ____
ROOT
ATOM      1  C   UNL     1      -0.018   1.503   0.010  0.00  0.00    +0.044 C 
ATOM      2  C   UNL     1       0.002  -0.004   0.002  0.00  0.00    -0.049 A 
ATOM      3  C   UNL     1       0.006  -0.691  -1.200  0.00  0.00    +0.010 A 
ATOM      4  C   UNL     1       0.023  -2.069  -1.212  0.00  0.00    -0.001 A 
ATOM      5  C   UNL     1       0.031  -2.791  -0.028  0.00  0.00    +0.132 A 
ATOM      6  C   UNL     1       0.033  -2.093   1.189  0.00  0.00    +0.027 A 
ATOM      7  C   UNL     1       0.023  -0.702   1.193  0.00  0.00    +0.015 A 
ATOM      8  O   UNL     1       0.026  -4.130  -0.266  0.00  0.00    -0.486 OA
ATOM      9  C   UNL     1       0.459  -4.373  -1.615  0.00  0.00    +0.195 C 
ATOM     10  C   UNL     1       0.042  -3.076  -2.347  0.00  0.00    +0.085 C 
ENDROOT
BRANCH   6  11
ATOM     11  C   UNL     1       0.050  -2.838   2.472  0.00  0.00    +0.021 A 
ATOM     12  C   UNL     1      -1.037  -2.764   3.334  0.00  0.00    +0.022 A 
ATOM     13  C   UNL     1      -1.014  -3.469   4.540  0.00  0.00    +0.018 A 
ATOM     14  C   UNL     1       0.104  -4.244   4.872  0.00  0.00    +0.014 A 
ATOM     15  C   UNL     1       1.178  -4.312   4.011  0.00  0.00    +0.039 A 
ATOM     16  C   UNL     1       1.157  -3.620   2.812  0.00  0.00    +0.131 A 
ATOM     17  F   UNL     1       2.212  -3.696   1.972  0.00  0.00    -0.205 F 
BRANCH  13  18
ATOM     18  C   UNL     1      -2.159  -3.396   5.459  0.00  0.00    +0.160 C 
ATOM     19  O   UNL     1      -3.126  -2.723   5.170  0.00  0.00    -0.292 OA
ATOM     20  C   UNL     1      -2.132  -4.157   6.759  0.00  0.00    +0.091 C 
ENDBRANCH  13  18
ENDBRANCH   6  11
BRANCH   9  21
ATOM     21  C   UNL     1      -0.260  -5.588  -2.205  0.00  0.00    +0.149 C 
BRANCH  21  22
ATOM     22  N   UNL     1       0.063  -6.778  -1.414  0.00  0.00    -0.312 N 
ATOM     23  C   UNL     1      -0.462  -7.973  -1.750  0.00  0.00    +0.217 C 
ATOM     24  O   UNL     1      -1.200  -8.064  -2.708  0.00  0.00    -0.275 OA
ATOM     25  H   UNL     1       0.653  -6.706  -0.648  0.00  0.00    +0.149 HD
BRANCH  23  26
ATOM     26  C   UNL     1      -0.130  -9.198  -0.937  0.00  0.00    +0.129 C 
BRANCH  26  27
ATOM     27  C   UNL     1      -0.838 -10.394  -1.518  0.00  0.00    -0.033 C 
ATOM     28  C   UNL     1      -0.334 -11.290  -2.396  0.00  0.00    -0.001 A 
ATOM     29  C   UNL     1       0.975 -11.414  -3.049  0.00  0.00    +0.010 A 
ATOM     30  C   UNL     1       1.189 -12.443  -3.901  0.00  0.00    +0.001 A 
ATOM     31  C   UNL     1       0.193 -13.391  -4.176  0.00  0.00    +0.002 A 
ATOM     32  C   UNL     1      -1.034 -13.344  -3.615  0.00  0.00    +0.026 A 
ATOM     33  C   UNL     1      -1.367 -12.305  -2.703  0.00  0.00    +0.043 A 
ATOM     34  N   UNL     1      -2.468 -12.046  -2.040  0.00  0.00    -0.380 N 
ATOM     35  C   UNL     1      -2.255 -10.839  -1.232  0.00  0.00    +0.145 C 
ATOM     36  H   UNL     1      -3.286 -12.567  -2.074  0.00  0.00    +0.160 HD
ENDBRANCH  26  27
ENDBRANCH  23  26
ENDBRANCH  21  22
ENDBRANCH   9  21
TORSDOF 6
