REMARK  Name = ZINC17670275
REMARK  7 active torsions:
REMARK  status: ('A' for Active; 'I' for Inactive)
REMARK    1  A    between atoms: C_1  and  C_2
REMARK    2  A    between atoms: C_2  and  N_3
REMARK    3  A    between atoms: C_4  and  C_6
REMARK    4  A    between atoms: C_6  and  C_8
REMARK    5  A    between atoms: C_6  and  S_9
REMARK    6  A    between atoms: S_9  and  C_10
REMARK    7  A    between atoms: N_23  and  C_24
REMARK                            x       y       z     vdW  Elec       q    Type
REMARK                         _______ _______ _______ _____ _____    ______ ____
ROOT
ATOM      1  C   UNL     1      -5.186   0.551   1.344  0.00  0.00    +0.178 A 
ATOM      2  N   UNL     1      -4.971  -0.703   1.001  0.00  0.00    -0.215 NA
ATOM      3  C   UNL     1      -5.908  -1.407   0.378  0.00  0.00    +0.117 A 
ATOM      4  C   UNL     1      -7.162  -0.862   0.054  0.00  0.00    +0.076 A 
ATOM      5  C   UNL     1      -8.091  -1.760  -0.634  0.00  0.00    -0.023 A 
ATOM      6  C   UNL     1      -7.658  -3.012  -0.888  0.00  0.00    -0.004 A 
ATOM      7  S   UNL     1      -6.011  -3.070  -0.236  0.00  0.00    -0.073 S 
ATOM      8  C   UNL     1      -8.411  -4.111  -1.573  0.00  0.00    +0.043 C 
ATOM      9  C   UNL     1      -9.896  -3.725  -1.623  0.00  0.00    +0.005 C 
ATOM     10  C   UNL     1     -10.012  -2.282  -2.122  0.00  0.00    +0.005 C 
ATOM     11  C   UNL     1      -9.491  -1.319  -1.054  0.00  0.00    +0.037 C 
ATOM     12  C   UNL     1      -7.368   0.500   0.438  0.00  0.00    +0.268 A 
ATOM     13  O   UNL     1      -8.426   1.057   0.199  0.00  0.00    -0.267 OA
ATOM     14  N   UNL     1      -6.380   1.158   1.072  0.00  0.00    -0.255 N 
ENDROOT
BRANCH  14  15
ATOM     15  C   UNL     1      -6.577   2.491   1.456  0.00  0.00    +0.052 A 
ATOM     16  C   UNL     1      -7.108   2.784   2.705  0.00  0.00    +0.028 A 
ATOM     17  C   UNL     1      -7.295   4.099   3.084  0.00  0.00    +0.022 A 
ATOM     18  C   UNL     1      -6.965   5.124   2.215  0.00  0.00    +0.041 A 
ATOM     19  C   UNL     1      -6.441   4.835   0.967  0.00  0.00    +0.022 A 
ATOM     20  C   UNL     1      -6.247   3.522   0.586  0.00  0.00    +0.028 A 
ATOM     21 CL   UNL     1      -7.209   6.776   2.690  0.00  0.00    -0.084 Cl
ENDBRANCH  14  15
BRANCH   1  22
ATOM     22  S   UNL     1      -3.919   1.455   2.170  0.00  0.00    -0.075 S 
BRANCH  22  23
ATOM     23  C   UNL     1      -2.633   0.185   2.259  0.00  0.00    +0.137 C 
ATOM     24  C   UNL     1      -2.169  -0.170   0.845  0.00  0.00    +0.029 C 
BRANCH  23  26
ATOM     25  N   UNL     1      -0.580  -0.152   3.597  0.00  0.00    -0.315 N 
ATOM     26  C   UNL     1      -1.464   0.708   3.054  0.00  0.00    +0.226 C 
ATOM     27  O   UNL     1      -1.320   1.902   3.206  0.00  0.00    -0.275 OA
ATOM     28  H   UNL     1      -0.695  -1.107   3.475  0.00  0.00    +0.149 HD
BRANCH  25  30
ATOM     29  C   UNL     1       1.405  -0.818   4.861  0.00  0.00    +0.024 C 
ATOM     30  C   UNL     1       0.559   0.356   4.365  0.00  0.00    +0.101 C 
ENDBRANCH  25  30
ENDBRANCH  23  26
ENDBRANCH  22  23
ENDBRANCH   1  22
TORSDOF 5
