REMARK  Name = ZINC33851693
REMARK  5 active torsions:
REMARK  status: ('A' for Active; 'I' for Inactive)
REMARK    1  A    between atoms: C_1  and  C_2
REMARK    2  A    between atoms: C_4  and  C_16
REMARK    3  A    between atoms: C_5  and  C_15
REMARK    4  A    between atoms: N_6  and  C_7
REMARK    5  A    between atoms: C_26  and  C_28
REMARK                            x       y       z     vdW  Elec       q    Type
REMARK                         _______ _______ _______ _____ _____    ______ ____
ROOT
ATOM      1  C   UNL     1       0.041  -3.340  -1.427  0.00  0.00    +0.026 C 
ATOM      2  C   UNL     1      -0.070  -3.241  -2.799  0.00  0.00    +0.081 C 
ATOM      3  C   UNL     1      -0.178  -4.446  -3.666  0.00  0.00    +0.153 C 
ATOM      4  N   UNL     1      -0.778  -5.547  -3.295  0.00  0.00    -0.283 NA
ATOM      5  N   UNL     1       0.430  -4.284  -4.929  0.00  0.00    -0.152 N 
ATOM      6  C   UNL     1       0.584  -2.997  -5.401  0.00  0.00    +0.181 C 
ATOM      7  N   UNL     1       0.317  -1.880  -4.772  0.00  0.00    -0.152 NA
ATOM      8  C   UNL     1      -0.095  -1.928  -3.487  0.00  0.00    +0.273 C 
ATOM      9  O   UNL     1      -0.472  -0.922  -2.907  0.00  0.00    -0.268 OA
ATOM     10  S   UNL     1       1.240  -3.269  -7.026  0.00  0.00    -0.033 S 
ATOM     11  C   UNL     1       1.361  -5.050  -6.937  0.00  0.00    +0.130 C 
ATOM     12  N   UNL     1       0.878  -5.302  -5.744  0.00  0.00    -0.164 NA
ATOM     13  H   UNL     1      -0.820  -6.304  -3.899  0.00  0.00    +0.188 HD
ENDROOT
BRANCH   1  17
ATOM     14  C   UNL     1       1.804   1.155   0.058  0.00  0.00    +0.064 C 
ATOM     15  C   UNL     1       1.099  -0.176   0.001  0.00  0.00    +0.022 A 
ATOM     16  C   UNL     1       1.128  -1.027  -1.038  0.00  0.00    +0.031 A 
ATOM     17  C   UNL     1       0.307  -2.183  -0.651  0.00  0.00    -0.003 A 
ATOM     18  C   UNL     1      -0.154  -1.910   0.626  0.00  0.00    +0.028 A 
ATOM     19  N   UNL     1       0.335  -0.711   1.000  0.00  0.00    -0.316 N 
ATOM     20  C   UNL     1      -1.041  -2.802   1.456  0.00  0.00    +0.064 C 
BRANCH  19  21
ATOM     21  C   UNL     1       0.090  -0.097   2.236  0.00  0.00    +0.066 A 
ATOM     22  C   UNL     1      -1.008   0.738   2.394  0.00  0.00    +0.047 A 
ATOM     23  C   UNL     1      -1.246   1.341   3.614  0.00  0.00    +0.043 A 
ATOM     24  C   UNL     1      -0.391   1.114   4.679  0.00  0.00    +0.021 A 
ATOM     25  C   UNL     1       0.703   0.283   4.525  0.00  0.00    +0.023 A 
ATOM     26  C   UNL     1       0.943  -0.328   3.309  0.00  0.00    +0.065 A 
ATOM     27 CL   UNL     1       2.313  -1.377   3.119  0.00  0.00    -0.081 Cl
ATOM     28 CL   UNL     1      -2.619   2.385   3.811  0.00  0.00    -0.083 Cl
ENDBRANCH  19  21
ENDBRANCH   1  17
BRANCH  11  29
ATOM     29  C   UNL     1       1.876  -5.998  -7.950  0.00  0.00    +0.009 A 
ATOM     30  C   UNL     1       1.880  -7.368  -7.688  0.00  0.00    +0.010 A 
ATOM     31  C   UNL     1       2.361  -8.247  -8.637  0.00  0.00    +0.001 A 
ATOM     32  C   UNL     1       2.837  -7.772  -9.846  0.00  0.00    +0.000 A 
ATOM     33  C   UNL     1       2.836  -6.414 -10.111  0.00  0.00    +0.001 A 
ATOM     34  C   UNL     1       2.353  -5.526  -9.172  0.00  0.00    +0.010 A 
ENDBRANCH  11  29
TORSDOF 3
