REMARK  Name = ZINC12529085
REMARK  7 active torsions:
REMARK  status: ('A' for Active; 'I' for Inactive)
REMARK    1  A    between atoms: C_1  and  N_60
REMARK    2  A    between atoms: C_2  and  C_3
REMARK    3  A    between atoms: C_2  and  N_60
REMARK    4  A    between atoms: C_10  and  C_11
REMARK    5  A    between atoms: C_10  and  N_60
REMARK    6  A    between atoms: C_14  and  C_29
REMARK    7  A    between atoms: C_17  and  C_19
REMARK                            x       y       z     vdW  Elec       q    Type
REMARK                         _______ _______ _______ _____ _____    ______ ____
ROOT
ATOM      1  C   UNL     1       6.011   0.994  -0.048  0.00  0.00    +0.219 C 
ATOM      2  O   UNL     1       6.845   0.113  -0.060  0.00  0.00    -0.276 OA
ATOM      3  N   UNL     1       4.700   0.681  -0.038  0.00  0.00    -0.187 N 
ATOM      4  C   UNL     1       4.146  -0.682  -0.040  0.00  0.00    +0.137 C 
ATOM      5  C   UNL     1       2.621  -0.452  -0.018  0.00  0.00    +0.087 C 
ATOM      6  C   UNL     1       2.480   1.053  -0.015  0.00  0.00    +0.069 C 
ATOM      7  N   UNL     1       3.649   1.595  -0.023  0.00  0.00    -0.181 NA
ENDROOT
BRANCH   6   8
ATOM      8  C   UNL     1       1.202   1.787   0.000  0.00  0.00    -0.002 A 
ATOM      9  C   UNL     1      -0.013   1.076   0.008  0.00  0.00    +0.010 A 
ATOM     10  C   UNL     1      -1.202   1.730   0.017  0.00  0.00    +0.009 A 
ATOM     11  C   UNL     1      -1.232   3.136   0.030  0.00  0.00    -0.018 A 
ATOM     12  C   UNL     1      -2.451   3.834   0.045  0.00  0.00    +0.008 A 
ATOM     13  C   UNL     1      -2.449   5.196   0.053  0.00  0.00    +0.001 A 
ATOM     14  C   UNL     1      -1.254   5.912   0.046  0.00  0.00    +0.001 A 
ATOM     15  C   UNL     1      -0.053   5.271   0.031  0.00  0.00    +0.008 A 
ATOM     16  C   UNL     1      -0.015   3.865   0.022  0.00  0.00    -0.017 A 
ATOM     17  C   UNL     1       1.205   3.173   0.008  0.00  0.00    +0.018 A 
ENDBRANCH   6   8
BRANCH   4  18
ATOM     18  C   UNL     1       4.558  -1.421  -1.287  0.00  0.00    -0.025 A 
ATOM     19  C   UNL     1       4.605  -0.758  -2.499  0.00  0.00    +0.005 A 
ATOM     20  C   UNL     1       4.988  -1.434  -3.643  0.00  0.00    +0.000 A 
ATOM     21  C   UNL     1       5.315  -2.775  -3.576  0.00  0.00    +0.000 A 
ATOM     22  C   UNL     1       5.263  -3.439  -2.365  0.00  0.00    +0.000 A 
ATOM     23  C   UNL     1       4.884  -2.762  -1.220  0.00  0.00    +0.005 A 
ENDBRANCH   4  18
BRANCH   1  24
ATOM     24  C   UNL     1       6.441   2.438  -0.044  0.00  0.00    +0.021 C 
BRANCH  24  26
ATOM     25  C   UNL     1       8.473   1.976   1.189  0.00  0.00    -0.095 C 
ATOM     26  N   UNL     1       7.918   2.496  -0.078  0.00  0.00    +0.386 N 
ATOM     27  H   UNL     1       8.256   1.915  -0.854  0.00  0.00    -0.081 HD
BRANCH  26  28
ATOM     28  C   UNL     1       8.364   3.889  -0.291  0.00  0.00    -0.043 C 
BRANCH  28  29
ATOM     29  C   UNL     1       9.850   3.891  -0.542  0.00  0.00    -0.064 A 
ATOM     30  C   UNL     1      10.728   4.032   0.516  0.00  0.00    +0.003 A 
ATOM     31  C   UNL     1      12.091   4.028   0.288  0.00  0.00    +0.020 A 
ATOM     32  C   UNL     1      12.576   3.894  -1.001  0.00  0.00    +0.041 A 
ATOM     33  C   UNL     1      11.696   3.758  -2.060  0.00  0.00    +0.020 A 
ATOM     34  C   UNL     1      10.333   3.757  -1.830  0.00  0.00    +0.003 A 
ATOM     35 CL   UNL     1      14.288   3.896  -1.290  0.00  0.00    -0.084 Cl
ENDBRANCH  28  29
ENDBRANCH  26  28
ENDBRANCH  24  26
ENDBRANCH   1  24
TORSDOF 6
