REMARK  Name = ZINC08876663
REMARK  3 active torsions:
REMARK  status: ('A' for Active; 'I' for Inactive)
REMARK    1  A    between atoms: C_4  and  N_7
REMARK    2  A    between atoms: C_12  and  C_28
REMARK    3  A    between atoms: C_28  and  C_29
REMARK                            x       y       z     vdW  Elec       q    Type
REMARK                         _______ _______ _______ _____ _____    ______ ____
ROOT
ATOM      1  N   UNL     1      -1.010  -2.891   1.309  0.00  0.00    -0.210 N 
ATOM      2  C   UNL     1      -2.238  -2.425   1.052  0.00  0.00    +0.228 C 
ATOM      3  O   UNL     1      -3.241  -3.101   0.974  0.00  0.00    -0.275 OA
ATOM      4  C   UNL     1      -2.179  -0.925   0.877  0.00  0.00    +0.074 C 
ATOM      5  C   UNL     1      -2.477  -0.571  -0.595  0.00  0.00    -0.053 C 
ATOM      6  C   UNL     1      -0.209  -0.094  -0.303  0.00  0.00    +0.050 C 
ATOM      7  C   UNL     1      -0.671  -0.600   1.069  0.00  0.00    +0.088 C 
ATOM      8  C   UNL     1      -0.056  -1.954   1.343  0.00  0.00    +0.229 C 
ATOM      9  O   UNL     1       1.119  -2.158   1.561  0.00  0.00    -0.275 OA
ATOM     10  C   UNL     1      -0.184   1.408  -0.357  0.00  0.00    -0.028 A 
ATOM     11  C   UNL     1      -1.143   2.378  -0.170  0.00  0.00    +0.004 A 
ATOM     12  C   UNL     1      -0.807   3.715  -0.294  0.00  0.00    +0.000 A 
ATOM     13  C   UNL     1       0.494   4.073  -0.594  0.00  0.00    +0.002 A 
ATOM     14  C   UNL     1       1.459   3.104  -0.776  0.00  0.00    +0.023 A 
ATOM     15  C   UNL     1       1.129   1.756  -0.659  0.00  0.00    +0.036 A 
ATOM     16  N   UNL     1       1.913   0.609  -0.796  0.00  0.00    -0.286 N 
ATOM     17  C   UNL     1       1.202  -0.519  -0.602  0.00  0.00    +0.211 C 
ATOM     18  O   UNL     1       1.619  -1.657  -0.657  0.00  0.00    -0.277 OA
ATOM     19  H   UNL     1       2.860   0.622  -1.008  0.00  0.00    +0.155 HD
ATOM     20  N   UNL     1      -1.167  -0.640  -1.248  0.00  0.00    +0.394 N 
ATOM     21  H   UNL     1      -1.171  -0.084  -2.111  0.00  0.00    -0.083 HD
ATOM     22  H   UNL     1      -0.932  -1.615  -1.469  0.00  0.00    -0.083 HD
ENDROOT
BRANCH   1  26
ATOM     23  C   UNL     1      -0.221  -6.934   1.949  0.00  0.00    +0.000 A 
ATOM     24  C   UNL     1      -0.626  -6.500   0.701  0.00  0.00    +0.002 A 
ATOM     25  C   UNL     1      -0.889  -5.161   0.485  0.00  0.00    +0.024 A 
ATOM     26  C   UNL     1      -0.745  -4.251   1.524  0.00  0.00    +0.044 A 
ATOM     27  C   UNL     1      -0.333  -4.690   2.775  0.00  0.00    +0.024 A 
ATOM     28  C   UNL     1      -0.077  -6.031   2.986  0.00  0.00    +0.002 A 
ENDBRANCH   1  26
BRANCH   5  29
ATOM     29  C   UNL     1      -3.455  -1.580  -1.200  0.00  0.00    +0.022 C 
BRANCH  29  30
ATOM     30  C   UNL     1      -3.768  -1.188  -2.621  0.00  0.00    -0.024 A 
ATOM     31  C   UNL     1      -4.817  -0.459  -3.035  0.00  0.00    +0.087 A 
ATOM     32  N   UNL     1      -4.769  -0.305  -4.394  0.00  0.00    -0.360 N 
ATOM     33  H   UNL     1      -5.420   0.183  -4.923  0.00  0.00    +0.165 HD
ATOM     34  C   UNL     1      -3.661  -0.947  -4.900  0.00  0.00    +0.047 A 
ATOM     35  C   UNL     1      -2.982  -1.523  -3.811  0.00  0.00    +0.003 A 
ATOM     36  C   UNL     1      -1.804  -2.240  -4.025  0.00  0.00    +0.010 A 
ATOM     37  C   UNL     1      -1.314  -2.377  -5.293  0.00  0.00    +0.001 A 
ATOM     38  C   UNL     1      -1.978  -1.808  -6.371  0.00  0.00    +0.002 A 
ATOM     39  C   UNL     1      -3.147  -1.102  -6.183  0.00  0.00    +0.026 A 
ENDBRANCH  29  30
ENDBRANCH   5  29
TORSDOF 3
