REMARK  Name = ZINC37906163
REMARK  7 active torsions:
REMARK  status: ('A' for Active; 'I' for Inactive)
REMARK    1  A    between atoms: C_1  and  C_2
REMARK    2  A    between atoms: C_2  and  C_3
REMARK    3  A    between atoms: C_2  and  C_4
REMARK    4  A    between atoms: C_2  and  C_5
REMARK    5  A    between atoms: C_7  and  C_10
REMARK    6  A    between atoms: C_10  and  N_11
REMARK    7  A    between atoms: C_20  and  N_21
REMARK                            x       y       z     vdW  Elec       q    Type
REMARK                         _______ _______ _______ _____ _____    ______ ____
ROOT
ATOM      1  N   UNL     1       4.423  -1.858  -2.975  0.00  0.00    -0.322 N 
ATOM      2  C   UNL     1       5.302  -1.697  -1.809  0.00  0.00    +0.106 C 
ATOM      3  C   UNL     1       6.668  -2.297  -2.165  0.00  0.00    +0.024 C 
ATOM      4  C   UNL     1       6.497  -3.794  -2.422  0.00  0.00    +0.040 C 
ATOM      5  C   UNL     1       5.387  -4.036  -3.410  0.00  0.00    -0.006 A 
ATOM      6  C   UNL     1       4.405  -3.087  -3.644  0.00  0.00    +0.035 A 
ATOM      7  C   UNL     1       3.387  -3.345  -4.557  0.00  0.00    +0.023 A 
ATOM      8  C   UNL     1       3.349  -4.549  -5.232  0.00  0.00    +0.004 A 
ATOM      9  C   UNL     1       4.323  -5.501  -5.002  0.00  0.00    +0.023 A 
ATOM     10  C   UNL     1       5.349  -5.245  -4.097  0.00  0.00    +0.030 A 
ENDROOT
BRANCH  10  11
ATOM     11  N   UNL     1       6.333  -6.209  -3.866  0.00  0.00    -0.358 N 
ATOM     12  H   UNL     1       7.042  -6.035  -3.227  0.00  0.00    +0.142 HD
ATOM     13  H   UNL     1       6.308  -7.053  -4.344  0.00  0.00    +0.142 HD
ENDBRANCH  10  11
BRANCH   1  14
ATOM     14  C   UNL     1       3.576  -0.751  -3.427  0.00  0.00    +0.184 C 
BRANCH  14  17
ATOM     15  C   UNL     1       0.707  -0.490  -1.238  0.00  0.00    +0.233 A 
ATOM     16  N   UNL     1       1.943  -0.232  -1.565  0.00  0.00    -0.194 NA
ATOM     17  C   UNL     1       2.243  -0.821  -2.728  0.00  0.00    +0.189 A 
ATOM     18  N   UNL     1       1.196  -1.464  -3.157  0.00  0.00    -0.060 NA
ATOM     19  O   UNL     1       0.175  -1.266  -2.191  0.00  0.00    -0.337 OA
BRANCH  15  21
ATOM     20  C   UNL     1      -0.019   1.526   0.010  0.00  0.00    +0.020 C 
ATOM     21  C   UNL     1       0.002  -0.004   0.002  0.00  0.00    +0.041 C 
ATOM     22  C   UNL     1       0.742  -0.511   1.242  0.00  0.00    +0.020 C 
ATOM     23  C   UNL     1      -1.433  -0.534   0.013  0.00  0.00    +0.020 C 
ENDBRANCH  15  21
ENDBRANCH  14  17
ENDBRANCH   1  14
TORSDOF 4
