REMARK  Name = ZINC35140781
REMARK  13 active torsions:
REMARK  status: ('A' for Active; 'I' for Inactive)
REMARK    1  A    between atoms: C_1  and  C_2
REMARK    2  A    between atoms: C_2  and  C_3
REMARK    3  A    between atoms: C_3  and  C_4
REMARK    4  A    between atoms: C_4  and  N_5
REMARK    5  A    between atoms: N_5  and  C_6
REMARK    6  A    between atoms: C_6  and  C_7
REMARK    7  A    between atoms: N_9  and  C_10
REMARK    8  A    between atoms: C_11  and  C_24
REMARK    9  A    between atoms: C_12  and  C_23
REMARK   10  A    between atoms: N_14  and  C_15
REMARK   11  A    between atoms: C_18  and  O_21
REMARK   12  A    between atoms: O_21  and  C_22
REMARK   13  A    between atoms: C_30  and  C_32
REMARK                            x       y       z     vdW  Elec       q    Type
REMARK                         _______ _______ _______ _____ _____    ______ ____
ROOT
ATOM      1  C   UNL     1       4.816  -5.444  -1.047  0.00  0.00    +0.137 A 
ATOM      2  C   UNL     1       6.075  -5.883  -0.677  0.00  0.00    +0.045 A 
ATOM      3  C   UNL     1       5.916  -7.138  -0.058  0.00  0.00    +0.070 A 
ATOM      4  N   UNL     1       4.644  -7.438  -0.053  0.00  0.00    -0.169 NA
ATOM      5  N   UNL     1       3.929  -6.398  -0.658  0.00  0.00    -0.218 N 
ATOM      6  C   UNL     1       7.024  -7.990   0.504  0.00  0.00    +0.068 C 
ENDROOT
BRANCH   5   7
ATOM      7  C   UNL     1       2.538  -6.349  -0.835  0.00  0.00    +0.068 A 
ATOM      8  C   UNL     1       1.873  -5.132  -0.781  0.00  0.00    +0.031 A 
ATOM      9  C   UNL     1       0.504  -5.085  -0.955  0.00  0.00    +0.048 A 
ATOM     10  C   UNL     1      -0.206  -6.254  -1.184  0.00  0.00    +0.120 A 
ATOM     11  C   UNL     1       0.457  -7.471  -1.237  0.00  0.00    +0.048 A 
ATOM     12  C   UNL     1       1.827  -7.519  -1.069  0.00  0.00    +0.031 A 
BRANCH  10  13
ATOM     13  O   UNL     1      -1.554  -6.207  -1.355  0.00  0.00    -0.495 OA
ATOM     14  C   UNL     1      -2.223  -7.449  -1.586  0.00  0.00    +0.277 C 
ENDBRANCH  10  13
ENDBRANCH   5   7
BRANCH   2  15
ATOM     15  C   UNL     1       7.355  -5.166  -0.893  0.00  0.00    -0.013 A 
ATOM     16  C   UNL     1       7.816  -4.933  -2.188  0.00  0.00    +0.008 A 
ATOM     17  C   UNL     1       9.008  -4.265  -2.383  0.00  0.00    +0.001 A 
ATOM     18  C   UNL     1       9.744  -3.826  -1.297  0.00  0.00    +0.000 A 
ATOM     19  C   UNL     1       9.291  -4.055  -0.010  0.00  0.00    +0.001 A 
ATOM     20  C   UNL     1       8.098  -4.717   0.197  0.00  0.00    +0.008 A 
ENDBRANCH   2  15
BRANCH   1  23
ATOM     21  C   UNL     1       3.588  -4.224  -2.669  0.00  0.00    +0.236 C 
ATOM     22  O   UNL     1       3.067  -5.256  -3.035  0.00  0.00    -0.274 OA
ATOM     23  N   UNL     1       4.515  -4.248  -1.690  0.00  0.00    -0.268 N 
ATOM     24  H   UNL     1       4.971  -3.431  -1.435  0.00  0.00    +0.156 HD
BRANCH  21  25
ATOM     25  C   UNL     1       3.201  -2.915  -3.308  0.00  0.00    +0.204 C 
BRANCH  25  26
ATOM     26  N   UNL     1       2.184  -3.156  -4.335  0.00  0.00    -0.288 N 
ATOM     27  C   UNL     1       2.557  -3.485  -5.588  0.00  0.00    +0.254 C 
ATOM     28  O   UNL     1       1.719  -3.588  -6.465  0.00  0.00    -0.269 OA
BRANCH  27  29
ATOM     29  C   UNL     1       3.970  -3.721  -5.894  0.00  0.00    +0.074 A 
ATOM     30  C   UNL     1       4.574  -3.936  -7.124  0.00  0.00    +0.021 A 
ATOM     31  C   UNL     1       5.935  -4.129  -7.095  0.00  0.00    +0.008 A 
ATOM     32  C   UNL     1       6.580  -4.096  -5.903  0.00  0.00    +0.046 A 
ATOM     33  S   UNL     1       5.363  -3.796  -4.784  0.00  0.00    -0.092 S 
ENDBRANCH  27  29
BRANCH  26  34
ATOM     34  C   UNL     1       0.763  -3.038  -4.000  0.00  0.00    +0.108 C 
BRANCH  34  35
ATOM     35  C   UNL     1       0.328  -1.576  -4.129  0.00  0.00    +0.019 C 
BRANCH  35  37
ATOM     36  C   UNL     1      -1.591   0.008  -3.908  0.00  0.00    +0.004 C 
ATOM     37  C   UNL     1      -1.156  -1.453  -3.780  0.00  0.00    -0.002 C 
ENDBRANCH  35  37
ENDBRANCH  34  35
ENDBRANCH  26  34
ENDBRANCH  25  26
ENDBRANCH  21  25
ENDBRANCH   1  23
TORSDOF 10
