REMARK  Name = ZINC36895509
REMARK  4 active torsions:
REMARK  status: ('A' for Active; 'I' for Inactive)
REMARK    1  A    between atoms: C_1  and  C_2
REMARK    2  A    between atoms: C_5  and  C_7
REMARK    3  A    between atoms: C_10  and  C_12
REMARK    4  A    between atoms: C_15  and  N_18
REMARK                            x       y       z     vdW  Elec       q    Type
REMARK                         _______ _______ _______ _____ _____    ______ ____
ROOT
ATOM      1  C   UNL     1       1.434  -1.989   0.869  0.00  0.00    +0.109 A 
ATOM      2  C   UNL     1       2.749  -2.206   1.070  0.00  0.00    +0.046 A 
ATOM      3  C   UNL     1       3.018  -3.526   0.659  0.00  0.00    +0.053 A 
ATOM      4  C   UNL     1       1.839  -4.048   0.225  0.00  0.00    +0.172 A 
ATOM      5  O   UNL     1       0.886  -3.105   0.363  0.00  0.00    -0.456 OA
ENDROOT
BRANCH   4   6
ATOM      6  C   UNL     1       1.637  -5.412  -0.302  0.00  0.00    +0.196 A 
ATOM      7  N   UNL     1       0.423  -5.781  -0.696  0.00  0.00    -0.231 NA
ATOM      8  C   UNL     1       0.206  -6.994  -1.172  0.00  0.00    +0.137 A 
ATOM      9  C   UNL     1       1.270  -7.889  -1.259  0.00  0.00    +0.061 A 
ATOM     10  C   UNL     1       2.530  -7.467  -0.836  0.00  0.00    +0.137 A 
ATOM     11  N   UNL     1       2.675  -6.238  -0.375  0.00  0.00    -0.231 NA
BRANCH   9  12
ATOM     12  N   UNL     1       1.079  -9.181  -1.757  0.00  0.00    -0.356 N 
ATOM     13  H   UNL     1       0.198  -9.463  -2.048  0.00  0.00    +0.142 HD
ATOM     14  H   UNL     1       1.828  -9.795  -1.812  0.00  0.00    +0.142 HD
ENDBRANCH   9  12
ENDBRANCH   4   6
BRANCH   1  18
ATOM     15  C   UNL     1      -0.019   1.526   0.010  0.00  0.00    +0.008 C 
ATOM     16  C   UNL     1       0.002  -0.004   0.002  0.00  0.00    -0.003 C 
ATOM     17  C   UNL     1      -0.828  -0.728   1.065  0.00  0.00    +0.015 C 
ATOM     18  C   UNL     1       0.700  -0.708   1.168  0.00  0.00    +0.058 C 
ENDBRANCH   1  18
TORSDOF 3
