REMARK  Name = ZINC67304522
REMARK  7 active torsions:
REMARK  status: ('A' for Active; 'I' for Inactive)
REMARK    1  A    between atoms: C_1  and  C_2
REMARK    2  A    between atoms: C_2  and  C_3
REMARK    3  A    between atoms: C_2  and  C_4
REMARK    4  A    between atoms: C_4  and  C_6
REMARK    5  A    between atoms: C_4  and  N_22
REMARK    6  A    between atoms: C_6  and  N_7
REMARK    7  A    between atoms: C_8  and  C_10
REMARK                            x       y       z     vdW  Elec       q    Type
REMARK                         _______ _______ _______ _____ _____    ______ ____
ROOT
ATOM      1  N   UNL     1      -2.554  -2.691  -0.017  0.00  0.00    -0.317 N 
ATOM      2  C   UNL     1      -2.663  -4.031   0.083  0.00  0.00    +0.216 C 
ATOM      3  O   UNL     1      -1.684  -4.702   0.334  0.00  0.00    -0.276 OA
ATOM      4  H   UNL     1      -3.337  -2.155  -0.218  0.00  0.00    +0.149 HD
ENDROOT
BRANCH   2   5
ATOM      5  C   UNL     1      -4.000  -4.695  -0.119  0.00  0.00    +0.075 C 
ATOM      6  C   UNL     1      -4.994  -4.166   0.916  0.00  0.00    +0.015 C 
ATOM      7  C   UNL     1      -6.356  -4.832   0.702  0.00  0.00    +0.036 C 
ATOM      8  C   UNL     1      -6.212  -6.344   0.838  0.00  0.00    +0.112 C 
ATOM      9  C   UNL     1      -5.205  -6.884  -0.171  0.00  0.00    +0.036 C 
ATOM     10  C   UNL     1      -3.848  -6.209   0.046  0.00  0.00    +0.015 C 
ATOM     11  C   UNL     1      -5.798  -6.710   2.244  0.00  0.00    +0.244 C 
ATOM     12  O   UNL     1      -4.781  -6.385   2.819  0.00  0.00    -0.273 OA
ATOM     13  N   UNL     1      -6.798  -7.477   2.726  0.00  0.00    -0.238 N 
ATOM     14  C   UNL     1      -7.773  -7.640   1.824  0.00  0.00    +0.307 C 
ATOM     15  O   UNL     1      -8.780  -8.290   2.026  0.00  0.00    -0.252 OA
ATOM     16  N   UNL     1      -7.514  -7.001   0.666  0.00  0.00    -0.285 N 
ATOM     17  H   UNL     1      -6.810  -7.862   3.616  0.00  0.00    +0.159 HD
ATOM     18  H   UNL     1      -8.076  -6.980  -0.124  0.00  0.00    +0.151 HD
ENDBRANCH   2   5
BRANCH   1  19
ATOM     19  C   UNL     1      -1.254  -2.045   0.180  0.00  0.00    +0.089 C 
BRANCH  19  20
ATOM     20  C   UNL     1      -1.369  -0.556  -0.153  0.00  0.00    -0.049 C 
BRANCH  20  21
ATOM     21  N   UNL     1      -1.641  -0.395  -1.587  0.00  0.00    +0.383 N 
ATOM     22  C   UNL     1      -3.014  -0.863  -1.863  0.00  0.00    -0.078 C 
ATOM     23  C   UNL     1      -3.506  -0.175  -3.112  0.00  0.00    -0.019 C 
ATOM     24  C   UNL     1      -3.297  -1.053  -4.359  0.00  0.00    -0.002 C 
ATOM     25  C   UNL     1      -1.935  -1.775  -4.329  0.00  0.00    -0.002 C 
ATOM     26  C   UNL     1      -0.825  -0.886  -3.831  0.00  0.00    -0.019 C 
ATOM     27  C   UNL     1      -0.665  -1.084  -2.309  0.00  0.00    -0.078 C 
ATOM     28  H   UNL     1      -1.583   0.586  -1.819  0.00  0.00    -0.081 HD
ENDBRANCH  20  21
BRANCH  20  30
ATOM     29  C   UNL     1      -0.134   1.614  -0.230  0.00  0.00    +0.005 C 
ATOM     30  C   UNL     1      -0.056   0.147   0.199  0.00  0.00    -0.029 C 
ATOM     31  C   UNL     1       0.175   0.069   1.709  0.00  0.00    +0.005 C 
ENDBRANCH  20  30
ENDBRANCH  19  20
ENDBRANCH   1  19
TORSDOF 5
