REMARK  Name = ZINC39992321
REMARK  11 active torsions:
REMARK  status: ('A' for Active; 'I' for Inactive)
REMARK    1  A    between atoms: C_1  and  C_2
REMARK    2  A    between atoms: C_2  and  C_3
REMARK    3  A    between atoms: C_3  and  N_4
REMARK    4  A    between atoms: C_5  and  C_7
REMARK    5  A    between atoms: C_11  and  N_12
REMARK    6  A    between atoms: C_13  and  C_15
REMARK    7  A    between atoms: C_15  and  C_27
REMARK    8  A    between atoms: C_16  and  C_17
REMARK    9  A    between atoms: C_19  and  O_25
REMARK   10  A    between atoms: C_20  and  O_24
REMARK   11  A    between atoms: O_25  and  C_26
REMARK                            x       y       z     vdW  Elec       q    Type
REMARK                         _______ _______ _______ _____ _____    ______ ____
ROOT
ATOM      1  N   UNL     1       3.382  -4.279  -0.821  0.00  0.00    -0.275 N 
ATOM      2  C   UNL     1       4.303  -5.124  -0.316  0.00  0.00    +0.259 C 
ATOM      3  O   UNL     1       4.048  -6.309  -0.213  0.00  0.00    -0.269 OA
ATOM      4  H   UNL     1       3.585  -3.334  -0.903  0.00  0.00    +0.156 HD
ENDROOT
BRANCH   1   9
ATOM      5  C   UNL     1       1.089  -4.046  -1.763  0.00  0.00    +0.069 A 
ATOM      6  C   UNL     1      -0.107  -4.793  -2.112  0.00  0.00    -0.023 A 
ATOM      7  C   UNL     1      -0.027  -6.116  -1.853  0.00  0.00    -0.004 A 
ATOM      8  S   UNL     1       1.589  -6.343  -1.171  0.00  0.00    -0.077 S 
ATOM      9  C   UNL     1       2.147  -4.760  -1.224  0.00  0.00    +0.085 A 
ATOM     10  C   UNL     1      -1.087  -7.146  -2.097  0.00  0.00    +0.043 C 
ATOM     11  C   UNL     1      -2.419  -6.420  -2.336  0.00  0.00    +0.005 C 
ATOM     12  C   UNL     1      -2.196  -5.295  -3.351  0.00  0.00    +0.005 C 
ATOM     13  C   UNL     1      -1.361  -4.180  -2.718  0.00  0.00    +0.037 C 
BRANCH   5  15
ATOM     14  N   UNL     1       0.792  -1.749  -1.002  0.00  0.00    -0.311 N 
ATOM     15  C   UNL     1       1.174  -2.598  -1.977  0.00  0.00    +0.247 C 
ATOM     16  O   UNL     1       1.591  -2.163  -3.034  0.00  0.00    -0.270 OA
ATOM     17  H   UNL     1       0.460  -2.096  -0.160  0.00  0.00    +0.149 HD
BRANCH  14  18
ATOM     18  C   UNL     1       0.877  -0.302  -1.216  0.00  0.00    +0.104 C 
BRANCH  18  20
ATOM     19  C   UNL     1       0.475   1.939  -0.188  0.00  0.00    +0.005 C 
ATOM     20  C   UNL     1       0.386   0.428   0.035  0.00  0.00    +0.015 C 
ENDBRANCH  18  20
ENDBRANCH  14  18
ENDBRANCH   5  15
ENDBRANCH   1   9
BRANCH   2  21
ATOM     21  C   UNL     1       5.614  -4.613   0.112  0.00  0.00    +0.114 C 
ATOM     22  C   UNL     1       6.554  -5.477   0.630  0.00  0.00    +0.032 C 
BRANCH  22  23
ATOM     23  C   UNL     1       7.792  -4.950   1.208  0.00  0.00    -0.019 A 
ATOM     24  C   UNL     1       8.994  -5.660   1.064  0.00  0.00    +0.057 A 
ATOM     25  C   UNL     1      10.157  -5.158   1.611  0.00  0.00    +0.163 A 
ATOM     26  C   UNL     1      10.137  -3.948   2.306  0.00  0.00    +0.173 A 
ATOM     27  C   UNL     1       8.947  -3.243   2.450  0.00  0.00    +0.063 A 
ATOM     28  C   UNL     1       7.782  -3.733   1.903  0.00  0.00    +0.027 A 
ATOM     29 BR   UNL     1       8.931  -1.605   3.394  0.00  0.00    -0.046 Br
BRANCH  26  30
ATOM     30  O   UNL     1      11.283  -3.457   2.843  0.00  0.00    -0.503 OA
ATOM     31  H   UNL     1      11.781  -2.881   2.247  0.00  0.00    +0.292 HD
ENDBRANCH  26  30
BRANCH  25  32
ATOM     32  O   UNL     1      11.323  -5.843   1.473  0.00  0.00    -0.491 OA
ATOM     33  C   UNL     1      11.271  -7.074   0.750  0.00  0.00    +0.277 C 
ENDBRANCH  25  32
ENDBRANCH  22  23
BRANCH  21  34
ATOM     34  C   UNL     1       5.912  -3.218  -0.009  0.00  0.00    +0.104 C 
ATOM     35  N   UNL     1       6.150  -2.111  -0.105  0.00  0.00    -0.191 NA
ENDBRANCH  21  34
ENDBRANCH   2  21
TORSDOF 9
