REMARK  Name = ZINC13398608
REMARK  6 active torsions:
REMARK  status: ('A' for Active; 'I' for Inactive)
REMARK    1  A    between atoms: C_3  and  S_22
REMARK    2  A    between atoms: C_6  and  N_7
REMARK    3  A    between atoms: C_8  and  C_10
REMARK    4  A    between atoms: C_10  and  C_11
REMARK    5  A    between atoms: S_22  and  N_25
REMARK    6  A    between atoms: C_29  and  C_32
REMARK                            x       y       z     vdW  Elec       q    Type
REMARK                         _______ _______ _______ _____ _____    ______ ____
ROOT
ATOM      1  C   UNL     1       6.812  -4.015   1.345  0.00  0.00    +0.025 A 
ATOM      2  C   UNL     1       7.894  -4.455   0.609  0.00  0.00    +0.030 A 
ATOM      3  C   UNL     1       8.915  -5.154   1.227  0.00  0.00    +0.106 A 
ATOM      4  C   UNL     1       8.858  -5.410   2.585  0.00  0.00    +0.030 A 
ATOM      5  C   UNL     1       7.780  -4.968   3.328  0.00  0.00    +0.025 A 
ATOM      6  C   UNL     1       6.754  -4.266   2.709  0.00  0.00    +0.034 A 
ENDROOT
BRANCH   6   7
ATOM      7  N   UNL     1       5.661  -3.818   3.459  0.00  0.00    -0.285 N 
ATOM      8  C   UNL     1       5.838  -3.406   4.730  0.00  0.00    +0.222 C 
ATOM      9  O   UNL     1       6.929  -3.502   5.252  0.00  0.00    -0.275 OA
ATOM     10  H   UNL     1       4.775  -3.803   3.064  0.00  0.00    +0.155 HD
BRANCH   8  11
ATOM     11  C   UNL     1       4.682  -2.826   5.503  0.00  0.00    +0.131 C 
BRANCH  11  12
ATOM     12  C   UNL     1       5.143  -2.447   6.887  0.00  0.00    -0.034 A 
ATOM     13  C   UNL     1       5.067  -3.367   7.915  0.00  0.00    +0.053 A 
ATOM     14  C   UNL     1       5.490  -3.022   9.190  0.00  0.00    +0.164 A 
ATOM     15  C   UNL     1       5.991  -1.748   9.431  0.00  0.00    +0.180 A 
ATOM     16  C   UNL     1       6.063  -0.828   8.395  0.00  0.00    +0.086 A 
ATOM     17  C   UNL     1       5.639  -1.179   7.126  0.00  0.00    +0.028 A 
ATOM     18 CL   UNL     1       6.686   0.765   8.691  0.00  0.00    -0.080 Cl
ATOM     19  O   UNL     1       6.415  -1.390  10.674  0.00  0.00    -0.483 OA
ATOM     20  C   UNL     1       5.979  -2.210  11.763  0.00  0.00    +0.270 C 
ATOM     21  C   UNL     1       6.179  -3.679  11.369  0.00  0.00    +0.270 C 
ATOM     22  O   UNL     1       5.403  -3.937  10.193  0.00  0.00    -0.485 OA
ENDBRANCH  11  12
ENDBRANCH   8  11
ENDBRANCH   6   7
BRANCH   3  23
ATOM     23  S   UNL     1      10.290  -5.721   0.283  0.00  0.00    +0.061 S 
ATOM     24  O   UNL     1      10.371  -4.882  -0.861  0.00  0.00    -0.153 OA
ATOM     25  O   UNL     1      11.372  -5.874   1.192  0.00  0.00    -0.153 OA
BRANCH  23  26
ATOM     26  N   UNL     1       9.916  -7.237  -0.267  0.00  0.00    -0.176 NA
ATOM     27  C   UNL     1       9.239  -7.419  -1.558  0.00  0.00    +0.109 C 
ATOM     28  C   UNL     1       7.984  -8.271  -1.341  0.00  0.00    +0.018 C 
ATOM     29  C   UNL     1       8.374  -9.578  -0.646  0.00  0.00    +0.017 C 
ATOM     30  C   UNL     1       8.989  -9.267   0.720  0.00  0.00    +0.118 C 
ATOM     31  C   UNL     1      10.260  -8.427   0.524  0.00  0.00    +0.124 C 
BRANCH  30  32
ATOM     32  C   UNL     1       9.342 -10.556   1.417  0.00  0.00    +0.360 C 
ATOM     33  O   UNL     1      10.488 -10.779   1.730  0.00  0.00    -0.246 OA
ATOM     34  O   UNL     1       8.385 -11.455   1.690  0.00  0.00    -0.246 OA
ENDBRANCH  30  32
ENDBRANCH  23  26
ENDBRANCH   3  23
TORSDOF 6
