REMARK  Name = ZINC36660468
REMARK  10 active torsions:
REMARK  status: ('A' for Active; 'I' for Inactive)
REMARK    1  A    between atoms: C_1  and  C_2
REMARK    2  A    between atoms: C_5  and  C_35
REMARK    3  A    between atoms: N_11  and  C_12
REMARK    4  A    between atoms: C_12  and  C_13
REMARK    5  A    between atoms: C_13  and  N_14
REMARK    6  A    between atoms: N_14  and  C_15
REMARK    7  A    between atoms: N_14  and  C_16
REMARK    8  A    between atoms: C_17  and  C_19
REMARK    9  A    between atoms: N_24  and  S_25
REMARK   10  A    between atoms: S_25  and  C_28
REMARK                            x       y       z     vdW  Elec       q    Type
REMARK                         _______ _______ _______ _____ _____    ______ ____
ROOT
ATOM      1  C   UNL     1      -0.464   0.350   0.457  0.00  0.00    +0.046 C 
ATOM      2  C   UNL     1      -0.232  -1.099   0.799  0.00  0.00    -0.024 A 
ATOM      3  C   UNL     1      -0.187  -2.033  -0.204  0.00  0.00    +0.006 A 
ATOM      4  C   UNL     1       0.025  -3.377   0.067  0.00  0.00    +0.005 A 
ATOM      5  C   UNL     1       0.193  -3.786   1.377  0.00  0.00    -0.035 A 
ATOM      6  C   UNL     1       0.149  -2.858   2.387  0.00  0.00    +0.044 A 
ATOM      7  C   UNL     1      -0.058  -1.480   2.149  0.00  0.00    +0.083 A 
ATOM      8  N   UNL     1      -0.069  -0.692   3.246  0.00  0.00    -0.224 NA
ATOM      9  C   UNL     1       0.104  -1.167   4.457  0.00  0.00    +0.168 A 
ATOM     10  S   UNL     1       0.308  -2.917   4.156  0.00  0.00    -0.052 S 
ATOM     11  N   UNL     1       0.118  -0.485   5.664  0.00  0.00    -0.251 N 
ATOM     12  C   UNL     1      -0.065   0.850   5.686  0.00  0.00    +0.240 C 
ATOM     13  O   UNL     1      -0.338   1.441   4.663  0.00  0.00    -0.273 OA
ATOM     14  C   UNL     1       0.423  -5.242   1.694  0.00  0.00    +0.045 C 
ENDROOT
BRANCH  12  15
ATOM     15  C   UNL     1       0.071   1.607   6.981  0.00  0.00    +0.166 C 
ATOM     16  C   UNL     1      -1.292   1.659   7.704  0.00  0.00    +0.031 C 
ATOM     17  C   UNL     1      -1.313   3.090   8.303  0.00  0.00    +0.019 C 
ATOM     18  C   UNL     1      -0.582   3.899   7.203  0.00  0.00    +0.110 C 
ATOM     19  N   UNL     1       0.477   2.994   6.709  0.00  0.00    -0.165 NA
BRANCH  19  20
ATOM     20  S   UNL     1       1.885   3.461   5.973  0.00  0.00    +0.062 S 
ATOM     21  O   UNL     1       2.232   4.724   6.523  0.00  0.00    -0.153 OA
ATOM     22  O   UNL     1       2.760   2.342   6.023  0.00  0.00    -0.153 OA
BRANCH  20  23
ATOM     23  C   UNL     1       1.517   3.736   4.272  0.00  0.00    +0.106 A 
ATOM     24  C   UNL     1       1.711   2.724   3.350  0.00  0.00    +0.030 A 
ATOM     25  C   UNL     1       1.423   2.939   2.016  0.00  0.00    +0.022 A 
ATOM     26  C   UNL     1       0.939   4.167   1.602  0.00  0.00    +0.041 A 
ATOM     27  C   UNL     1       0.744   5.180   2.525  0.00  0.00    +0.022 A 
ATOM     28  C   UNL     1       1.028   4.961   3.860  0.00  0.00    +0.030 A 
ATOM     29 CL   UNL     1       0.577   4.439  -0.074  0.00  0.00    -0.084 Cl
ENDBRANCH  20  23
ENDBRANCH  19  20
ENDBRANCH  12  15
BRANCH  11  30
ATOM     30  C   UNL     1       0.331  -1.216   6.915  0.00  0.00    +0.097 C 
BRANCH  30  31
ATOM     31  C   UNL     1       1.832  -1.366   7.170  0.00  0.00    -0.060 C 
BRANCH  31  32
ATOM     32  N   UNL     1       2.046  -2.099   8.425  0.00  0.00    +0.377 N 
ATOM     33  C   UNL     1       1.537  -3.470   8.284  0.00  0.00    -0.097 C 
ATOM     34  C   UNL     1       3.482  -2.139   8.730  0.00  0.00    -0.097 C 
ATOM     35  H   UNL     1       1.555  -1.633   9.174  0.00  0.00    -0.083 HD
ENDBRANCH  31  32
ENDBRANCH  30  31
ENDBRANCH  11  30
TORSDOF 6
