REMARK  Name = ZINC12349522
REMARK  11 active torsions:
REMARK  status: ('A' for Active; 'I' for Inactive)
REMARK    1  A    between atoms: C_1  and  O_2
REMARK    2  A    between atoms: O_2  and  C_3
REMARK    3  A    between atoms: C_6  and  C_11
REMARK    4  A    between atoms: C_8  and  O_9
REMARK    5  A    between atoms: O_9  and  C_10
REMARK    6  A    between atoms: C_16  and  C_26
REMARK    7  A    between atoms: C_23  and  O_24
REMARK    8  A    between atoms: C_28  and  N_35
REMARK    9  A    between atoms: C_29  and  O_34
REMARK   10  A    between atoms: C_30  and  O_32
REMARK   11  A    between atoms: O_32  and  C_33
REMARK                            x       y       z     vdW  Elec       q    Type
REMARK                         _______ _______ _______ _____ _____    ______ ____
ROOT
ATOM      1  C   UNL     1       2.507  -2.501  -4.386  0.00  0.00    +0.032 C 
ATOM      2  C   UNL     1       1.815  -2.077  -5.683  0.00  0.00    +0.059 C 
ATOM      3  C   UNL     1       2.512  -2.715  -6.864  0.00  0.00    +0.017 C 
ATOM      4  C   UNL     1       3.839  -2.965  -6.830  0.00  0.00    +0.024 C 
ATOM      5  C   UNL     1       4.578  -3.582  -7.998  0.00  0.00    +0.093 C 
ATOM      6  C   UNL     1       3.591  -4.165  -8.969  0.00  0.00    +0.067 A 
ATOM      7  C   UNL     1       2.253  -3.876  -8.918  0.00  0.00    +0.126 A 
ATOM      8  N   UNL     1       1.649  -4.547  -9.916  0.00  0.00    -0.260 N 
ATOM      9  H   UNL     1       0.702  -4.532 -10.125  0.00  0.00    +0.190 HD
ATOM     10  N   UNL     1       2.636  -5.274 -10.602  0.00  0.00    -0.134 NA
ATOM     11  C   UNL     1       3.798  -5.041 -10.030  0.00  0.00    +0.237 A 
ATOM     12  N   UNL     1       1.733  -3.025  -7.950  0.00  0.00    -0.303 N 
ATOM     13  C   UNL     1       4.601  -2.663  -5.687  0.00  0.00    +0.162 C 
ATOM     14  O   UNL     1       5.795  -2.893  -5.692  0.00  0.00    -0.292 OA
ATOM     15  C   UNL     1       3.975  -2.065  -4.459  0.00  0.00    +0.088 C 
ATOM     16  H   UNL     1       0.839  -2.659  -8.040  0.00  0.00    +0.153 HD
ENDROOT
BRANCH   1  20
ATOM     17  C   UNL     1       0.606  -0.608  -1.056  0.00  0.00    +0.161 A 
ATOM     18  C   UNL     1       1.173   0.159  -2.062  0.00  0.00    +0.049 A 
ATOM     19  C   UNL     1       1.787  -0.456  -3.137  0.00  0.00    +0.008 A 
ATOM     20  C   UNL     1       1.837  -1.836  -3.212  0.00  0.00    -0.040 A 
ATOM     21  C   UNL     1       1.273  -2.606  -2.212  0.00  0.00    +0.053 A 
ATOM     22  C   UNL     1       0.662  -1.996  -1.129  0.00  0.00    +0.162 A 
BRANCH  17  24
ATOM     23  C   UNL     1      -0.017   1.425   0.010  0.00  0.00    +0.277 C 
ATOM     24  O   UNL     1       0.002  -0.004   0.002  0.00  0.00    -0.491 OA
ENDBRANCH  17  24
BRANCH  22  25
ATOM     25  O   UNL     1       0.112  -2.753  -0.142  0.00  0.00    -0.491 OA
ATOM     26  C   UNL     1       0.206  -4.171  -0.283  0.00  0.00    +0.277 C 
ENDBRANCH  22  25
ENDBRANCH   1  20
BRANCH   5  27
ATOM     27  C   UNL     1       5.397  -2.523  -8.690  0.00  0.00    -0.029 A 
ATOM     28  C   UNL     1       4.774  -1.414  -9.230  0.00  0.00    +0.041 A 
ATOM     29  C   UNL     1       5.520  -0.439  -9.867  0.00  0.00    +0.171 A 
ATOM     30  C   UNL     1       6.896  -0.573  -9.963  0.00  0.00    +0.189 A 
ATOM     31  C   UNL     1       7.523  -1.690  -9.418  0.00  0.00    +0.164 A 
ATOM     32  C   UNL     1       6.769  -2.660  -8.778  0.00  0.00    +0.054 A 
BRANCH  29  33
ATOM     33  N   UNL     1       4.849   0.747 -10.445  0.00  0.00    +0.060 N 
ATOM     34  O   UNL     1       3.649   0.863 -10.361  0.00  0.00    -0.126 OA
ATOM     35  O   UNL     1       5.502   1.599 -11.001  0.00  0.00    -0.126 OA
ENDBRANCH  29  33
BRANCH  31  36
ATOM     36  O   UNL     1       8.873  -1.825  -9.511  0.00  0.00    -0.491 OA
ATOM     37  C   UNL     1       9.448  -2.997  -8.929  0.00  0.00    +0.277 C 
ENDBRANCH  31  36
BRANCH  30  38
ATOM     38  O   UNL     1       7.631   0.384 -10.589  0.00  0.00    -0.502 OA
ATOM     39  H   UNL     1       7.939   1.089 -10.003  0.00  0.00    +0.292 HD
ENDBRANCH  30  38
ENDBRANCH   5  27
BRANCH  11  40
ATOM     40  O   UNL     1       4.993  -5.565 -10.411  0.00  0.00    -0.491 OA
ATOM     41  H   UNL     1       5.210  -6.403  -9.980  0.00  0.00    +0.294 HD
ENDBRANCH  11  40
TORSDOF 8
