REMARK  Name = ZINC08590448
REMARK  6 active torsions:
REMARK  status: ('A' for Active; 'I' for Inactive)
REMARK    1  A    between atoms: C_1  and  C_2
REMARK    2  A    between atoms: C_5  and  C_8
REMARK    3  A    between atoms: C_14  and  C_16
REMARK    4  A    between atoms: C_16  and  S_17
REMARK    5  A    between atoms: S_17  and  C_18
REMARK    6  A    between atoms: C_28  and  C_32
REMARK                            x       y       z     vdW  Elec       q    Type
REMARK                         _______ _______ _______ _____ _____    ______ ____
ROOT
ATOM      1  C   UNL     1       0.059  -4.252  -0.021  0.00  0.00    +0.130 A 
ATOM      2  N   UNL     1       0.070  -5.086   1.008  0.00  0.00    -0.205 NA
ATOM      3  C   UNL     1       0.086  -6.375   0.749  0.00  0.00    +0.230 A 
ATOM      4  N   UNL     1       0.091  -6.753  -0.512  0.00  0.00    -0.174 NA
ATOM      5  S   UNL     1       0.066  -5.295  -1.338  0.00  0.00    +0.035 S 
ATOM      6  N   UNL     1       0.099  -7.316   1.782  0.00  0.00    -0.253 N 
ATOM      7  C   UNL     1       0.116  -8.633   1.494  0.00  0.00    +0.230 C 
ATOM      8  O   UNL     1       0.120  -9.001   0.338  0.00  0.00    -0.274 OA
ATOM      9  H   UNL     1       0.095  -7.022   2.706  0.00  0.00    +0.158 HD
ENDROOT
BRANCH   1  14
ATOM     10  C   UNL     1      -0.018   1.503   0.010  0.00  0.00    +0.044 C 
ATOM     11  C   UNL     1       0.002  -0.004   0.002  0.00  0.00    -0.050 A 
ATOM     12  C   UNL     1       0.006  -0.686  -1.202  0.00  0.00    +0.004 A 
ATOM     13  C   UNL     1       0.024  -2.066  -1.216  0.00  0.00    +0.011 A 
ATOM     14  C   UNL     1       0.040  -2.773  -0.013  0.00  0.00    +0.009 A 
ATOM     15  C   UNL     1       0.036  -2.079   1.197  0.00  0.00    +0.011 A 
ATOM     16  C   UNL     1       0.023  -0.699   1.198  0.00  0.00    +0.004 A 
ENDBRANCH   1  14
BRANCH   7  17
ATOM     17  C   UNL     1       0.129  -9.648   2.608  0.00  0.00    +0.172 C 
BRANCH  17  18
ATOM     18  S   UNL     1       0.150 -11.319   1.903  0.00  0.00    -0.096 S 
BRANCH  18  19
ATOM     19  C   UNL     1       0.164 -12.376   3.312  0.00  0.00    +0.109 A 
ATOM     20  C   UNL     1       0.188 -13.791   3.153  0.00  0.00    +0.043 A 
ATOM     21  C   UNL     1       0.206 -14.573   1.917  0.00  0.00    -0.025 A 
ATOM     22  C   UNL     1       0.228 -15.916   2.043  0.00  0.00    -0.004 A 
ATOM     23  S   UNL     1       0.225 -16.216   3.791  0.00  0.00    -0.073 S 
ATOM     24  C   UNL     1       0.197 -14.534   4.350  0.00  0.00    +0.113 A 
ATOM     25  N   UNL     1       0.184 -13.942   5.530  0.00  0.00    -0.228 NA
ATOM     26  C   UNL     1       0.163 -12.626   5.614  0.00  0.00    +0.223 A 
ATOM     27  N   UNL     1       0.158 -11.866   4.534  0.00  0.00    -0.229 NA
ATOM     28  C   UNL     1       0.250 -16.931   0.941  0.00  0.00    +0.046 C 
ATOM     29  C   UNL     1       0.622 -16.218  -0.367  0.00  0.00    -0.009 C 
ATOM     30  C   UNL     1      -0.236 -14.957  -0.498  0.00  0.00    +0.008 C 
ATOM     31  C   UNL     1       0.202 -13.920   0.537  0.00  0.00    +0.037 C 
ATOM     32  C   UNL     1       0.356 -17.149  -1.552  0.00  0.00    +0.008 C 
ENDBRANCH  18  19
ENDBRANCH  17  18
ENDBRANCH   7  17
TORSDOF 4
