REMARK  Name = ZINC35778975
REMARK  12 active torsions:
REMARK  status: ('A' for Active; 'I' for Inactive)
REMARK    1  A    between atoms: C_1  and  C_2
REMARK    2  A    between atoms: C_6  and  O_8
REMARK    3  A    between atoms: O_8  and  C_9
REMARK    4  A    between atoms: C_9  and  C_10
REMARK    5  A    between atoms: C_20  and  C_22
REMARK    6  A    between atoms: C_22  and  N_23
REMARK    7  A    between atoms: N_23  and  C_24
REMARK    8  A    between atoms: N_23  and  C_28
REMARK    9  A    between atoms: C_24  and  C_25
REMARK   10  A    between atoms: C_28  and  C_29
REMARK   11  A    between atoms: C_29  and  C_31
REMARK   12  A    between atoms: C_29  and  O_37
REMARK                            x       y       z     vdW  Elec       q    Type
REMARK                         _______ _______ _______ _____ _____    ______ ____
ROOT
ATOM      1  C   UNL     1       0.360  -5.989   3.269  0.00  0.00    +0.144 C 
ATOM      2  C   UNL     1       1.481  -5.248   3.996  0.00  0.00    -0.014 A 
ATOM      3  C   UNL     1       2.799  -5.701   4.030  0.00  0.00    +0.013 A 
ATOM      4  C   UNL     1       3.741  -4.990   4.691  0.00  0.00    +0.046 A 
ATOM      5  S   UNL     1       2.793  -3.612   5.316  0.00  0.00    -0.101 S 
ATOM      6  C   UNL     1       1.217  -4.086   4.654  0.00  0.00    -0.004 A 
ATOM      7  C   UNL     1      -0.095  -3.384   4.787  0.00  0.00    +0.061 C 
ATOM      8  C   UNL     1      -1.062  -3.943   3.732  0.00  0.00    +0.113 C 
ATOM      9  N   UNL     1      -0.918  -5.407   3.702  0.00  0.00    -0.292 N 
ATOM     10  C   UNL     1      -1.943  -6.204   4.066  0.00  0.00    +0.200 C 
ATOM     11  O   UNL     1      -1.813  -7.409   4.038  0.00  0.00    -0.278 OA
ENDROOT
BRANCH   1  12
ATOM     12  C   UNL     1       0.521  -5.818   1.757  0.00  0.00    +0.256 C 
BRANCH  12  13
ATOM     13  O   UNL     1       0.599  -4.426   1.441  0.00  0.00    -0.490 OA
BRANCH  13  19
ATOM     14  C   UNL     1       1.062  -0.990  -1.994  0.00  0.00    +0.044 C 
ATOM     15  C   UNL     1       0.974  -2.437  -1.582  0.00  0.00    -0.047 A 
ATOM     16  C   UNL     1       1.041  -3.433  -2.539  0.00  0.00    +0.003 A 
ATOM     17  C   UNL     1       0.961  -4.761  -2.164  0.00  0.00    +0.004 A 
ATOM     18  C   UNL     1       0.812  -5.097  -0.832  0.00  0.00    +0.045 A 
ATOM     19  C   UNL     1       0.744  -4.099   0.130  0.00  0.00    +0.121 A 
ATOM     20  C   UNL     1       0.832  -2.767  -0.248  0.00  0.00    +0.049 A 
ENDBRANCH  13  19
ENDBRANCH  12  13
ENDBRANCH   1  12
BRANCH  10  21
ATOM     21  C   UNL     1      -3.249  -5.596   4.508  0.00  0.00    +0.019 C 
BRANCH  21  22
ATOM     22  N   UNL     1      -4.147  -6.657   4.982  0.00  0.00    +0.387 N 
ATOM     23  H   UNL     1      -4.231  -7.369   4.271  0.00  0.00    -0.081 HD
BRANCH  22  24
ATOM     24  C   UNL     1      -5.472  -6.088   5.264  0.00  0.00    -0.075 C 
BRANCH  24  25
ATOM     25  C   UNL     1      -6.065  -5.513   3.975  0.00  0.00    -0.028 C 
ATOM     26  C   UNL     1      -6.344  -4.010   3.936  0.00  0.00    +0.002 C 
ATOM     27  C   UNL     1      -7.505  -5.002   4.028  0.00  0.00    +0.002 C 
ENDBRANCH  24  25
ENDBRANCH  22  24
BRANCH  22  28
ATOM     28  C   UNL     1      -3.599  -7.252   6.208  0.00  0.00    -0.042 C 
BRANCH  28  29
ATOM     29  C   UNL     1      -4.423  -8.483   6.591  0.00  0.00    +0.128 C 
BRANCH  29  30
ATOM     30  C   UNL     1      -3.744  -9.210   7.723  0.00  0.00    -0.021 A 
ATOM     31  C   UNL     1      -3.973  -8.821   9.030  0.00  0.00    +0.006 A 
ATOM     32  C   UNL     1      -3.350  -9.487  10.069  0.00  0.00    +0.000 A 
ATOM     33  C   UNL     1      -2.499 -10.543   9.801  0.00  0.00    +0.000 A 
ATOM     34  C   UNL     1      -2.271 -10.932   8.494  0.00  0.00    +0.000 A 
ATOM     35  C   UNL     1      -2.897 -10.268   7.455  0.00  0.00    +0.006 A 
ENDBRANCH  29  30
BRANCH  29  36
ATOM     36  O   UNL     1      -5.728  -8.073   7.003  0.00  0.00    -0.389 OA
ATOM     37  H   UNL     1      -5.732  -7.479   7.766  0.00  0.00    +0.210 HD
ENDBRANCH  29  36
ENDBRANCH  28  29
ENDBRANCH  22  28
ENDBRANCH  21  22
ENDBRANCH  10  21
TORSDOF 11
