REMARK  Name = ZINC39676314
REMARK  4 active torsions:
REMARK  status: ('A' for Active; 'I' for Inactive)
REMARK    1  A    between atoms: C_11  and  C_13
REMARK    2  A    between atoms: C_13  and  N_14
REMARK    3  A    between atoms: C_15  and  C_17
REMARK    4  A    between atoms: C_28  and  C_30
REMARK                            x       y       z     vdW  Elec       q    Type
REMARK                         _______ _______ _______ _____ _____    ______ ____
ROOT
ATOM      1  C   UNL     1       8.690  -0.623   0.337  0.00  0.00    +0.100 C 
ATOM      2  C   UNL     1       8.524   0.025  -1.056  0.00  0.00    +0.121 C 
ATOM      3  N   UNL     1       9.909   0.194  -1.557  0.00  0.00    -0.296 N 
ATOM      4  C   UNL     1      10.611  -1.038  -1.123  0.00  0.00    +0.115 C 
ATOM      5  C   UNL     1      10.059  -1.321   0.288  0.00  0.00    -0.004 C 
ATOM      6  C   UNL     1       9.896  -2.822   0.500  0.00  0.00    -0.010 C 
ATOM      7  C   UNL     1      11.276  -3.486   0.506  0.00  0.00    -0.082 C 
ATOM      8  N   UNL     1      12.094  -2.907   1.578  0.00  0.00    +0.379 N 
ATOM      9  C   UNL     1      12.325  -1.481   1.318  0.00  0.00    -0.082 C 
ATOM     10  C   UNL     1      10.989  -0.733   1.346  0.00  0.00    -0.010 C 
ATOM     11  C   UNL     1      10.416   1.233  -2.249  0.00  0.00    +0.248 C 
ATOM     12  O   UNL     1      11.555   1.183  -2.674  0.00  0.00    -0.270 OA
ATOM     13  H   UNL     1      11.615  -3.013   2.460  0.00  0.00    -0.086 HD
ATOM     14  H   UNL     1      12.981  -3.388   1.620  0.00  0.00    -0.086 HD
ENDROOT
BRANCH  11  15
ATOM     15  C   UNL     1       9.593   2.425  -2.492  0.00  0.00    +0.052 A 
ATOM     16  C   UNL     1       8.253   2.322  -2.688  0.00  0.00    +0.059 A 
ATOM     17  S   UNL     1       7.716   3.894  -2.924  0.00  0.00    -0.096 S 
ATOM     18  C   UNL     1       9.246   4.774  -2.774  0.00  0.00    +0.020 A 
ATOM     19  C   UNL     1      10.191   3.761  -2.524  0.00  0.00    +0.001 A 
ATOM     20  C   UNL     1      11.531   4.158  -2.350  0.00  0.00    +0.010 A 
ATOM     21  C   UNL     1      11.877   5.484  -2.420  0.00  0.00    +0.001 A 
ATOM     22  C   UNL     1      10.926   6.464  -2.663  0.00  0.00    +0.001 A 
ATOM     23  C   UNL     1       9.605   6.103  -2.848  0.00  0.00    +0.015 A 
ENDBRANCH  11  15
BRANCH   1  25
ATOM     24  N   UNL     1       7.178  -1.883   1.836  0.00  0.00    -0.308 N 
ATOM     25  C   UNL     1       7.596  -1.631   0.579  0.00  0.00    +0.219 C 
ATOM     26  O   UNL     1       7.092  -2.216  -0.356  0.00  0.00    -0.275 OA
ATOM     27  H   UNL     1       7.581  -1.415   2.584  0.00  0.00    +0.149 HD
BRANCH  24  28
ATOM     28  C   UNL     1       6.115  -2.863   2.072  0.00  0.00    +0.178 C 
BRANCH  28  39
ATOM     29  C   UNL     1       5.879  -2.351   8.437  0.00  0.00    +0.001 A 
ATOM     30  C   UNL     1       6.845  -1.497   7.919  0.00  0.00    +0.002 A 
ATOM     31  C   UNL     1       7.077  -1.435   6.564  0.00  0.00    +0.028 A 
ATOM     32  C   UNL     1       6.333  -2.239   5.697  0.00  0.00    +0.078 A 
ATOM     33  C   UNL     1       5.353  -3.106   6.228  0.00  0.00    +0.065 A 
ATOM     34  C   UNL     1       5.134  -3.154   7.603  0.00  0.00    +0.015 A 
ATOM     35  C   UNL     1       4.588  -3.939   5.288  0.00  0.00    +0.259 A 
ATOM     36  O   UNL     1       3.728  -4.707   5.680  0.00  0.00    -0.267 OA
ATOM     37  N   UNL     1       4.875  -3.819   3.971  0.00  0.00    -0.309 N 
ATOM     38  H   UNL     1       4.391  -4.353   3.323  0.00  0.00    +0.170 HD
ATOM     39  C   UNL     1       5.837  -2.956   3.550  0.00  0.00    +0.128 A 
ATOM     40  N   UNL     1       6.529  -2.209   4.355  0.00  0.00    -0.232 NA
ENDBRANCH  28  39
ENDBRANCH  24  28
ENDBRANCH   1  25
TORSDOF 4
