REMARK  Name = ZINC44517767
REMARK  7 active torsions:
REMARK  status: ('A' for Active; 'I' for Inactive)
REMARK    1  A    between atoms: C_1  and  C_2
REMARK    2  A    between atoms: C_2  and  N_3
REMARK    3  A    between atoms: C_6  and  C_9
REMARK    4  A    between atoms: C_9  and  N_10
REMARK    5  A    between atoms: N_10  and  C_11
REMARK    6  A    between atoms: C_11  and  C_12
REMARK    7  A    between atoms: C_16  and  N_18
REMARK                            x       y       z     vdW  Elec       q    Type
REMARK                         _______ _______ _______ _____ _____    ______ ____
ROOT
ATOM      1  N   UNL     1      -5.067  -4.023  -0.900  0.00  0.00    +0.382 N 
ATOM      2  H   UNL     1      -4.670  -4.386  -1.754  0.00  0.00    -0.085 HD
ATOM      3  H   UNL     1      -4.539  -4.367  -0.111  0.00  0.00    -0.085 HD
ENDROOT
BRANCH   1   4
ATOM      4  C   UNL     1      -5.014  -2.555  -0.920  0.00  0.00    -0.079 C 
BRANCH   4   8
ATOM      5  N   UNL     1      -1.376  -0.512   0.012  0.00  0.00    +0.380 N 
ATOM      6  C   UNL     1      -2.051  -0.118  -1.230  0.00  0.00    -0.079 C 
ATOM      7  C   UNL     1      -3.511  -0.575  -1.189  0.00  0.00    -0.017 C 
ATOM      8  C   UNL     1      -3.559  -2.099  -1.042  0.00  0.00    -0.032 C 
ATOM      9  C   UNL     1      -2.788  -2.505   0.218  0.00  0.00    -0.017 C 
ATOM     10  C   UNL     1      -1.355  -1.976   0.125  0.00  0.00    -0.079 C 
ATOM     11  H   UNL     1      -1.871  -0.123   0.800  0.00  0.00    -0.082 HD
BRANCH   5  13
ATOM     12  C   UNL     1      -0.019   1.526   0.010  0.00  0.00    -0.017 C 
ATOM     13  C   UNL     1       0.002  -0.004   0.002  0.00  0.00    -0.082 C 
ENDBRANCH   5  13
ENDBRANCH   4   8
ENDBRANCH   1   4
BRANCH   1  14
ATOM     14  C   UNL     1      -6.464  -4.462  -0.783  0.00  0.00    -0.047 C 
BRANCH  14  15
ATOM     15  C   UNL     1      -6.518  -5.968  -0.762  0.00  0.00    -0.062 A 
ATOM     16  C   UNL     1      -6.632  -6.672  -1.946  0.00  0.00    +0.003 A 
ATOM     17  C   UNL     1      -6.681  -8.053  -1.927  0.00  0.00    +0.018 A 
ATOM     18  C   UNL     1      -6.616  -8.730  -0.722  0.00  0.00    +0.048 A 
ATOM     19  C   UNL     1      -6.502  -8.025   0.462  0.00  0.00    +0.140 A 
ATOM     20  C   UNL     1      -6.447  -6.644   0.442  0.00  0.00    +0.035 A 
ATOM     21 BR   UNL     1      -6.684 -10.620  -0.695  0.00  0.00    -0.048 Br
BRANCH  19  22
ATOM     22  N   UNL     1      -6.432  -8.750   1.751  0.00  0.00    +0.058 N 
ATOM     23  O   UNL     1      -6.333  -8.133   2.786  0.00  0.00    -0.126 OA
ATOM     24  O   UNL     1      -6.476  -9.958   1.768  0.00  0.00    -0.126 OA
ENDBRANCH  19  22
ENDBRANCH  14  15
ENDBRANCH   1  14
TORSDOF 6
