REMARK  Name = ZINC63270894
REMARK  13 active torsions:
REMARK  status: ('A' for Active; 'I' for Inactive)
REMARK    1  A    between atoms: C_1  and  C_2
REMARK    2  A    between atoms: C_10  and  C_18
REMARK    3  A    between atoms: C_11  and  O_13
REMARK    4  A    between atoms: O_13  and  C_14
REMARK    5  A    between atoms: C_14  and  C_15
REMARK    6  A    between atoms: C_15  and  C_17
REMARK    7  A    between atoms: C_18  and  C_19
REMARK    8  A    between atoms: C_19  and  C_20
REMARK    9  A    between atoms: N_22  and  C_23
REMARK   10  A    between atoms: C_23  and  C_24
REMARK   11  A    between atoms: C_24  and  C_25
REMARK   12  A    between atoms: C_28  and  O_34
REMARK   13  A    between atoms: O_34  and  C_35
REMARK                            x       y       z     vdW  Elec       q    Type
REMARK                         _______ _______ _______ _____ _____    ______ ____
ROOT
ATOM      1  C   UNL     1       1.489   0.007   5.474  0.00  0.00    +0.100 C 
ENDROOT
BRANCH   1   2
ATOM      2  C   UNL     1       1.491   0.710   6.807  0.00  0.00    +0.213 C 
ATOM      3  O   UNL     1       0.445   1.059   7.311  0.00  0.00    -0.276 OA
ATOM      4  N   UNL     1       2.657   0.950   7.440  0.00  0.00    -0.315 N 
ATOM      5  H   UNL     1       3.494   0.670   7.038  0.00  0.00    +0.149 HD
BRANCH   4   6
ATOM      6  C   UNL     1       2.659   1.633   8.736  0.00  0.00    +0.108 C 
BRANCH   6   7
ATOM      7  C   UNL     1       4.099   1.780   9.233  0.00  0.00    +0.052 C 
BRANCH   7   8
ATOM      8  C   UNL     1       4.101   2.482  10.566  0.00  0.00    -0.040 C 
ATOM      9  C   UNL     1       4.126   1.906  11.789  0.00  0.00    +0.002 A 
ATOM     10  C   UNL     1       4.155   0.507  12.229  0.00  0.00    +0.055 A 
ATOM     11  C   UNL     1       4.175   0.225  13.554  0.00  0.00    +0.121 A 
ATOM     12  C   UNL     1       4.168   1.231  14.536  0.00  0.00    +0.047 A 
ATOM     13  C   UNL     1       4.141   2.546  14.229  0.00  0.00    +0.029 A 
ATOM     14  C   UNL     1       4.118   2.965  12.824  0.00  0.00    +0.043 A 
ATOM     15  N   UNL     1       4.090   4.148  12.264  0.00  0.00    -0.380 N 
ATOM     16  C   UNL     1       4.083   3.975  10.807  0.00  0.00    +0.144 C 
ATOM     17  H   UNL     1       4.080   4.997  12.733  0.00  0.00    +0.160 HD
BRANCH  11  18
ATOM     18  O   UNL     1       4.202  -1.076  13.948  0.00  0.00    -0.495 OA
ATOM     19  C   UNL     1       4.221  -1.328  15.354  0.00  0.00    +0.277 C 
ENDBRANCH  11  18
ENDBRANCH   7   8
ENDBRANCH   6   7
ENDBRANCH   4   6
ENDBRANCH   1   2
BRANCH   1  20
ATOM     20  C   UNL     1       0.049  -0.139   4.978  0.00  0.00    +0.048 C 
BRANCH  20  30
ATOM     21  C   UNL     1      -0.018   1.503   0.010  0.00  0.00    +0.045 C 
ATOM     22  C   UNL     1       0.002  -0.004   0.002  0.00  0.00    -0.033 A 
ATOM     23  C   UNL     1       0.006  -0.695  -1.167  0.00  0.00    +0.096 A 
ATOM     24  C   UNL     1       0.026  -2.105  -1.149  0.00  0.00    +0.337 A 
ATOM     25  O   UNL     1       0.030  -2.712  -2.204  0.00  0.00    -0.245 OA
ATOM     26  O   UNL     1       0.041  -2.795   0.003  0.00  0.00    -0.422 OA
ATOM     27  C   UNL     1       0.038  -2.169   1.199  0.00  0.00    +0.143 A 
ATOM     28  C   UNL     1       0.024  -0.763   1.254  0.00  0.00    +0.021 A 
ATOM     29  C   UNL     1       0.026  -0.111   2.492  0.00  0.00    +0.019 A 
ATOM     30  C   UNL     1       0.046  -0.842   3.644  0.00  0.00    -0.004 A 
ATOM     31  C   UNL     1       0.066  -2.234   3.596  0.00  0.00    +0.128 A 
ATOM     32  C   UNL     1       0.053  -2.897   2.379  0.00  0.00    +0.093 A 
BRANCH  31  33
ATOM     33  O   UNL     1       0.086  -2.948   4.751  0.00  0.00    -0.487 OA
BRANCH  33  34
ATOM     34  C   UNL     1       0.105  -4.372   4.633  0.00  0.00    +0.259 C 
BRANCH  34  35
ATOM     35  C   UNL     1       0.126  -4.989   6.008  0.00  0.00    -0.043 C 
ATOM     36  C   UNL     1       0.125  -4.223   7.070  0.00  0.00    +0.011 C 
ATOM     37  C   UNL     1       0.149  -6.488   6.160  0.00  0.00    +0.042 C 
ENDBRANCH  34  35
ENDBRANCH  33  34
ENDBRANCH  31  33
ENDBRANCH  20  30
ENDBRANCH   1  20
TORSDOF 10
