REMARK  Name = ZINC13495090
REMARK  10 active torsions:
REMARK  status: ('A' for Active; 'I' for Inactive)
REMARK    1  A    between atoms: C_1  and  C_2
REMARK    2  A    between atoms: C_2  and  C_3
REMARK    3  A    between atoms: C_3  and  C_5
REMARK    4  A    between atoms: C_3  and  N_17
REMARK    5  A    between atoms: N_9  and  C_10
REMARK    6  A    between atoms: C_10  and  C_11
REMARK    7  A    between atoms: N_17  and  C_18
REMARK    8  A    between atoms: N_17  and  C_26
REMARK    9  A    between atoms: C_18  and  C_19
REMARK   10  A    between atoms: C_26  and  C_27
REMARK                            x       y       z     vdW  Elec       q    Type
REMARK                         _______ _______ _______ _____ _____    ______ ____
ROOT
ATOM      1  N   UNL     1      -0.295  -0.356  -2.760  0.00  0.00    -0.284 NA
ENDROOT
BRANCH   1   2
ATOM      2  C   UNL     1       0.446  -1.255  -1.865  0.00  0.00    +0.127 C 
BRANCH   2   3
ATOM      3  C   UNL     1       0.262  -2.680  -2.319  0.00  0.00    +0.168 A 
ATOM      4  N   UNL     1      -0.863  -3.245  -2.684  0.00  0.00    -0.112 NA
ATOM      5  N   UNL     1      -0.609  -4.468  -3.001  0.00  0.00    -0.023 NA
ATOM      6  N   UNL     1       0.649  -4.697  -2.848  0.00  0.00    -0.044 NA
ATOM      7  N   UNL     1       1.221  -3.617  -2.433  0.00  0.00    -0.225 N 
BRANCH   7   8
ATOM      8  C   UNL     1       2.645  -3.445  -2.139  0.00  0.00    +0.179 C 
BRANCH   8   9
ATOM      9  C   UNL     1       2.908  -3.790  -0.672  0.00  0.00    +0.140 C 
ATOM     10  C   UNL     1       4.383  -3.496  -0.321  0.00  0.00    +0.035 C 
ATOM     11  C   UNL     1       4.745  -4.689   0.606  0.00  0.00    +0.031 C 
ATOM     12  C   UNL     1       3.898  -5.821  -0.028  0.00  0.00    +0.160 C 
ATOM     13  O   UNL     1       2.679  -5.187  -0.452  0.00  0.00    -0.375 OA
ENDBRANCH   8   9
ENDBRANCH   7   8
ENDBRANCH   2   3
BRANCH   2  15
ATOM     14  C   UNL     1       0.158   0.331   0.044  0.00  0.00    +0.006 C 
ATOM     15  C   UNL     1      -0.082  -1.101  -0.438  0.00  0.00    +0.023 C 
ENDBRANCH   2  15
ENDBRANCH   1   2
BRANCH   1  16
ATOM     16  C   UNL     1      -1.724  -0.335  -2.420  0.00  0.00    +0.120 C 
BRANCH  16  17
ATOM     17  C   UNL     1      -2.506   0.242  -3.572  0.00  0.00    -0.033 A 
ATOM     18  C   UNL     1      -2.847   1.582  -3.573  0.00  0.00    +0.008 A 
ATOM     19  C   UNL     1      -3.564   2.112  -4.628  0.00  0.00    +0.038 A 
ATOM     20  C   UNL     1      -3.940   1.301  -5.686  0.00  0.00    +0.123 A 
ATOM     21  C   UNL     1      -3.598  -0.040  -5.684  0.00  0.00    +0.038 A 
ATOM     22  C   UNL     1      -2.877  -0.567  -4.630  0.00  0.00    +0.008 A 
ATOM     23  F   UNL     1      -4.641   1.819  -6.718  0.00  0.00    -0.205 F 
ENDBRANCH  16  17
ENDBRANCH   1  16
BRANCH   1  24
ATOM     24  C   UNL     1       0.272   0.999  -2.734  0.00  0.00    +0.126 C 
BRANCH  24  25
ATOM     25  C   UNL     1       1.534   1.031  -3.558  0.00  0.00    +0.031 A 
ATOM     26  C   UNL     1       1.477   1.383  -4.868  0.00  0.00    +0.020 A 
ATOM     27  C   UNL     1       2.718   1.404  -5.640  0.00  0.00    +0.003 A 
ATOM     28  C   UNL     1       2.719   1.758  -6.996  0.00  0.00    +0.059 A 
ATOM     29  C   UNL     1       3.904   1.768  -7.698  0.00  0.00    +0.167 A 
ATOM     30  C   UNL     1       5.105   1.429  -7.061  0.00  0.00    +0.168 A 
ATOM     31  C   UNL     1       5.113   1.079  -5.723  0.00  0.00    +0.075 A 
ATOM     32  C   UNL     1       3.926   1.063  -5.002  0.00  0.00    +0.053 A 
ATOM     33  N   UNL     1       3.915   0.715  -3.666  0.00  0.00    -0.322 N 
ATOM     34  H   UNL     1       4.748   0.481  -3.226  0.00  0.00    +0.169 HD
ATOM     35  C   UNL     1       2.769   0.703  -2.964  0.00  0.00    +0.254 A 
ATOM     36  O   UNL     1       2.798   0.395  -1.784  0.00  0.00    -0.268 OA
ATOM     37  O   UNL     1       6.117   1.518  -7.972  0.00  0.00    -0.453 OA
ATOM     38  C   UNL     1       5.478   1.514  -9.261  0.00  0.00    +0.466 C 
ATOM     39  O   UNL     1       4.175   2.068  -9.003  0.00  0.00    -0.453 OA
ENDBRANCH  24  25
ENDBRANCH   1  24
TORSDOF 9
