REMARK  Name = ZINC64858921
REMARK  26 active torsions:
REMARK  status: ('A' for Active; 'I' for Inactive)
REMARK    1  A    between atoms: C_1  and  C_2
REMARK    2  A    between atoms: C_2  and  C_3
REMARK    3  A    between atoms: C_3  and  C_4
REMARK    4  A    between atoms: C_4  and  C_5
REMARK    5  A    between atoms: C_5  and  C_6
REMARK    6  A    between atoms: C_6  and  O_8
REMARK    7  A    between atoms: O_8  and  C_9
REMARK    8  A    between atoms: C_9  and  C_10
REMARK    9  A    between atoms: C_10  and  C_12
REMARK   10  A    between atoms: C_10  and  O_39
REMARK   11  A    between atoms: C_12  and  O_13
REMARK   12  A    between atoms: O_13  and  P_14
REMARK   13  A    between atoms: P_14  and  O_17
REMARK   14  A    between atoms: O_17  and  C_18
REMARK   15  A    between atoms: C_20  and  O_38
REMARK   16  A    between atoms: C_22  and  O_37
REMARK   17  A    between atoms: C_24  and  O_36
REMARK   18  A    between atoms: C_26  and  O_31
REMARK   19  A    between atoms: C_28  and  O_30
REMARK   20  A    between atoms: O_31  and  P_32
REMARK   21  A    between atoms: O_39  and  C_40
REMARK   22  A    between atoms: C_40  and  C_42
REMARK   23  A    between atoms: C_42  and  C_43
REMARK   24  A    between atoms: C_43  and  C_44
REMARK   25  A    between atoms: C_44  and  C_45
REMARK   26  A    between atoms: C_45  and  C_46
REMARK                            x       y       z     vdW  Elec       q    Type
REMARK                         _______ _______ _______ _____ _____    ______ ____
ROOT
ATOM      1  P   UNL     1       4.000 -10.357   5.708  0.00  0.00    +0.505 P 
ATOM      2  O   UNL     1       2.667 -11.137   5.729  0.00  0.00    -0.225 OA
ATOM      3  O   UNL     1       4.865 -10.846   4.525  0.00  0.00    -0.116 OA
ENDROOT
BRANCH   1   4
ATOM      4  O   UNL     1       3.699  -8.785   5.538  0.00  0.00    -0.281 OA
BRANCH   4   5
ATOM      5  C   UNL     1       2.920  -8.253   4.465  0.00  0.00    +0.220 C 
BRANCH   5   6
ATOM      6  C   UNL     1       2.831  -6.732   4.604  0.00  0.00    +0.240 C 
BRANCH   6   7
ATOM      7  C   UNL     1       2.104  -6.150   3.390  0.00  0.00    +0.279 C 
BRANCH   7   8
ATOM      8  O   UNL     1       2.123  -4.723   3.462  0.00  0.00    -0.461 OA
BRANCH   8   9
ATOM      9  C   UNL     1       1.523  -4.054   2.464  0.00  0.00    +0.307 C 
ATOM     10  O   UNL     1       1.000  -4.661   1.560  0.00  0.00    -0.251 OA
BRANCH   9  11
ATOM     11  C   UNL     1       1.503  -2.548   2.473  0.00  0.00    +0.120 C 
BRANCH  11  12
ATOM     12  C   UNL     1       0.763  -2.041   1.233  0.00  0.00    +0.011 C 
BRANCH  12  13
ATOM     13  C   UNL     1       0.742  -0.511   1.242  0.00  0.00    +0.000 C 
BRANCH  13  15
ATOM     14  C   UNL     1      -0.019   1.526   0.010  0.00  0.00    +0.004 C 
ATOM     15  C   UNL     1       0.002  -0.004   0.002  0.00  0.00    -0.003 C 
ENDBRANCH  13  15
ENDBRANCH  12  13
ENDBRANCH  11  12
ENDBRANCH   9  11
ENDBRANCH   8   9
ENDBRANCH   7   8
ENDBRANCH   6   7
BRANCH   6  16
ATOM     16  O   UNL     1       2.109  -6.404   5.793  0.00  0.00    -0.456 OA
BRANCH  16  17
ATOM     17  C   UNL     1       2.433  -5.254   6.405  0.00  0.00    +0.308 C 
ATOM     18  O   UNL     1       3.301  -4.550   5.947  0.00  0.00    -0.251 OA
BRANCH  17  19
ATOM     19  C   UNL     1       1.715  -4.843   7.664  0.00  0.00    +0.120 C 
BRANCH  19  20
ATOM     20  C   UNL     1       2.271  -3.504   8.155  0.00  0.00    +0.011 C 
BRANCH  20  21
ATOM     21  C   UNL     1       1.542  -3.086   9.433  0.00  0.00    +0.000 C 
BRANCH  21  22
ATOM     22  C   UNL     1       2.098  -1.748   9.923  0.00  0.00    -0.003 C 
ATOM     23  C   UNL     1       1.369  -1.330  11.202  0.00  0.00    +0.004 C 
ENDBRANCH  21  22
ENDBRANCH  20  21
ENDBRANCH  19  20
ENDBRANCH  17  19
ENDBRANCH  16  17
ENDBRANCH   6  16
ENDBRANCH   5   6
ENDBRANCH   4   5
ENDBRANCH   1   4
BRANCH   1  24
ATOM     24  O   UNL     1       4.790 -10.606   7.089  0.00  0.00    -0.276 OA
BRANCH  24  25
ATOM     25  C   UNL     1       5.110 -11.910   7.578  0.00  0.00    +0.192 C 
ATOM     26  C   UNL     1       4.454 -12.118   8.944  0.00  0.00    +0.177 C 
ATOM     27  C   UNL     1       4.798 -13.514   9.467  0.00  0.00    +0.177 C 
ATOM     28  C   UNL     1       6.316 -13.649   9.604  0.00  0.00    +0.177 C 
ATOM     29  C   UNL     1       6.971 -13.441   8.238  0.00  0.00    +0.192 C 
ATOM     30  C   UNL     1       6.628 -12.045   7.715  0.00  0.00    +0.178 C 
BRANCH  26  31
ATOM     31  O   UNL     1       4.939 -11.134   9.860  0.00  0.00    -0.386 OA
ATOM     32  H   UNL     1       4.565 -11.205  10.749  0.00  0.00    +0.210 HD
ENDBRANCH  26  31
BRANCH  27  33
ATOM     33  O   UNL     1       4.185 -13.708  10.744  0.00  0.00    -0.386 OA
ATOM     34  H   UNL     1       4.361 -14.575  11.137  0.00  0.00    +0.210 HD
ENDBRANCH  27  33
BRANCH  28  35
ATOM     35  O   UNL     1       6.800 -12.664  10.520  0.00  0.00    -0.386 OA
ATOM     36  H   UNL     1       6.426 -12.736  11.409  0.00  0.00    +0.210 HD
ENDBRANCH  28  35
BRANCH  30  37
ATOM     37  O   UNL     1       7.113 -11.060   8.630  0.00  0.00    -0.386 OA
ATOM     38  H   UNL     1       8.070 -11.087   8.766  0.00  0.00    +0.210 HD
ENDBRANCH  30  37
BRANCH  29  39
ATOM     39  O   UNL     1       8.389 -13.566   8.366  0.00  0.00    -0.275 OA
BRANCH  39  40
ATOM     40  P   UNL     1       9.247 -14.672   7.570  0.00  0.00    +0.532 P 
ATOM     41  O   UNL     1       8.665 -16.096   7.864  0.00  0.00    -0.222 OA
ATOM     42  O   UNL     1       9.170 -14.384   6.032  0.00  0.00    -0.115 OA
ATOM     43  O   UNL     1      10.741 -14.611   8.038  0.00  0.00    -0.115 OA
ENDBRANCH  39  40
ENDBRANCH  29  39
ENDBRANCH  24  25
ENDBRANCH   1  24
TORSDOF 24
