REMARK  Name = ZINC39771776
REMARK  16 active torsions:
REMARK  status: ('A' for Active; 'I' for Inactive)
REMARK    1  A    between atoms: C_1  and  C_2
REMARK    2  A    between atoms: C_2  and  O_3
REMARK    3  A    between atoms: O_3  and  C_4
REMARK    4  A    between atoms: C_4  and  C_6
REMARK    5  A    between atoms: C_7  and  C_14
REMARK    6  A    between atoms: C_8  and  C_13
REMARK    7  A    between atoms: C_10  and  C_12
REMARK    8  A    between atoms: C_14  and  C_16
REMARK    9  A    between atoms: C_16  and  S_17
REMARK   10  A    between atoms: S_17  and  C_18
REMARK   11  A    between atoms: C_21  and  C_30
REMARK   12  A    between atoms: N_22  and  C_23
REMARK   13  A    between atoms: C_30  and  C_32
REMARK   14  A    between atoms: C_30  and  N_33
REMARK   15  A    between atoms: N_33  and  C_34
REMARK   16  A    between atoms: N_33  and  C_35
REMARK                            x       y       z     vdW  Elec       q    Type
REMARK                         _______ _______ _______ _____ _____    ______ ____
ROOT
ATOM      1  C   UNL     1       0.500  -8.834  -3.160  0.00  0.00    +0.196 A 
ATOM      2  N   UNL     1       1.304  -9.003  -4.184  0.00  0.00    -0.122 NA
ATOM      3  N   UNL     1       1.312 -10.239  -4.535  0.00  0.00    -0.135 NA
ATOM      4  C   UNL     1       0.520 -10.930  -3.765  0.00  0.00    +0.125 A 
ATOM      5  N   UNL     1      -0.023 -10.061  -2.856  0.00  0.00    -0.275 N 
ENDROOT
BRANCH   5   6
ATOM      6  C   UNL     1      -0.928 -10.366  -1.828  0.00  0.00    +0.050 A 
ATOM      7  C   UNL     1      -0.538 -11.185  -0.778  0.00  0.00    +0.028 A 
ATOM      8  C   UNL     1      -1.431 -11.484   0.232  0.00  0.00    +0.022 A 
ATOM      9  C   UNL     1      -2.714 -10.966   0.199  0.00  0.00    +0.041 A 
ATOM     10  C   UNL     1      -3.105 -10.148  -0.847  0.00  0.00    +0.022 A 
ATOM     11  C   UNL     1      -2.214  -9.843  -1.857  0.00  0.00    +0.028 A 
ATOM     12 CL   UNL     1      -3.834 -11.343   1.470  0.00  0.00    -0.084 Cl
ENDBRANCH   5   6
BRANCH   4  13
ATOM     13  C   UNL     1       0.255 -12.410  -3.854  0.00  0.00    -0.003 C 
ATOM     14  C   UNL     1      -0.660 -12.694  -5.047  0.00  0.00    -0.005 C 
BRANCH  13  15
ATOM     15  N   UNL     1       1.526 -13.125  -4.031  0.00  0.00    +0.382 N 
ATOM     16  C   UNL     1       2.405 -12.853  -2.886  0.00  0.00    -0.096 C 
ATOM     17  C   UNL     1       1.268 -14.569  -4.118  0.00  0.00    -0.096 C 
ATOM     18  H   UNL     1       1.973 -12.812  -4.880  0.00  0.00    -0.082 HD
ENDBRANCH  13  15
ENDBRANCH   4  13
BRANCH   1  19
ATOM     19  S   UNL     1       0.163  -7.316  -2.331  0.00  0.00    -0.078 S 
BRANCH  19  20
ATOM     20  C   UNL     1       1.164  -6.096  -3.224  0.00  0.00    +0.157 C 
BRANCH  20  21
ATOM     21  C   UNL     1       0.966  -4.735  -2.608  0.00  0.00    +0.176 C 
ATOM     22  O   UNL     1       0.315  -4.619  -1.597  0.00  0.00    -0.291 OA
BRANCH  21  24
ATOM     23  C   UNL     1       1.372  -2.254  -2.848  0.00  0.00    +0.073 C 
ATOM     24  C   UNL     1       1.567  -3.545  -3.240  0.00  0.00    +0.051 C 
ATOM     25  C   UNL     1       2.477  -3.555  -4.396  0.00  0.00    +0.045 C 
ATOM     26  N   UNL     1       2.834  -2.361  -4.718  0.00  0.00    -0.280 NA
ATOM     27  C   UNL     1       2.188  -1.412  -3.803  0.00  0.00    +0.140 C 
ATOM     28  C   UNL     1       1.277  -0.461  -4.580  0.00  0.00    +0.038 C 
ATOM     29  C   UNL     1       2.931  -4.802  -5.111  0.00  0.00    +0.066 C 
BRANCH  23  30
ATOM     30  C   UNL     1       0.534  -1.779  -1.731  0.00  0.00    +0.338 C 
ATOM     31  O   UNL     1      -0.070  -2.576  -1.042  0.00  0.00    -0.245 OA
BRANCH  30  32
ATOM     32  O   UNL     1       0.439  -0.459  -1.474  0.00  0.00    -0.462 OA
BRANCH  32  34
ATOM     33  C   UNL     1      -0.373   1.455  -0.242  0.00  0.00    +0.048 C 
ATOM     34  C   UNL     1      -0.390  -0.069  -0.378  0.00  0.00    +0.229 C 
ENDBRANCH  32  34
ENDBRANCH  30  32
ENDBRANCH  23  30
ENDBRANCH  21  24
ENDBRANCH  20  21
ENDBRANCH  19  20
ENDBRANCH   1  19
TORSDOF 10
