REMARK  Name = ZINC01062120
REMARK  8 active torsions:
REMARK  status: ('A' for Active; 'I' for Inactive)
REMARK    1  A    between atoms: C_4  and  C_7
REMARK    2  A    between atoms: C_10  and  C_36
REMARK    3  A    between atoms: C_14  and  C_17
REMARK    4  A    between atoms: N_19  and  C_20
REMARK    5  A    between atoms: N_23  and  C_25
REMARK    6  A    between atoms: C_25  and  C_26
REMARK    7  A    between atoms: N_28  and  C_29
REMARK    8  A    between atoms: C_29  and  C_30
REMARK                            x       y       z     vdW  Elec       q    Type
REMARK                         _______ _______ _______ _____ _____    ______ ____
ROOT
ATOM      1  C   UNL     1       3.711  -0.707  -0.038  0.00  0.00    +0.104 C 
ATOM      2  C   UNL     1       4.019  -1.179  -1.463  0.00  0.00    +0.063 C 
ATOM      3  C   UNL     1       5.381  -1.881  -1.496  0.00  0.00    +0.215 C 
ATOM      4  N   UNL     1       5.428  -2.874  -0.418  0.00  0.00    -0.238 N 
ATOM      5  C   UNL     1       4.602  -2.858   0.654  0.00  0.00    +0.130 A 
ATOM      6  C   UNL     1       4.931  -3.938   1.452  0.00  0.00    +0.096 A 
ATOM      7  C   UNL     1       6.001  -4.610   0.809  0.00  0.00    +0.149 A 
ATOM      8  N   UNL     1       6.282  -3.969  -0.293  0.00  0.00    -0.177 NA
ATOM      9  N   UNL     1       3.630  -1.889   0.844  0.00  0.00    -0.322 N 
ATOM     10  H   UNL     1       2.935  -1.982   1.514  0.00  0.00    +0.148 HD
ENDROOT
BRANCH   1  14
ATOM     11  C   UNL     1      -0.017   1.378   0.010  0.00  0.00    +0.000 A 
ATOM     12  C   UNL     1       1.171   2.086   0.002  0.00  0.00    +0.000 A 
ATOM     13  C   UNL     1       2.377   1.411  -0.013  0.00  0.00    +0.005 A 
ATOM     14  C   UNL     1       2.396   0.029  -0.020  0.00  0.00    -0.027 A 
ATOM     15  C   UNL     1       1.208  -0.679  -0.012  0.00  0.00    +0.005 A 
ATOM     16  C   UNL     1       0.002  -0.004   0.002  0.00  0.00    +0.000 A 
ENDBRANCH   1  14
BRANCH   6  17
ATOM     17  C   UNL     1       4.295  -4.316   2.720  0.00  0.00    +0.253 C 
ATOM     18  O   UNL     1       3.380  -3.649   3.165  0.00  0.00    -0.270 OA
ATOM     19  N   UNL     1       4.726  -5.402   3.392  0.00  0.00    -0.279 N 
ATOM     20  H   UNL     1       5.455  -5.934   3.037  0.00  0.00    +0.155 HD
BRANCH  19  21
ATOM     21  C   UNL     1       4.116  -5.765   4.608  0.00  0.00    +0.072 A 
ATOM     22  C   UNL     1       3.054  -5.095   5.231  0.00  0.00    +0.157 A 
ATOM     23  N   UNL     1       2.762  -5.726   6.339  0.00  0.00    -0.177 NA
ATOM     24  N   UNL     1       3.627  -6.821   6.464  0.00  0.00    -0.261 N 
ATOM     25  C   UNL     1       4.449  -6.829   5.383  0.00  0.00    +0.132 A 
BRANCH  24  26
ATOM     26  C   UNL     1       3.638  -7.790   7.563  0.00  0.00    +0.239 C 
BRANCH  26  27
ATOM     27  C   UNL     1       3.783  -7.061   8.874  0.00  0.00    +0.235 C 
ATOM     28  O   UNL     1       3.869  -5.851   8.889  0.00  0.00    -0.274 OA
ATOM     29  N   UNL     1       3.818  -7.754  10.030  0.00  0.00    -0.307 N 
ATOM     30  H   UNL     1       3.750  -8.721  10.018  0.00  0.00    +0.149 HD
BRANCH  29  31
ATOM     31  C   UNL     1       3.959  -7.045  11.304  0.00  0.00    +0.178 C 
BRANCH  31  32
ATOM     32  C   UNL     1       3.971  -8.042  12.434  0.00  0.00    +0.122 A 
ATOM     33  C   UNL     1       5.064  -8.633  12.950  0.00  0.00    +0.046 A 
ATOM     34  C   UNL     1       4.617  -9.488  13.984  0.00  0.00    +0.041 A 
ATOM     35  C   UNL     1       3.278  -9.367  14.039  0.00  0.00    +0.195 A 
ATOM     36  O   UNL     1       2.893  -8.485  13.102  0.00  0.00    -0.466 OA
ENDBRANCH  31  32
ENDBRANCH  29  31
ENDBRANCH  26  27
ENDBRANCH  24  26
ENDBRANCH  19  21
ENDBRANCH   6  17
BRANCH   3  37
ATOM     37  C   UNL     1       5.568  -2.575  -2.846  0.00  0.00    +0.412 C 
ATOM     38  F   UNL     1       5.510  -1.625  -3.871  0.00  0.00    -0.168 F 
ATOM     39  F   UNL     1       6.812  -3.215  -2.873  0.00  0.00    -0.168 F 
ATOM     40  F   UNL     1       4.553  -3.521  -3.028  0.00  0.00    -0.168 F 
ENDBRANCH   3  37
TORSDOF 8
