REMARK  Name = ZINC49671741
REMARK  4 active torsions:
REMARK  status: ('A' for Active; 'I' for Inactive)
REMARK    1  A    between atoms: C_1  and  C_2
REMARK    2  A    between atoms: C_6  and  C_7
REMARK    3  A    between atoms: C_8  and  C_14
REMARK    4  A    between atoms: C_9  and  N_13
REMARK                            x       y       z     vdW  Elec       q    Type
REMARK                         _______ _______ _______ _____ _____    ______ ____
ROOT
ATOM      1  C   UNL     1       0.032  -0.386   2.500  0.00  0.00    +0.137 A 
ATOM      2  C   UNL     1       0.060  -1.238   3.635  0.00  0.00    +0.054 A 
ATOM      3  C   UNL     1       0.059  -0.428   4.755  0.00  0.00    +0.120 A 
ATOM      4  N   UNL     1       0.031   0.860   4.325  0.00  0.00    -0.263 N 
ATOM      5  H   UNL     1       0.024   1.647   4.892  0.00  0.00    +0.190 HD
ATOM      6  N   UNL     1       0.020   0.859   2.926  0.00  0.00    -0.168 NA
ENDROOT
BRANCH   2   7
ATOM      7  C   UNL     1       0.086  -2.720   3.622  0.00  0.00    +0.023 A 
ATOM      8  C   UNL     1       1.303  -3.398   3.607  0.00  0.00    +0.011 A 
ATOM      9  C   UNL     1       1.321  -4.778   3.595  0.00  0.00    +0.001 A 
ATOM     10  C   UNL     1       0.135  -5.489   3.597  0.00  0.00    +0.003 A 
ATOM     11  C   UNL     1      -1.078  -4.823   3.611  0.00  0.00    +0.039 A 
ATOM     12  C   UNL     1      -1.109  -3.442   3.629  0.00  0.00    +0.131 A 
ATOM     13  F   UNL     1      -2.293  -2.792   3.649  0.00  0.00    -0.205 F 
ENDBRANCH   2   7
BRANCH   1  19
ATOM     14  C   UNL     1      -0.018   1.503   0.010  0.00  0.00    +0.048 C 
ATOM     15  C   UNL     1       0.002  -0.004   0.002  0.00  0.00    -0.003 A 
ATOM     16  C   UNL     1       0.009  -0.839  -1.134  0.00  0.00    +0.045 A 
ATOM     17  C   UNL     1       0.028  -2.110  -0.689  0.00  0.00    +0.196 A 
ATOM     18  O   UNL     1       0.033  -2.096   0.654  0.00  0.00    -0.461 OA
ATOM     19  C   UNL     1       0.024  -0.821   1.089  0.00  0.00    +0.158 A 
ENDBRANCH   1  19
BRANCH   3  20
ATOM     20  N   UNL     1       0.081  -0.853   6.077  0.00  0.00    -0.343 N 
ATOM     21  H   UNL     1       0.099  -1.801   6.281  0.00  0.00    +0.144 HD
ATOM     22  H   UNL     1       0.078  -0.202   6.795  0.00  0.00    +0.144 HD
ENDBRANCH   3  20
TORSDOF 3
