REMARK  Name = ZINC13148220
REMARK  8 active torsions:
REMARK  status: ('A' for Active; 'I' for Inactive)
REMARK    1  A    between atoms: C_1  and  C_2
REMARK    2  A    between atoms: C_2  and  C_3
REMARK    3  A    between atoms: C_3  and  N_4
REMARK    4  A    between atoms: C_13  and  C_15
REMARK    5  A    between atoms: N_17  and  N_18
REMARK    6  A    between atoms: C_19  and  C_21
REMARK    7  A    between atoms: N_30  and  C_32
REMARK    8  A    between atoms: C_32  and  C_33
REMARK                            x       y       z     vdW  Elec       q    Type
REMARK                         _______ _______ _______ _____ _____    ______ ____
ROOT
ATOM      1  N   UNL     1       4.884   1.140  -0.037  0.00  0.00    -0.229 N 
ATOM      2  C   UNL     1       3.780   1.914  -0.023  0.00  0.00    +0.281 C 
ATOM      3  O   UNL     1       3.888   3.125  -0.017  0.00  0.00    -0.267 OA
ATOM      4  H   UNL     1       4.798   0.174  -0.041  0.00  0.00    +0.173 HD
ENDROOT
BRANCH   2   5
ATOM      5  C   UNL     1       2.442   1.291  -0.014  0.00  0.00    +0.155 A 
ATOM      6  C   UNL     1       1.231   2.128   0.002  0.00  0.00    +0.020 A 
ATOM      7  C   UNL     1       1.277   3.518   0.009  0.00  0.00    +0.011 A 
ATOM      8  C   UNL     1       0.098   4.233   0.025  0.00  0.00    +0.001 A 
ATOM      9  C   UNL     1      -1.129   3.582   0.033  0.00  0.00    +0.001 A 
ATOM     10  C   UNL     1      -1.196   2.205   0.031  0.00  0.00    +0.014 A 
ATOM     11  C   UNL     1      -0.018   1.465   0.010  0.00  0.00    +0.050 A 
ATOM     12  C   UNL     1       0.002  -0.004   0.002  0.00  0.00    +0.275 A 
ATOM     13  O   UNL     1      -1.035  -0.641   0.008  0.00  0.00    -0.266 OA
ATOM     14  N   UNL     1       1.197  -0.630  -0.013  0.00  0.00    -0.224 N 
ATOM     15  N   UNL     1       2.318  -0.014  -0.020  0.00  0.00    -0.163 NA
BRANCH  14  16
ATOM     16  C   UNL     1       1.211  -2.095  -0.021  0.00  0.00    +0.182 C 
BRANCH  16  17
ATOM     17  C   UNL     1       1.203  -2.590  -1.444  0.00  0.00    -0.026 A 
ATOM     18  C   UNL     1       0.002  -2.834  -2.084  0.00  0.00    +0.005 A 
ATOM     19  C   UNL     1      -0.006  -3.283  -3.391  0.00  0.00    +0.000 A 
ATOM     20  C   UNL     1       1.187  -3.498  -4.055  0.00  0.00    +0.000 A 
ATOM     21  C   UNL     1       2.388  -3.259  -3.414  0.00  0.00    +0.000 A 
ATOM     22  C   UNL     1       2.396  -2.805  -2.108  0.00  0.00    +0.005 A 
ENDBRANCH  16  17
ENDBRANCH  14  16
ENDBRANCH   2   5
BRANCH   1  25
ATOM     23  C   UNL     1       7.257   0.957  -0.060  0.00  0.00    +0.281 C 
ATOM     24  O   UNL     1       7.150  -0.254  -0.065  0.00  0.00    -0.267 OA
ATOM     25  N   UNL     1       6.154   1.731  -0.045  0.00  0.00    -0.229 N 
ATOM     26  H   UNL     1       6.239   2.697  -0.041  0.00  0.00    +0.173 HD
BRANCH  23  36
ATOM     27  N   UNL     1       9.841   3.501  -0.070  0.00  0.00    -0.228 N 
ATOM     28  C   UNL     1      11.036   2.875  -0.084  0.00  0.00    +0.275 A 
ATOM     29  O   UNL     1      12.073   3.512  -0.090  0.00  0.00    -0.266 OA
ATOM     30  C   UNL     1      11.056   1.405  -0.092  0.00  0.00    +0.050 A 
ATOM     31  C   UNL     1      12.234   0.665  -0.106  0.00  0.00    +0.014 A 
ATOM     32  C   UNL     1      12.167  -0.712  -0.113  0.00  0.00    +0.001 A 
ATOM     33  C   UNL     1      10.940  -1.363  -0.104  0.00  0.00    +0.001 A 
ATOM     34  C   UNL     1       9.761  -0.647  -0.090  0.00  0.00    +0.011 A 
ATOM     35  C   UNL     1       9.806   0.743  -0.078  0.00  0.00    +0.020 A 
ATOM     36  C   UNL     1       8.596   1.579  -0.069  0.00  0.00    +0.155 A 
ATOM     37  N   UNL     1       8.720   2.885  -0.063  0.00  0.00    -0.163 NA
BRANCH  27  38
ATOM     38  C   UNL     1       9.827   4.966  -0.061  0.00  0.00    +0.147 C 
BRANCH  38  40
ATOM     39  C   UNL     1       9.793   7.014  -1.492  0.00  0.00    +0.005 C 
ATOM     40  C   UNL     1       9.808   5.484  -1.501  0.00  0.00    +0.020 C 
ENDBRANCH  38  40
ENDBRANCH  27  38
ENDBRANCH  23  36
ENDBRANCH   1  25
TORSDOF 7
