REMARK  Name = ZINC31047190
REMARK  8 active torsions:
REMARK  status: ('A' for Active; 'I' for Inactive)
REMARK    1  A    between atoms: C_1  and  C_2
REMARK    2  A    between atoms: C_9  and  C_36
REMARK    3  A    between atoms: C_9  and  C_37
REMARK    4  A    between atoms: C_11  and  N_13
REMARK    5  A    between atoms: C_14  and  C_16
REMARK    6  A    between atoms: N_21  and  C_23
REMARK    7  A    between atoms: C_23  and  C_24
REMARK    8  A    between atoms: C_26  and  C_29
REMARK                            x       y       z     vdW  Elec       q    Type
REMARK                         _______ _______ _______ _____ _____    ______ ____
ROOT
ATOM      1  C   UNL     1       2.775  -3.956  -2.916  0.00  0.00    +0.058 C 
ATOM      2  C   UNL     1       3.432  -2.902  -3.812  0.00  0.00    +0.009 C 
ATOM      3  C   UNL     1       2.655  -1.587  -3.694  0.00  0.00    -0.018 C 
ATOM      4  C   UNL     1       2.629  -1.146  -2.229  0.00  0.00    -0.078 C 
ATOM      5  N   UNL     1       1.991  -2.187  -1.414  0.00  0.00    +0.386 N 
ATOM      6  C   UNL     1       2.746  -3.445  -1.474  0.00  0.00    -0.065 C 
ATOM      7  H   UNL     1       0.992  -2.375  -1.833  0.00  0.00    -0.081 HD
ENDROOT
BRANCH   1   9
ATOM      8  N   UNL     1       3.728  -5.870  -4.159  0.00  0.00    -0.308 N 
ATOM      9  C   UNL     1       3.567  -5.236  -2.981  0.00  0.00    +0.215 C 
ATOM     10  O   UNL     1       4.060  -5.696  -1.973  0.00  0.00    -0.276 OA
ATOM     11  H   UNL     1       3.281  -5.454  -5.074  0.00  0.00    +0.149 HD
BRANCH   8  22
ATOM     12  C   UNL     1      10.115  -5.801  -4.665  0.00  0.00    +0.044 C 
ATOM     13  C   UNL     1       8.653  -6.149  -4.559  0.00  0.00    -0.047 A 
ATOM     14  C   UNL     1       7.835  -5.443  -3.697  0.00  0.00    +0.004 A 
ATOM     15  C   UNL     1       6.495  -5.764  -3.598  0.00  0.00    +0.009 A 
ATOM     16  C   UNL     1       5.964  -6.792  -4.360  0.00  0.00    +0.015 A 
ATOM     17  C   UNL     1       6.780  -7.498  -5.226  0.00  0.00    +0.126 A 
ATOM     18  C   UNL     1       8.130  -7.173  -5.322  0.00  0.00    +0.049 A 
ATOM     19  O   UNL     1       6.300  -8.506  -6.000  0.00  0.00    -0.486 OA
ATOM     20  C   UNL     1       5.041  -9.079  -5.644  0.00  0.00    +0.107 C 
ATOM     21  C   UNL     1       4.036  -7.940  -5.426  0.00  0.00    +0.074 C 
ATOM     22  C   UNL     1       4.498  -7.115  -4.222  0.00  0.00    +0.110 C 
ATOM     23  C   UNL     1       4.551  -9.989  -6.772  0.00  0.00    +0.055 C 
ATOM     24  C   UNL     1       5.189  -9.890  -4.355  0.00  0.00    +0.055 C 
ENDBRANCH   8  22
ENDBRANCH   1   9
BRANCH   5  25
ATOM     25  C   UNL     1       1.824  -1.739  -0.025  0.00  0.00    +0.022 C 
BRANCH  25  26
ATOM     26  C   UNL     1       1.268  -0.339  -0.012  0.00  0.00    +0.211 A 
ATOM     27  N   UNL     1       0.002  -0.004   0.002  0.00  0.00    -0.193 NA
ATOM     28  C   UNL     1      -0.016   1.348   0.009  0.00  0.00    +0.202 A 
ATOM     29  N   UNL     1       1.228   1.751  -0.000  0.00  0.00    -0.056 NA
ATOM     30  O   UNL     1       1.975   0.796  -0.013  0.00  0.00    -0.340 OA
BRANCH  28  31
ATOM     31  C   UNL     1      -1.222   2.213   0.020  0.00  0.00    +0.023 A 
ATOM     32  C   UNL     1      -2.493   1.640   0.017  0.00  0.00    +0.013 A 
ATOM     33  C   UNL     1      -3.611   2.448   0.033  0.00  0.00    +0.021 A 
ATOM     34  C   UNL     1      -3.473   3.826   0.039  0.00  0.00    +0.041 A 
ATOM     35  C   UNL     1      -2.212   4.399   0.036  0.00  0.00    +0.021 A 
ATOM     36  C   UNL     1      -1.088   3.600   0.027  0.00  0.00    +0.013 A 
ATOM     37 CL   UNL     1      -4.883   4.837   0.052  0.00  0.00    -0.084 Cl
ENDBRANCH  28  31
ENDBRANCH  25  26
ENDBRANCH   5  25
TORSDOF 5
