REMARK  Name = ZINC44937556
REMARK  7 active torsions:
REMARK  status: ('A' for Active; 'I' for Inactive)
REMARK    1  A    between atoms: C_1  and  C_2
REMARK    2  A    between atoms: C_7  and  C_8
REMARK    3  A    between atoms: C_8  and  C_10
REMARK    4  A    between atoms: C_8  and  N_16
REMARK    5  A    between atoms: C_17  and  C_19
REMARK    6  A    between atoms: N_24  and  C_26
REMARK    7  A    between atoms: C_26  and  C_27
REMARK                            x       y       z     vdW  Elec       q    Type
REMARK                         _______ _______ _______ _____ _____    ______ ____
ROOT
ATOM      1  N   UNL     1      -0.537  -0.808   3.554  0.00  0.00    -0.304 N 
ATOM      2  C   UNL     1      -1.190  -0.255   4.595  0.00  0.00    +0.215 C 
ATOM      3  O   UNL     1      -1.312   0.950   4.663  0.00  0.00    -0.276 OA
ATOM      4  H   UNL     1      -0.440  -1.772   3.500  0.00  0.00    +0.150 HD
ENDROOT
BRANCH   2   5
ATOM      5  C   UNL     1      -1.768  -1.133   5.675  0.00  0.00    +0.058 C 
ATOM      6  C   UNL     1      -2.797  -2.087   5.061  0.00  0.00    +0.009 C 
ATOM      7  C   UNL     1      -3.435  -2.920   6.177  0.00  0.00    -0.018 C 
ATOM      8  C   UNL     1      -4.059  -1.982   7.213  0.00  0.00    -0.078 C 
ATOM      9  N   UNL     1      -3.021  -1.114   7.781  0.00  0.00    +0.383 N 
ATOM     10  C   UNL     1      -2.453  -0.261   6.730  0.00  0.00    -0.066 C 
ATOM     11  H   UNL     1      -2.290  -1.683   8.181  0.00  0.00    -0.081 HD
BRANCH   9  12
ATOM     12  C   UNL     1      -3.610  -0.270   8.829  0.00  0.00    -0.043 C 
BRANCH  12  13
ATOM     13  C   UNL     1      -4.073  -1.137   9.971  0.00  0.00    -0.064 A 
ATOM     14  C   UNL     1      -5.358  -1.647   9.974  0.00  0.00    +0.003 A 
ATOM     15  C   UNL     1      -5.784  -2.443  11.021  0.00  0.00    +0.015 A 
ATOM     16  C   UNL     1      -4.924  -2.730  12.065  0.00  0.00    +0.018 A 
ATOM     17  C   UNL     1      -3.638  -2.220  12.062  0.00  0.00    +0.015 A 
ATOM     18  C   UNL     1      -3.212  -1.428  11.012  0.00  0.00    +0.003 A 
ATOM     19 BR   UNL     1      -5.506  -3.818  13.498  0.00  0.00    -0.050 Br
ENDBRANCH  12  13
ENDBRANCH   9  12
ENDBRANCH   2   5
BRANCH   1  20
ATOM     20  C   UNL     1       0.025   0.045   2.504  0.00  0.00    +0.134 C 
BRANCH  20  27
ATOM     21  C   UNL     1      -0.100   1.446  -0.019  0.00  0.00    +0.044 C 
ATOM     22  C   UNL     1       0.029  -0.055   0.003  0.00  0.00    -0.045 A 
ATOM     23  C   UNL     1       0.093  -0.762  -1.183  0.00  0.00    +0.004 A 
ATOM     24  C   UNL     1       0.211  -2.139  -1.162  0.00  0.00    +0.000 A 
ATOM     25  C   UNL     1       0.265  -2.810   0.045  0.00  0.00    +0.000 A 
ATOM     26  C   UNL     1       0.202  -2.103   1.232  0.00  0.00    +0.006 A 
ATOM     27  C   UNL     1       0.089  -0.726   1.211  0.00  0.00    -0.020 A 
ENDBRANCH  20  27
BRANCH  20  28
ATOM     28  C   UNL     1       1.413   0.478   2.899  0.00  0.00    -0.023 A 
ATOM     29  C   UNL     1       2.270  -0.418   3.509  0.00  0.00    +0.006 A 
ATOM     30  C   UNL     1       3.544  -0.021   3.872  0.00  0.00    +0.000 A 
ATOM     31  C   UNL     1       3.960   1.274   3.623  0.00  0.00    +0.000 A 
ATOM     32  C   UNL     1       3.104   2.170   3.013  0.00  0.00    +0.000 A 
ATOM     33  C   UNL     1       1.832   1.772   2.646  0.00  0.00    +0.006 A 
ENDBRANCH  20  28
ENDBRANCH   1  20
TORSDOF 6
