REMARK  Name = ZINC20928651
REMARK  7 active torsions:
REMARK  status: ('A' for Active; 'I' for Inactive)
REMARK    1  A    between atoms: C_1  and  C_2
REMARK    2  A    between atoms: C_5  and  N_8
REMARK    3  A    between atoms: N_12  and  S_27
REMARK    4  A    between atoms: C_14  and  C_15
REMARK    5  A    between atoms: C_14  and  C_16
REMARK    6  A    between atoms: N_18  and  C_19
REMARK    7  A    between atoms: S_27  and  C_30
REMARK                            x       y       z     vdW  Elec       q    Type
REMARK                         _______ _______ _______ _____ _____    ______ ____
ROOT
ATOM      1  N   UNL     1      -0.976   1.849   4.113  0.00  0.00    -0.255 N 
ATOM      2  C   UNL     1      -0.840   3.048   3.545  0.00  0.00    +0.236 C 
ATOM      3  O   UNL     1      -0.642   4.008   4.259  0.00  0.00    -0.274 OA
ATOM      4  C   UNL     1      -0.915   3.263   2.061  0.00  0.00    +0.205 C 
ATOM      5  N   UNL     1      -0.855   1.959   1.383  0.00  0.00    -0.165 NA
ATOM      6  C   UNL     1      -1.641   0.858   1.964  0.00  0.00    +0.145 C 
ATOM      7  C   UNL     1      -1.125   0.599   3.381  0.00  0.00    +0.129 C 
ATOM      8  C   UNL     1      -2.116  -0.302   4.120  0.00  0.00    +0.043 C 
ENDROOT
BRANCH   1  13
ATOM      9  C   UNL     1      -0.970   1.602   9.781  0.00  0.00    +0.044 C 
ATOM     10  C   UNL     1      -0.971   1.667   8.275  0.00  0.00    -0.050 A 
ATOM     11  C   UNL     1       0.181   2.024   7.599  0.00  0.00    +0.005 A 
ATOM     12  C   UNL     1       0.183   2.085   6.219  0.00  0.00    +0.024 A 
ATOM     13  C   UNL     1      -0.974   1.788   5.511  0.00  0.00    +0.037 A 
ATOM     14  C   UNL     1      -2.131   1.435   6.193  0.00  0.00    +0.024 A 
ATOM     15  C   UNL     1      -2.125   1.371   7.573  0.00  0.00    +0.005 A 
ENDBRANCH   1  13
BRANCH   7  16
ATOM     16  C   UNL     1       0.211  -0.094   3.303  0.00  0.00    +0.238 C 
ATOM     17  O   UNL     1       0.499  -0.748   2.323  0.00  0.00    -0.273 OA
ATOM     18  N   UNL     1       1.086   0.014   4.322  0.00  0.00    -0.311 N 
ATOM     19  H   UNL     1       0.825   0.608   5.211  0.00  0.00    +0.149 HD
BRANCH  18  20
ATOM     20  C   UNL     1       2.385  -0.659   4.247  0.00  0.00    +0.073 C 
ATOM     21  C   UNL     1       2.237  -2.107   4.720  0.00  0.00    +0.022 C 
ATOM     22  C   UNL     1       3.459  -2.914   4.279  0.00  0.00    +0.002 C 
ATOM     23  C   UNL     1       3.803  -2.570   2.828  0.00  0.00    +0.000 C 
ATOM     24  C   UNL     1       5.146  -1.838   2.783  0.00  0.00    +0.000 C 
ATOM     25  C   UNL     1       4.956  -0.394   3.250  0.00  0.00    +0.000 C 
ATOM     26  C   UNL     1       4.809  -0.365   4.773  0.00  0.00    +0.002 C 
ATOM     27  C   UNL     1       3.390   0.070   5.141  0.00  0.00    +0.022 C 
ENDBRANCH  18  20
ENDBRANCH   7  16
BRANCH   5  28
ATOM     28  S   UNL     1       0.067   1.737   0.025  0.00  0.00    +0.061 S 
ATOM     29  O   UNL     1       0.365   0.349  -0.041  0.00  0.00    -0.153 OA
ATOM     30  O   UNL     1       1.079   2.734   0.053  0.00  0.00    -0.153 OA
BRANCH  28  31
ATOM     31  C   UNL     1      -0.957   2.098  -1.363  0.00  0.00    +0.105 A 
ATOM     32  C   UNL     1      -1.697   1.093  -1.957  0.00  0.00    +0.028 A 
ATOM     33  C   UNL     1      -2.503   1.377  -3.043  0.00  0.00    +0.002 A 
ATOM     34  C   UNL     1      -2.562   2.664  -3.542  0.00  0.00    +0.000 A 
ATOM     35  C   UNL     1      -1.818   3.669  -2.952  0.00  0.00    +0.002 A 
ATOM     36  C   UNL     1      -1.015   3.386  -1.863  0.00  0.00    +0.028 A 
ENDBRANCH  28  31
ENDBRANCH   5  28
TORSDOF 5
