REMARK  Name = ZINC63351362
REMARK  8 active torsions:
REMARK  status: ('A' for Active; 'I' for Inactive)
REMARK    1  A    between atoms: C_1  and  C_2
REMARK    2  A    between atoms: C_2  and  C_3
REMARK    3  A    between atoms: C_2  and  C_4
REMARK    4  A    between atoms: C_4  and  C_5
REMARK    5  A    between atoms: C_5  and  N_6
REMARK    6  A    between atoms: C_7  and  C_9
REMARK    7  A    between atoms: C_12  and  N_15
REMARK    8  A    between atoms: C_18  and  C_34
REMARK                            x       y       z     vdW  Elec       q    Type
REMARK                         _______ _______ _______ _____ _____    ______ ____
ROOT
ATOM      1  N   UNL     1      -8.317  -5.842  -0.179  0.00  0.00    -0.192 N 
ATOM      2  C   UNL     1      -8.649  -7.136  -0.366  0.00  0.00    +0.253 C 
ATOM      3  O   UNL     1      -7.898  -8.059  -0.602  0.00  0.00    -0.272 OA
ATOM      4  C   UNL     1     -10.153  -7.197  -0.221  0.00  0.00    +0.137 C 
ATOM      5  C   UNL     1     -10.798  -7.733  -1.498  0.00  0.00    +0.139 C 
ATOM      6  C   UNL     1     -11.554  -6.581  -2.143  0.00  0.00    -0.034 C 
ATOM      7  C   UNL     1     -11.078  -6.472  -3.382  0.00  0.00    -0.001 A 
ATOM      8  C   UNL     1     -11.456  -5.592  -4.499  0.00  0.00    +0.010 A 
ATOM      9  C   UNL     1     -10.743  -5.741  -5.646  0.00  0.00    +0.001 A 
ATOM     10  C   UNL     1      -9.703  -6.665  -5.791  0.00  0.00    +0.002 A 
ATOM     11  C   UNL     1      -9.292  -7.516  -4.818  0.00  0.00    +0.026 A 
ATOM     12  C   UNL     1      -9.970  -7.457  -3.566  0.00  0.00    +0.043 A 
ATOM     13  N   UNL     1      -9.796  -8.169  -2.474  0.00  0.00    -0.375 N 
ATOM     14  C   UNL     1     -12.572  -5.737  -1.417  0.00  0.00    +0.052 C 
ATOM     15  C   UNL     1     -11.912  -5.265  -0.106  0.00  0.00    +0.115 C 
ATOM     16  N   UNL     1     -10.539  -5.777  -0.082  0.00  0.00    -0.268 N 
ATOM     17  C   UNL     1      -9.400  -5.079   0.023  0.00  0.00    +0.316 C 
ATOM     18  O   UNL     1      -9.354  -3.890   0.270  0.00  0.00    -0.252 OA
ATOM     19  C   UNL     1     -10.561  -8.009   1.010  0.00  0.00    +0.044 C 
ATOM     20  H   UNL     1      -9.127  -8.856  -2.332  0.00  0.00    +0.160 HD
ENDROOT
BRANCH   1  24
ATOM     21  C   UNL     1      -4.406  -4.399  -0.207  0.00  0.00    +0.037 A 
ATOM     22  C   UNL     1      -5.480  -3.510  -0.117  0.00  0.00    +0.015 A 
ATOM     23  C   UNL     1      -6.770  -3.990  -0.108  0.00  0.00    +0.025 A 
ATOM     24  C   UNL     1      -7.005  -5.358  -0.188  0.00  0.00    +0.045 A 
ATOM     25  C   UNL     1      -5.939  -6.247  -0.277  0.00  0.00    +0.025 A 
ATOM     26  C   UNL     1      -4.646  -5.773  -0.293  0.00  0.00    +0.015 A 
BRANCH  21  28
ATOM     27  N   UNL     1      -2.791  -2.563  -0.135  0.00  0.00    -0.311 N 
ATOM     28  C   UNL     1      -3.021  -3.888  -0.217  0.00  0.00    +0.244 C 
ATOM     29  O   UNL     1      -2.088  -4.663  -0.301  0.00  0.00    -0.270 OA
ATOM     30  H   UNL     1      -3.535  -1.945  -0.068  0.00  0.00    +0.149 HD
BRANCH  27  31
ATOM     31  C   UNL     1      -1.417  -2.056  -0.145  0.00  0.00    +0.105 C 
BRANCH  31  32
ATOM     32  C   UNL     1      -1.435  -0.529  -0.040  0.00  0.00    +0.022 C 
BRANCH  32  34
ATOM     33  C   UNL     1      -0.021   1.530  -0.072  0.00  0.00    +0.007 C 
ATOM     34  C   UNL     1       0.000   0.000  -0.051  0.00  0.00    -0.016 C 
ATOM     35  C   UNL     1       0.731  -0.483   1.203  0.00  0.00    +0.007 C 
ENDBRANCH  32  34
ENDBRANCH  31  32
ENDBRANCH  27  31
ENDBRANCH  21  28
ENDBRANCH   1  24
TORSDOF 5
