REMARK  Name = ZINC27277256
REMARK  8 active torsions:
REMARK  status: ('A' for Active; 'I' for Inactive)
REMARK    1  A    between atoms: C_1  and  C_2
REMARK    2  A    between atoms: C_4  and  N_29
REMARK    3  A    between atoms: C_7  and  N_8
REMARK    4  A    between atoms: C_9  and  C_11
REMARK    5  A    between atoms: C_11  and  C_13
REMARK    6  A    between atoms: C_11  and  S_14
REMARK    7  A    between atoms: S_14  and  C_15
REMARK    8  A    between atoms: N_25  and  C_26
REMARK                            x       y       z     vdW  Elec       q    Type
REMARK                         _______ _______ _______ _____ _____    ______ ____
ROOT
ATOM      1  C   UNL     1       3.273   2.475  -0.345  0.00  0.00    +0.137 C 
ATOM      2  C   UNL     1       3.068   3.288  -1.625  0.00  0.00    +0.029 C 
ENDROOT
BRANCH   1   4
ATOM      3  N   UNL     1       5.705   2.592   0.094  0.00  0.00    -0.284 N 
ATOM      4  C   UNL     1       4.655   1.873  -0.349  0.00  0.00    +0.230 C 
ATOM      5  O   UNL     1       4.821   0.740  -0.750  0.00  0.00    -0.274 OA
ATOM      6  H   UNL     1       5.545   3.592   0.524  0.00  0.00    +0.155 HD
BRANCH   3  13
ATOM      7  C   UNL     1       7.885   4.413  -0.076  0.00  0.00    +0.046 C 
ATOM      8  C   UNL     1       8.091   2.921  -0.079  0.00  0.00    -0.027 A 
ATOM      9  C   UNL     1       9.368   2.399  -0.159  0.00  0.00    +0.038 A 
ATOM     10  C   UNL     1       9.558   1.030  -0.168  0.00  0.00    +0.127 A 
ATOM     11  C   UNL     1       8.472   0.177  -0.090  0.00  0.00    +0.034 A 
ATOM     12  C   UNL     1       7.193   0.692  -0.003  0.00  0.00    +0.026 A 
ATOM     13  C   UNL     1       6.999   2.067   0.006  0.00  0.00    +0.036 A 
BRANCH  10  14
ATOM     14  N   UNL     1      10.927   0.475  -0.261  0.00  0.00    +0.056 N 
ATOM     15  O   UNL     1      11.096  -0.731  -0.269  0.00  0.00    -0.126 OA
ATOM     16  O   UNL     1      11.885   1.224  -0.330  0.00  0.00    -0.126 OA
ENDBRANCH  10  14
ENDBRANCH   3  13
ENDBRANCH   1   4
BRANCH   1  17
ATOM     17  S   UNL     1       2.039   1.154  -0.265  0.00  0.00    -0.075 S 
BRANCH  17  18
ATOM     18  C   UNL     1       0.570   2.116  -0.122  0.00  0.00    +0.173 A 
ATOM     19  N   UNL     1       0.677   3.422  -0.108  0.00  0.00    -0.223 NA
ATOM     20  C   UNL     1      -0.405   4.218  -0.002  0.00  0.00    +0.079 A 
ATOM     21  C   UNL     1      -0.290   5.612   0.015  0.00  0.00    +0.028 A 
ATOM     22  C   UNL     1      -1.414   6.381   0.124  0.00  0.00    +0.002 A 
ATOM     23  C   UNL     1      -2.672   5.801   0.220  0.00  0.00    +0.001 A 
ATOM     24  C   UNL     1      -2.817   4.441   0.206  0.00  0.00    +0.015 A 
ATOM     25  C   UNL     1      -1.687   3.631   0.096  0.00  0.00    +0.065 A 
ATOM     26  C   UNL     1      -1.782   2.165   0.072  0.00  0.00    +0.263 A 
ATOM     27  O   UNL     1      -2.858   1.601   0.147  0.00  0.00    -0.267 OA
ATOM     28  N   UNL     1      -0.628   1.466  -0.033  0.00  0.00    -0.284 N 
BRANCH  28  29
ATOM     29  C   UNL     1      -0.664   0.001  -0.057  0.00  0.00    +0.093 C 
ATOM     30  C   UNL     1      -1.524  -0.701   0.996  0.00  0.00    +0.027 C 
ATOM     31  C   UNL     1       0.002  -0.741   1.103  0.00  0.00    +0.027 C 
ENDBRANCH  28  29
ENDBRANCH  17  18
ENDBRANCH   1  17
TORSDOF 6
