REMARK  Name = ZINC10026798
REMARK  8 active torsions:
REMARK  status: ('A' for Active; 'I' for Inactive)
REMARK    1  A    between atoms: C_1  and  C_2
REMARK    2  A    between atoms: C_2  and  C_4
REMARK    3  A    between atoms: C_2  and  S_16
REMARK    4  A    between atoms: N_6  and  C_7
REMARK    5  A    between atoms: S_16  and  C_17
REMARK    6  A    between atoms: C_20  and  C_28
REMARK    7  A    between atoms: N_21  and  C_22
REMARK    8  A    between atoms: C_22  and  C_23
REMARK                            x       y       z     vdW  Elec       q    Type
REMARK                         _______ _______ _______ _____ _____    ______ ____
ROOT
ATOM      1  C   UNL     1       8.886  -3.411   4.119  0.00  0.00    +0.193 A 
ATOM      2  N   UNL     1       9.355  -2.243   4.497  0.00  0.00    -0.122 NA
ATOM      3  N   UNL     1      10.478  -2.393   5.102  0.00  0.00    -0.128 NA
ATOM      4  C   UNL     1      10.796  -3.666   5.149  0.00  0.00    +0.167 A 
ATOM      5  N   UNL     1       9.783  -4.357   4.526  0.00  0.00    -0.295 N 
ENDROOT
BRANCH   4   6
ATOM      6  C   UNL     1      12.009  -4.247   5.761  0.00  0.00    +0.037 A 
ATOM      7  C   UNL     1      12.780  -3.500   6.660  0.00  0.00    +0.014 A 
ATOM      8  C   UNL     1      13.906  -4.090   7.206  0.00  0.00    +0.020 A 
ATOM      9  C   UNL     1      14.232  -5.387   6.850  0.00  0.00    +0.111 A 
ATOM     10  N   UNL     1      13.486  -6.067   6.000  0.00  0.00    -0.263 NA
ATOM     11  C   UNL     1      12.402  -5.551   5.458  0.00  0.00    +0.122 A 
ENDBRANCH   4   6
BRANCH   1  12
ATOM     12  S   UNL     1       7.378  -3.703   3.256  0.00  0.00    -0.073 S 
BRANCH  12  14
ATOM     13  C   UNL     1       6.469  -1.437   4.482  0.00  0.00    +0.029 C 
ATOM     14  C   UNL     1       6.775  -2.004   3.094  0.00  0.00    +0.137 C 
BRANCH  14  15
ATOM     15  C   UNL     1       5.520  -1.994   2.259  0.00  0.00    +0.230 C 
ATOM     16  O   UNL     1       4.827  -2.987   2.194  0.00  0.00    -0.274 OA
ATOM     17  N   UNL     1       5.168  -0.881   1.585  0.00  0.00    -0.284 N 
ATOM     18  H   UNL     1       5.757  -0.110   1.581  0.00  0.00    +0.155 HD
BRANCH  17  19
ATOM     19  C   UNL     1       3.952  -0.838   0.891  0.00  0.00    +0.037 A 
ATOM     20  C   UNL     1       3.469  -1.979   0.265  0.00  0.00    +0.027 A 
ATOM     21  C   UNL     1       2.270  -1.938  -0.420  0.00  0.00    +0.051 A 
ATOM     22  C   UNL     1       1.546  -0.758  -0.484  0.00  0.00    +0.166 A 
ATOM     23  C   UNL     1       2.028   0.388   0.143  0.00  0.00    +0.168 A 
ATOM     24  C   UNL     1       3.230   0.346   0.829  0.00  0.00    +0.072 A 
ATOM     25  O   UNL     1       1.141   1.405  -0.065  0.00  0.00    -0.453 OA
ATOM     26  C   UNL     1      -0.084   0.769  -0.476  0.00  0.00    +0.466 C 
ATOM     27  O   UNL     1       0.356  -0.459  -1.085  0.00  0.00    -0.453 OA
ENDBRANCH  17  19
ENDBRANCH  14  15
ENDBRANCH  12  14
ENDBRANCH   1  12
BRANCH   5  28
ATOM     28  C   UNL     1       9.688  -5.807   4.335  0.00  0.00    +0.200 C 
BRANCH  28  29
ATOM     29  C   UNL     1      10.192  -6.167   2.961  0.00  0.00    +0.125 A 
ATOM     30  C   UNL     1      11.433  -6.593   2.666  0.00  0.00    +0.046 A 
ATOM     31  C   UNL     1      11.468  -6.815   1.270  0.00  0.00    +0.041 A 
ATOM     32  C   UNL     1      10.249  -6.504   0.795  0.00  0.00    +0.195 A 
ATOM     33  O   UNL     1       9.480  -6.112   1.824  0.00  0.00    -0.466 OA
ENDBRANCH  28  29
ENDBRANCH   5  28
TORSDOF 7
