REMARK  Name = ZINC09358000
REMARK  7 active torsions:
REMARK  status: ('A' for Active; 'I' for Inactive)
REMARK    1  A    between atoms: C_1  and  O_2
REMARK    2  A    between atoms: O_2  and  C_3
REMARK    3  A    between atoms: C_6  and  C_10
REMARK    4  A    between atoms: N_15  and  C_16
REMARK    5  A    between atoms: C_16  and  N_18
REMARK    6  A    between atoms: C_19  and  C_21
REMARK    7  A    between atoms: C_26  and  N_27
REMARK                            x       y       z     vdW  Elec       q    Type
REMARK                         _______ _______ _______ _____ _____    ______ ____
ROOT
ATOM      1  C   UNL     1      -5.086  -2.468  -0.087  0.00  0.00    +0.055 A 
ATOM      2  C   UNL     1      -6.372  -1.750  -0.079  0.00  0.00    +0.074 A 
ATOM      3  S   UNL     1      -7.501  -2.996  -0.056  0.00  0.00    -0.060 S 
ATOM      4  C   UNL     1      -6.389  -4.388  -0.056  0.00  0.00    +0.162 A 
ATOM      5  N   UNL     1      -5.148  -3.804  -0.080  0.00  0.00    -0.335 N 
ATOM      6  N   UNL     1      -6.688  -5.671  -0.041  0.00  0.00    -0.169 NA
ATOM      7  H   UNL     1      -4.341  -4.343  -0.088  0.00  0.00    +0.168 HD
ENDROOT
BRANCH   1  11
ATOM      8  C   UNL     1      -1.435  -0.437  -0.144  0.00  0.00    +0.134 A 
ATOM      9  C   UNL     1      -2.632   0.285  -0.132  0.00  0.00    +0.047 A 
ATOM     10  C   UNL     1      -3.825  -0.370  -0.113  0.00  0.00    +0.013 A 
ATOM     11  C   UNL     1      -3.852  -1.782  -0.106  0.00  0.00    +0.000 A 
ATOM     12  C   UNL     1      -2.639  -2.505  -0.119  0.00  0.00    +0.029 A 
ATOM     13  C   UNL     1      -1.453  -1.836  -0.143  0.00  0.00    +0.060 A 
ATOM     14 BR   UNL     1       0.173  -2.801  -0.168  0.00  0.00    -0.046 Br
BRANCH   8  16
ATOM     15  C   UNL     1      -0.305   1.649  -0.162  0.00  0.00    +0.277 C 
ATOM     16  O   UNL     1      -0.253   0.221  -0.162  0.00  0.00    -0.494 OA
ENDBRANCH   8  16
ENDBRANCH   1  11
BRANCH   6  17
ATOM     17  C   UNL     1      -7.967  -6.061   0.086  0.00  0.00    +0.163 C 
ATOM     18  S   UNL     1      -9.222  -4.896   0.086  0.00  0.00    -0.016 S 
BRANCH  17  19
ATOM     19  N   UNL     1      -8.263  -7.370   0.214  0.00  0.00    -0.262 N 
ATOM     20  C   UNL     1      -9.546  -7.762   0.341  0.00  0.00    +0.252 C 
ATOM     21  O   UNL     1     -10.437  -6.935   0.341  0.00  0.00    -0.270 OA
ATOM     22  H   UNL     1      -7.552  -8.030   0.214  0.00  0.00    +0.157 HD
BRANCH  20  23
ATOM     23  C   UNL     1      -9.870  -9.197   0.481  0.00  0.00    +0.067 A 
ATOM     24  C   UNL     1      -9.436 -10.111  -0.481  0.00  0.00    +0.015 A 
ATOM     25  C   UNL     1      -9.742 -11.449  -0.344  0.00  0.00    +0.001 A 
ATOM     26  C   UNL     1     -10.478 -11.886   0.743  0.00  0.00    +0.002 A 
ATOM     27  C   UNL     1     -10.912 -10.985   1.700  0.00  0.00    +0.033 A 
ATOM     28  C   UNL     1     -10.607  -9.645   1.579  0.00  0.00    +0.138 A 
BRANCH  28  29
ATOM     29  N   UNL     1     -11.066  -8.684   2.607  0.00  0.00    +0.057 N 
ATOM     30  O   UNL     1     -11.873  -9.083   3.568  0.00  0.00    -0.126 OA
ATOM     31  O   UNL     1     -10.667  -7.430   2.561  0.00  0.00    -0.126 OA
ENDBRANCH  28  29
ENDBRANCH  20  23
ENDBRANCH  17  19
ENDBRANCH   6  17
TORSDOF 6
