REMARK  Name = ZINC24602276
REMARK  4 active torsions:
REMARK  status: ('A' for Active; 'I' for Inactive)
REMARK    1  A    between atoms: C_4  and  C_7
REMARK    2  A    between atoms: C_8  and  C_18
REMARK    3  A    between atoms: C_10  and  C_12
REMARK    4  A    between atoms: N_23  and  C_26
REMARK                            x       y       z     vdW  Elec       q    Type
REMARK                         _______ _______ _______ _____ _____    ______ ____
ROOT
ATOM      1  C   UNL     1       5.074   0.601   0.992  0.00  0.00    +0.091 A 
ATOM      2  C   UNL     1       4.142   0.130   1.925  0.00  0.00    +0.102 A 
ATOM      3  S   UNL     1       5.001   0.477   3.453  0.00  0.00    -0.062 S 
ATOM      4  C   UNL     1       6.429   1.181   2.760  0.00  0.00    +0.110 A 
ATOM      5  N   UNL     1       6.188   1.117   1.461  0.00  0.00    -0.238 NA
ENDROOT
BRANCH   2   6
ATOM      6  C   UNL     1       2.831  -0.483   1.708  0.00  0.00    +0.255 C 
ATOM      7  O   UNL     1       2.723  -1.695   1.677  0.00  0.00    -0.269 OA
ATOM      8  N   UNL     1       1.742   0.295   1.544  0.00  0.00    -0.295 N 
ATOM      9  C   UNL     1       0.400  -0.297   1.439  0.00  0.00    +0.123 C 
ATOM     10  C   UNL     1      -0.284   0.268   0.190  0.00  0.00    +0.104 C 
ATOM     11  N   UNL     1      -0.255   1.736   0.241  0.00  0.00    -0.295 NA
ATOM     12  C   UNL     1       1.123   2.243   0.215  0.00  0.00    +0.104 C 
ATOM     13  C   UNL     1       1.865   1.759   1.465  0.00  0.00    +0.123 C 
BRANCH  11  14
ATOM     14  C   UNL     1      -1.050   2.317  -0.850  0.00  0.00    +0.079 C 
ATOM     15  C   UNL     1      -2.487   1.772  -0.792  0.00  0.00    +0.043 C 
ATOM     16  C   UNL     1      -3.405   2.605  -1.719  0.00  0.00    +0.167 C 
ATOM     17  S   UNL     1      -2.584   4.251  -1.727  0.00  0.00    -0.029 S 
ATOM     18  O   UNL     1      -2.154   4.546  -3.048  0.00  0.00    -0.174 OA
ATOM     19  O   UNL     1      -3.406   5.181  -1.035  0.00  0.00    -0.174 OA
ATOM     20  C   UNL     1      -1.111   3.862  -0.690  0.00  0.00    +0.184 C 
ENDBRANCH  11  14
ENDBRANCH   2   6
BRANCH   1  24
ATOM     21  C   UNL     1       4.327   0.382  -3.187  0.00  0.00    +0.000 A 
ATOM     22  C   UNL     1       4.891   1.524  -2.647  0.00  0.00    +0.001 A 
ATOM     23  C   UNL     1       5.136   1.601  -1.291  0.00  0.00    +0.010 A 
ATOM     24  C   UNL     1       4.813   0.525  -0.465  0.00  0.00    +0.002 A 
ATOM     25  C   UNL     1       4.250  -0.626  -1.015  0.00  0.00    +0.010 A 
ATOM     26  C   UNL     1       4.005  -0.689  -2.372  0.00  0.00    +0.001 A 
ENDBRANCH   1  24
BRANCH   4  27
ATOM     27  C   UNL     1       7.621   1.717   3.451  0.00  0.00    +0.007 A 
ATOM     28  C   UNL     1       8.682   2.242   2.712  0.00  0.00    +0.010 A 
ATOM     29  C   UNL     1       9.790   2.746   3.363  0.00  0.00    +0.001 A 
ATOM     30  C   UNL     1       9.854   2.722   4.745  0.00  0.00    +0.000 A 
ATOM     31  C   UNL     1       8.807   2.198   5.483  0.00  0.00    +0.001 A 
ATOM     32  C   UNL     1       7.692   1.696   4.845  0.00  0.00    +0.010 A 
ENDBRANCH   4  27
TORSDOF 4
