REMARK  Name = ZINC47137760
REMARK  10 active torsions:
REMARK  status: ('A' for Active; 'I' for Inactive)
REMARK    1  A    between atoms: C_1  and  C_2
REMARK    2  A    between atoms: C_2  and  C_3
REMARK    3  A    between atoms: C_2  and  C_4
REMARK    4  A    between atoms: C_2  and  C_5
REMARK    5  A    between atoms: C_8  and  C_11
REMARK    6  A    between atoms: N_12  and  N_13
REMARK    7  A    between atoms: N_15  and  C_29
REMARK    8  A    between atoms: C_19  and  C_20
REMARK    9  A    between atoms: C_25  and  O_26
REMARK   10  A    between atoms: C_29  and  C_30
REMARK                            x       y       z     vdW  Elec       q    Type
REMARK                         _______ _______ _______ _____ _____    ______ ____
ROOT
ATOM      1  N   UNL     1       4.198   0.418  -4.671  0.00  0.00    -0.126 NA
ATOM      2  C   UNL     1       5.499   0.581  -4.820  0.00  0.00    +0.190 C 
ATOM      3  N   UNL     1       6.272   0.325  -5.930  0.00  0.00    -0.237 N 
ATOM      4  C   UNL     1       7.575   0.547  -5.910  0.00  0.00    +0.259 C 
ATOM      5  O   UNL     1       8.274   0.326  -6.883  0.00  0.00    -0.269 OA
ATOM      6  C   UNL     1       8.145   1.076  -4.656  0.00  0.00    +0.078 C 
ATOM      7  C   UNL     1       9.432   1.391  -4.360  0.00  0.00    +0.032 C 
ATOM      8  S   UNL     1       6.684   1.195  -3.634  0.00  0.00    -0.047 S 
ENDROOT
BRANCH   7   9
ATOM      9  C   UNL     1       9.749   2.071  -3.098  0.00  0.00    +0.019 A 
ATOM     10  C   UNL     1       8.743   2.724  -2.377  0.00  0.00    +0.031 A 
ATOM     11  C   UNL     1       9.049   3.360  -1.193  0.00  0.00    +0.042 A 
ATOM     12  C   UNL     1      10.350   3.355  -0.713  0.00  0.00    +0.023 A 
ATOM     13  C   UNL     1      11.353   2.715  -1.415  0.00  0.00    +0.047 A 
ATOM     14  C   UNL     1      11.064   2.065  -2.603  0.00  0.00    +0.124 A 
ATOM     15 CL   UNL     1       7.801   4.169  -0.299  0.00  0.00    -0.084 Cl
BRANCH  14  16
ATOM     16  O   UNL     1      12.048   1.430  -3.290  0.00  0.00    -0.506 OA
ATOM     17  H   UNL     1      12.504   1.991  -3.933  0.00  0.00    +0.292 HD
ENDBRANCH  14  16
ENDBRANCH   7   9
BRANCH   1  19
ATOM     18  C   UNL     1       2.202  -0.204  -5.498  0.00  0.00    +0.143 C 
ATOM     19  N   UNL     1       3.490  -0.042  -5.646  0.00  0.00    -0.155 NA
BRANCH  18  23
ATOM     20  C   UNL     1       0.320   0.963  -1.881  0.00  0.00    -0.042 A 
ATOM     21  C   UNL     1       1.699   1.015  -1.987  0.00  0.00    +0.005 A 
ATOM     22  C   UNL     1       2.318   0.637  -3.160  0.00  0.00    +0.010 A 
ATOM     23  C   UNL     1       1.549   0.201  -4.244  0.00  0.00    -0.005 A 
ATOM     24  C   UNL     1       0.156   0.151  -4.128  0.00  0.00    +0.010 A 
ATOM     25  C   UNL     1      -0.448   0.527  -2.947  0.00  0.00    +0.005 A 
BRANCH  20  27
ATOM     26  C   UNL     1      -1.139   0.197  -0.028  0.00  0.00    +0.015 C 
ATOM     27  C   UNL     1      -0.349   1.378  -0.596  0.00  0.00    -0.013 C 
ATOM     28  C   UNL     1      -1.302   2.543  -0.870  0.00  0.00    +0.015 C 
ATOM     29  C   UNL     1       0.713   1.814   0.414  0.00  0.00    +0.015 C 
ENDBRANCH  20  27
ENDBRANCH  18  23
ENDBRANCH   1  19
BRANCH   3  30
ATOM     30  C   UNL     1       5.645  -0.200  -7.146  0.00  0.00    +0.190 C 
BRANCH  30  31
ATOM     31  C   UNL     1       5.210   0.947  -8.022  0.00  0.00    +0.123 A 
ATOM     32  C   UNL     1       5.953   1.530  -8.980  0.00  0.00    +0.046 A 
ATOM     33  C   UNL     1       5.160   2.554  -9.547  0.00  0.00    +0.041 A 
ATOM     34  C   UNL     1       3.980   2.534  -8.902  0.00  0.00    +0.195 A 
ATOM     35  O   UNL     1       4.014   1.555  -7.983  0.00  0.00    -0.466 OA
ENDBRANCH  30  31
ENDBRANCH   3  30
TORSDOF 7
