REMARK  Name = ZINC39598133
REMARK  9 active torsions:
REMARK  status: ('A' for Active; 'I' for Inactive)
REMARK    1  A    between atoms: C_1  and  C_2
REMARK    2  A    between atoms: C_2  and  C_3
REMARK    3  A    between atoms: C_3  and  C_4
REMARK    4  A    between atoms: C_3  and  C_6
REMARK    5  A    between atoms: C_4  and  C_5
REMARK    6  A    between atoms: C_10  and  C_19
REMARK    7  A    between atoms: N_21  and  C_22
REMARK    8  A    between atoms: N_25  and  C_28
REMARK    9  A    between atoms: C_28  and  C_29
REMARK                            x       y       z     vdW  Elec       q    Type
REMARK                         _______ _______ _______ _____ _____    ______ ____
ROOT
ATOM      1  C   UNL     1       1.065  -2.353   0.749  0.00  0.00    +0.219 C 
ATOM      2  O   UNL     1       0.736  -3.163   1.589  0.00  0.00    -0.275 OA
ATOM      3  N   UNL     1       1.834  -2.734  -0.291  0.00  0.00    -0.300 N 
ATOM      4  C   UNL     1       2.339  -1.895  -1.403  0.00  0.00    +0.121 C 
ATOM      5  C   UNL     1       3.779  -2.399  -1.649  0.00  0.00    +0.100 C 
ATOM      6  C   UNL     1       3.788  -3.839  -1.109  0.00  0.00    -0.004 C 
ATOM      7  C   UNL     1       2.369  -4.087  -0.577  0.00  0.00    +0.115 C 
ATOM      8  C   UNL     1       4.113  -4.822  -2.230  0.00  0.00    -0.010 C 
ATOM      9  C   UNL     1       4.174  -6.240  -1.657  0.00  0.00    -0.082 C 
ATOM     10  N   UNL     1       5.201  -6.304  -0.611  0.00  0.00    +0.379 N 
ATOM     11  C   UNL     1       4.834  -5.425   0.506  0.00  0.00    -0.082 C 
ATOM     12  C   UNL     1       4.801  -3.971   0.025  0.00  0.00    -0.010 C 
ATOM     13  H   UNL     1       5.282  -7.253  -0.278  0.00  0.00    -0.086 HD
ATOM     14  H   UNL     1       6.087  -6.008  -0.993  0.00  0.00    -0.086 HD
ENDROOT
BRANCH   5  15
ATOM     15  C   UNL     1       4.768  -1.547  -0.896  0.00  0.00    +0.218 C 
ATOM     16  O   UNL     1       4.470  -1.080   0.182  0.00  0.00    -0.275 OA
ATOM     17  N   UNL     1       5.986  -1.305  -1.421  0.00  0.00    -0.312 N 
ATOM     18  H   UNL     1       6.225  -1.679  -2.284  0.00  0.00    +0.149 HD
BRANCH  17  19
ATOM     19  C   UNL     1       6.948  -0.477  -0.690  0.00  0.00    +0.069 C 
ATOM     20  C   UNL     1       6.692   1.000  -1.000  0.00  0.00    +0.003 C 
ATOM     21  C   UNL     1       7.750   1.854  -0.297  0.00  0.00    -0.077 C 
ATOM     22  N   UNL     1       9.085   1.476  -0.773  0.00  0.00    +0.382 N 
ATOM     23  C   UNL     1       9.366   0.080  -0.415  0.00  0.00    -0.077 C 
ATOM     24  C   UNL     1       8.371  -0.842  -1.123  0.00  0.00    +0.003 C 
ATOM     25  H   UNL     1       9.125   1.579  -1.776  0.00  0.00    -0.081 HD
BRANCH  22  26
ATOM     26  C   UNL     1      10.090   2.350  -0.153  0.00  0.00    -0.043 C 
BRANCH  26  27
ATOM     27  C   UNL     1      11.447   2.046  -0.733  0.00  0.00    -0.064 A 
ATOM     28  C   UNL     1      12.250   1.085  -0.147  0.00  0.00    +0.002 A 
ATOM     29  C   UNL     1      13.495   0.806  -0.678  0.00  0.00    +0.000 A 
ATOM     30  C   UNL     1      13.937   1.486  -1.798  0.00  0.00    +0.000 A 
ATOM     31  C   UNL     1      13.134   2.446  -2.385  0.00  0.00    +0.000 A 
ATOM     32  C   UNL     1      11.887   2.723  -1.855  0.00  0.00    +0.002 A 
ENDBRANCH  26  27
ENDBRANCH  22  26
ENDBRANCH  17  19
ENDBRANCH   5  15
BRANCH   1  33
ATOM     33  C   UNL     1       0.616  -0.919   0.868  0.00  0.00    +0.075 C 
BRANCH  33  35
ATOM     34  C   UNL     1      -0.550   0.951  -0.309  0.00  0.00    +0.004 C 
ATOM     35  C   UNL     1      -0.212  -0.541  -0.362  0.00  0.00    +0.009 C 
ENDBRANCH  33  35
BRANCH  33  36
ATOM     36  C   UNL     1      -0.237  -0.755   2.127  0.00  0.00    +0.009 C 
ATOM     37  C   UNL     1       0.635  -0.973   3.366  0.00  0.00    +0.004 C 
ENDBRANCH  33  36
ENDBRANCH   1  33
TORSDOF 7
