REMARK  Name = ZINC36895507
REMARK  4 active torsions:
REMARK  status: ('A' for Active; 'I' for Inactive)
REMARK    1  A    between atoms: C_1  and  C_2
REMARK    2  A    between atoms: C_5  and  C_7
REMARK    3  A    between atoms: C_10  and  C_12
REMARK    4  A    between atoms: C_15  and  N_18
REMARK                            x       y       z     vdW  Elec       q    Type
REMARK                         _______ _______ _______ _____ _____    ______ ____
ROOT
ATOM      1  C   UNL     1       1.314   0.159   2.237  0.00  0.00    +0.109 A 
ATOM      2  C   UNL     1       2.618   0.181   2.578  0.00  0.00    +0.046 A 
ATOM      3  C   UNL     1       2.758   1.126   3.612  0.00  0.00    +0.053 A 
ATOM      4  C   UNL     1       1.519   1.635   3.849  0.00  0.00    +0.172 A 
ATOM      5  O   UNL     1       0.654   1.042   3.003  0.00  0.00    -0.456 OA
ENDROOT
BRANCH   4   6
ATOM      6  C   UNL     1       1.181   2.662   4.854  0.00  0.00    +0.196 A 
ATOM      7  N   UNL     1      -0.081   3.058   4.975  0.00  0.00    -0.231 NA
ATOM      8  C   UNL     1      -0.419   3.975   5.864  0.00  0.00    +0.137 A 
ATOM      9  C   UNL     1       0.568   4.525   6.681  0.00  0.00    +0.061 A 
ATOM     10  C   UNL     1       1.881   4.085   6.525  0.00  0.00    +0.137 A 
ATOM     11  N   UNL     1       2.146   3.161   5.618  0.00  0.00    -0.231 NA
BRANCH   9  12
ATOM     12  N   UNL     1       0.248   5.497   7.632  0.00  0.00    -0.356 N 
ATOM     13  H   UNL     1      -0.669   5.796   7.731  0.00  0.00    +0.142 HD
ATOM     14  H   UNL     1       0.944   5.873   8.194  0.00  0.00    +0.142 HD
ENDBRANCH   9  12
ENDBRANCH   4   6
BRANCH   1  18
ATOM     15  C   UNL     1      -0.019   1.526   0.010  0.00  0.00    +0.008 C 
ATOM     16  C   UNL     1       0.002  -0.004   0.002  0.00  0.00    -0.003 C 
ATOM     17  C   UNL     1      -0.828  -0.728   1.065  0.00  0.00    +0.015 C 
ATOM     18  C   UNL     1       0.700  -0.708   1.168  0.00  0.00    +0.058 C 
ENDBRANCH   1  18
TORSDOF 3
