REMARK  Name = ZINC45994599
REMARK  9 active torsions:
REMARK  status: ('A' for Active; 'I' for Inactive)
REMARK    1  A    between atoms: C_1  and  C_2
REMARK    2  A    between atoms: C_2  and  O_3
REMARK    3  A    between atoms: O_3  and  C_4
REMARK    4  A    between atoms: N_15  and  C_29
REMARK    5  A    between atoms: N_16  and  C_17
REMARK    6  A    between atoms: C_17  and  C_18
REMARK    7  A    between atoms: N_20  and  C_21
REMARK    8  A    between atoms: C_24  and  C_28
REMARK    9  A    between atoms: C_26  and  C_27
REMARK                            x       y       z     vdW  Elec       q    Type
REMARK                         _______ _______ _______ _____ _____    ______ ____
ROOT
ATOM      1  C   UNL     1      -1.819  -2.028   0.144  0.00  0.00    +0.163 A 
ATOM      2  C   UNL     1      -0.707  -2.812   0.393  0.00  0.00    +0.049 A 
ATOM      3  C   UNL     1      -0.866  -4.126   0.793  0.00  0.00    +0.004 A 
ATOM      4  C   UNL     1      -2.133  -4.653   0.943  0.00  0.00    +0.008 A 
ATOM      5  C   UNL     1      -3.253  -3.874   0.695  0.00  0.00    +0.003 A 
ATOM      6  C   UNL     1      -3.102  -2.557   0.301  0.00  0.00    +0.175 A 
ATOM      7  O   UNL     1      -4.163  -1.740   0.051  0.00  0.00    -0.434 OA
ATOM      8  C   UNL     1      -5.378  -2.123   0.489  0.00  0.00    +0.226 A 
ATOM      9  C   UNL     1      -5.649  -3.402   0.894  0.00  0.00    +0.085 A 
ATOM     10  C   UNL     1      -6.988  -3.462   1.284  0.00  0.00    +0.279 A 
ATOM     11  O   UNL     1      -7.572  -4.447   1.702  0.00  0.00    -0.265 OA
ATOM     12  N   UNL     1      -7.522  -2.232   1.117  0.00  0.00    -0.214 N 
ATOM     13  N   UNL     1      -6.518  -1.388   0.619  0.00  0.00    -0.236 N 
ATOM     14  C   UNL     1      -4.616  -4.501   0.873  0.00  0.00    +0.085 C 
ENDROOT
BRANCH  12  15
ATOM     15  C   UNL     1      -8.844  -1.865   1.392  0.00  0.00    +0.067 A 
ATOM     16  C   UNL     1      -9.108  -0.721   2.132  0.00  0.00    +0.028 A 
ATOM     17  C   UNL     1     -10.414  -0.361   2.401  0.00  0.00    +0.002 A 
ATOM     18  C   UNL     1     -11.458  -1.139   1.935  0.00  0.00    +0.000 A 
ATOM     19  C   UNL     1     -11.197  -2.279   1.197  0.00  0.00    +0.002 A 
ATOM     20  C   UNL     1      -9.894  -2.642   0.920  0.00  0.00    +0.028 A 
ENDBRANCH  12  15
BRANCH   1  21
ATOM     21  O   UNL     1      -1.663  -0.736  -0.250  0.00  0.00    -0.489 OA
BRANCH  21  23
ATOM     22  C   UNL     1      -0.348   1.205  -0.838  0.00  0.00    +0.048 C 
ATOM     23  C   UNL     1      -0.323  -0.258  -0.391  0.00  0.00    +0.226 C 
ENDBRANCH  21  23
ENDBRANCH   1  21
BRANCH  13  24
ATOM     24  C   UNL     1      -6.669   0.032   0.294  0.00  0.00    +0.241 C 
BRANCH  24  25
ATOM     25  C   UNL     1      -6.232   0.866   1.471  0.00  0.00    +0.239 C 
ATOM     26  O   UNL     1      -5.833   0.326   2.482  0.00  0.00    -0.273 OA
ATOM     27  N   UNL     1      -6.284   2.211   1.401  0.00  0.00    -0.284 N 
ATOM     28  H   UNL     1      -6.675   2.641   0.625  0.00  0.00    +0.155 HD
BRANCH  27  29
ATOM     29  C   UNL     1      -5.775   2.986   2.448  0.00  0.00    +0.036 A 
ATOM     30  C   UNL     1      -5.764   2.485   3.744  0.00  0.00    +0.024 A 
ATOM     31  C   UNL     1      -5.261   3.253   4.775  0.00  0.00    +0.005 A 
ATOM     32  C   UNL     1      -4.767   4.520   4.519  0.00  0.00    -0.050 A 
ATOM     33  C   UNL     1      -4.777   5.021   3.231  0.00  0.00    +0.008 A 
ATOM     34  C   UNL     1      -5.273   4.256   2.194  0.00  0.00    -0.029 A 
ATOM     35  C   UNL     1      -5.276   4.800   0.789  0.00  0.00    +0.045 C 
ATOM     36  C   UNL     1      -4.219   5.355   5.647  0.00  0.00    +0.044 C 
ENDBRANCH  27  29
ENDBRANCH  24  25
ENDBRANCH  13  24
TORSDOF 6
