REMARK  Name = ZINC09640990
REMARK  6 active torsions:
REMARK  status: ('A' for Active; 'I' for Inactive)
REMARK    1  A    between atoms: C_3  and  S_6
REMARK    2  A    between atoms: S_6  and  N_9
REMARK    3  A    between atoms: C_13  and  C_16
REMARK    4  A    between atoms: C_23  and  C_24
REMARK    5  A    between atoms: C_23  and  N_60
REMARK    6  A    between atoms: N_26  and  C_27
REMARK                            x       y       z     vdW  Elec       q    Type
REMARK                         _______ _______ _______ _____ _____    ______ ____
ROOT
ATOM      1  C   UNL     1      -3.274   4.505  -0.979  0.00  0.00    +0.220 C 
ATOM      2  O   UNL     1      -3.007   4.412  -2.158  0.00  0.00    -0.275 OA
ATOM      3  N   UNL     1      -2.731   3.643  -0.096  0.00  0.00    -0.305 N 
ATOM      4  C   UNL     1      -1.895   2.522  -0.550  0.00  0.00    +0.089 C 
ATOM      5  C   UNL     1      -0.581   2.544   0.238  0.00  0.00    -0.059 C 
ATOM      6  C   UNL     1      -1.604   3.771   2.062  0.00  0.00    -0.059 C 
ATOM      7  C   UNL     1      -2.960   3.799   1.349  0.00  0.00    +0.089 C 
ATOM      8  N   UNL     1      -0.893   2.530   1.683  0.00  0.00    +0.387 N 
ATOM      9  H   UNL     1      -1.498   1.726   1.885  0.00  0.00    -0.081 HD
ENDROOT
BRANCH   1  14
ATOM     10  N   UNL     1      -5.513   7.523  -1.206  0.00  0.00    -0.175 NA
ATOM     11  C   UNL     1      -6.777   7.019  -0.655  0.00  0.00    +0.109 C 
ATOM     12  C   UNL     1      -6.465   6.040   0.481  0.00  0.00    +0.018 C 
ATOM     13  C   UNL     1      -5.524   4.949  -0.035  0.00  0.00    +0.015 C 
ATOM     14  C   UNL     1      -4.212   5.583  -0.501  0.00  0.00    +0.091 C 
ATOM     15  C   UNL     1      -4.499   6.556  -1.649  0.00  0.00    +0.122 C 
BRANCH  10  16
ATOM     16  S   UNL     1      -5.235   9.151  -1.327  0.00  0.00    +0.067 S 
ATOM     17  O   UNL     1      -6.069   9.778  -0.362  0.00  0.00    -0.152 OA
ATOM     18  O   UNL     1      -3.824   9.323  -1.341  0.00  0.00    -0.152 OA
BRANCH  16  21
ATOM     19  C   UNL     1      -7.288  10.458  -4.575  0.00  0.00    +0.010 A 
ATOM     20  C   UNL     1      -7.053  10.105  -3.259  0.00  0.00    +0.036 A 
ATOM     21  C   UNL     1      -5.820   9.664  -2.908  0.00  0.00    +0.143 A 
ATOM     22  S   UNL     1      -4.942   9.745  -4.460  0.00  0.00    -0.077 S 
ATOM     23  C   UNL     1      -6.279  10.353  -5.474  0.00  0.00    +0.047 A 
ENDBRANCH  16  21
ENDBRANCH  10  16
ENDBRANCH   1  14
BRANCH   8  24
ATOM     24  C   UNL     1       0.352   2.403   2.467  0.00  0.00    +0.019 C 
BRANCH  24  25
ATOM     25  C   UNL     1       1.217   3.624   2.291  0.00  0.00    +0.201 C 
ATOM     26  O   UNL     1       0.898   4.484   1.497  0.00  0.00    -0.278 OA
ATOM     27  N   UNL     1       2.346   3.762   3.015  0.00  0.00    -0.287 N 
ATOM     28  H   UNL     1       2.562   3.113   3.703  0.00  0.00    +0.155 HD
BRANCH  27  29
ATOM     29  C   UNL     1       3.205   4.840   2.775  0.00  0.00    +0.033 A 
ATOM     30  C   UNL     1       3.358   5.334   1.486  0.00  0.00    +0.026 A 
ATOM     31  C   UNL     1       4.202   6.402   1.252  0.00  0.00    +0.040 A 
ATOM     32  C   UNL     1       4.904   6.973   2.299  0.00  0.00    +0.124 A 
ATOM     33  C   UNL     1       4.758   6.479   3.584  0.00  0.00    +0.040 A 
ATOM     34  C   UNL     1       3.911   5.415   3.824  0.00  0.00    +0.026 A 
ATOM     35  F   UNL     1       5.733   8.014   2.067  0.00  0.00    -0.205 F 
ENDBRANCH  27  29
ENDBRANCH  24  25
ENDBRANCH   8  24
TORSDOF 6
