REMARK  Name = ZINC64025645
REMARK  5 active torsions:
REMARK  status: ('A' for Active; 'I' for Inactive)
REMARK    1  A    between atoms: C_1  and  C_2
REMARK    2  A    between atoms: C_9  and  S_11
REMARK    3  A    between atoms: S_11  and  C_12
REMARK    4  A    between atoms: C_14  and  C_17
REMARK    5  A    between atoms: C_17  and  C_18
REMARK                            x       y       z     vdW  Elec       q    Type
REMARK                         _______ _______ _______ _____ _____    ______ ____
ROOT
ATOM      1  C   UNL     1      -3.112  -5.585   1.885  0.00  0.00    +0.218 A 
ATOM      2  N   UNL     1      -3.848  -6.538   2.467  0.00  0.00    -0.203 NA
ATOM      3  C   UNL     1      -3.681  -6.494   3.765  0.00  0.00    +0.159 A 
ATOM      4  N   UNL     1      -2.824  -5.498   4.045  0.00  0.00    -0.131 NA
ATOM      5  N   UNL     1      -2.462  -4.925   2.815  0.00  0.00    -0.120 NA
ENDROOT
BRANCH   1   6
ATOM      6  S   UNL     1      -3.025  -5.271   0.153  0.00  0.00    -0.020 S 
BRANCH   6  14
ATOM      7  C   UNL     1      -0.018   1.503   0.010  0.00  0.00    +0.062 C 
ATOM      8  C   UNL     1       0.002  -0.004   0.002  0.00  0.00    +0.032 C 
ATOM      9  N   UNL     1       0.008  -0.742  -1.046  0.00  0.00    -0.257 NA
ATOM     10  C   UNL     1       0.024  -2.150  -0.674  0.00  0.00    +0.274 C 
ATOM     11  N   UNL     1      -0.494  -2.182   0.731  0.00  0.00    -0.215 N 
ATOM     12  C   UNL     1       0.026  -0.891   1.234  0.00  0.00    +0.179 C 
ATOM     13  N   UNL     1      -1.286  -3.284   0.984  0.00  0.00    -0.167 NA
ATOM     14  C   UNL     1      -1.908  -3.915   0.022  0.00  0.00    +0.159 C 
ATOM     15  S   UNL     1      -1.339  -3.081  -1.483  0.00  0.00    -0.050 S 
ENDBRANCH   6  14
ENDBRANCH   1   6
BRANCH   3  16
ATOM     16  C   UNL     1      -4.339  -7.403   4.771  0.00  0.00    +0.120 C 
BRANCH  16  17
ATOM     17  C   UNL     1      -3.470  -8.614   4.997  0.00  0.00    -0.003 A 
ATOM     18  C   UNL     1      -2.485  -8.799   5.909  0.00  0.00    +0.011 A 
ATOM     19  C   UNL     1      -1.813 -10.007   5.935  0.00  0.00    +0.008 A 
ATOM     20  C   UNL     1      -2.161 -10.971   5.048  0.00  0.00    +0.045 A 
ATOM     21  S   UNL     1      -3.478 -10.179   4.139  0.00  0.00    -0.101 S 
ENDBRANCH  16  17
ENDBRANCH   3  16
TORSDOF 4
