REMARK  Name = ZINC08436837
REMARK  8 active torsions:
REMARK  status: ('A' for Active; 'I' for Inactive)
REMARK    1  A    between atoms: C_3  and  C_18
REMARK    2  A    between atoms: C_5  and  S_7
REMARK    3  A    between atoms: S_7  and  N_10
REMARK    4  A    between atoms: N_10  and  C_11
REMARK    5  A    between atoms: C_18  and  C_20
REMARK    6  A    between atoms: C_24  and  S_26
REMARK    7  A    between atoms: S_26  and  N_29
REMARK    8  A    between atoms: N_29  and  C_30
REMARK                            x       y       z     vdW  Elec       q    Type
REMARK                         _______ _______ _______ _____ _____    ______ ____
ROOT
ATOM      1  C   UNL     1       3.657   2.159  -0.021  0.00  0.00    +0.193 C 
ATOM      2  O   UNL     1       4.708   1.555  -0.104  0.00  0.00    -0.287 OA
ENDROOT
BRANCH   1   5
ATOM      3  C   UNL     1       0.032   1.418   0.624  0.00  0.00    +0.003 A 
ATOM      4  C   UNL     1       1.208   2.114   0.435  0.00  0.00    +0.012 A 
ATOM      5  C   UNL     1       2.393   1.421   0.182  0.00  0.00    +0.024 A 
ATOM      6  C   UNL     1       2.380   0.025   0.123  0.00  0.00    +0.040 A 
ATOM      7  C   UNL     1       1.197  -0.658   0.314  0.00  0.00    +0.106 A 
ATOM      8  C   UNL     1       0.026   0.036   0.564  0.00  0.00    +0.028 A 
BRANCH   7   9
ATOM      9  S   UNL     1       1.177  -2.418   0.240  0.00  0.00    +0.059 S 
ATOM     10  O   UNL     1       2.497  -2.853   0.534  0.00  0.00    -0.153 OA
ATOM     11  O   UNL     1       0.049  -2.844   0.992  0.00  0.00    -0.153 OA
BRANCH   9  12
ATOM     12  N   UNL     1       0.880  -2.838  -1.335  0.00  0.00    -0.187 NA
ATOM     13  H   UNL     1       0.061  -3.302  -1.567  0.00  0.00    +0.148 HD
BRANCH  12  14
ATOM     14  C   UNL     1       1.856  -2.509  -2.377  0.00  0.00    +0.077 C 
ATOM     15  C   UNL     1       1.473  -1.157  -3.011  0.00  0.00    +0.020 C 
ATOM     16  C   UNL     1       2.692  -0.580  -3.680  0.00  0.00    +0.002 C 
ATOM     17  C   UNL     1       2.765  -0.935  -5.177  0.00  0.00    +0.000 C 
ATOM     18  C   UNL     1       2.370  -2.397  -5.464  0.00  0.00    +0.000 C 
ATOM     19  C   UNL     1       2.940  -3.356  -4.455  0.00  0.00    +0.002 C 
ATOM     20  C   UNL     1       1.887  -3.589  -3.352  0.00  0.00    +0.020 C 
ENDBRANCH  12  14
ENDBRANCH   9  12
ENDBRANCH   7   9
ENDBRANCH   1   5
BRANCH   1  21
ATOM     21  C   UNL     1       3.642   3.633  -0.125  0.00  0.00    +0.024 A 
ATOM     22  C   UNL     1       2.562   4.284  -0.725  0.00  0.00    +0.012 A 
ATOM     23  C   UNL     1       2.552   5.660  -0.814  0.00  0.00    +0.003 A 
ATOM     24  C   UNL     1       3.615   6.396  -0.320  0.00  0.00    +0.028 A 
ATOM     25  C   UNL     1       4.691   5.757   0.272  0.00  0.00    +0.106 A 
ATOM     26  C   UNL     1       4.711   4.382   0.372  0.00  0.00    +0.040 A 
BRANCH  25  27
ATOM     27  S   UNL     1       6.038   6.704   0.899  0.00  0.00    +0.059 S 
ATOM     28  O   UNL     1       5.530   8.002   1.173  0.00  0.00    -0.153 OA
ATOM     29  O   UNL     1       6.668   5.907   1.892  0.00  0.00    -0.153 OA
BRANCH  27  30
ATOM     30  N   UNL     1       7.132   6.875  -0.333  0.00  0.00    -0.187 NA
ATOM     31  H   UNL     1       8.011   6.473  -0.260  0.00  0.00    +0.148 HD
BRANCH  30  32
ATOM     32  C   UNL     1       6.770   7.634  -1.534  0.00  0.00    +0.077 C 
ATOM     33  C   UNL     1       6.225   6.658  -2.596  0.00  0.00    +0.020 C 
ATOM     34  C   UNL     1       5.400   7.440  -3.583  0.00  0.00    +0.002 C 
ATOM     35  C   UNL     1       6.215   7.873  -4.817  0.00  0.00    +0.000 C 
ATOM     36  C   UNL     1       7.627   8.372  -4.454  0.00  0.00    +0.000 C 
ATOM     37  C   UNL     1       7.633   9.244  -3.228  0.00  0.00    +0.002 C 
ATOM     38  C   UNL     1       7.941   8.362  -2.001  0.00  0.00    +0.020 C 
ENDBRANCH  30  32
ENDBRANCH  27  30
ENDBRANCH  25  27
ENDBRANCH   1  21
TORSDOF 8
