REMARK  Name = ZINC09136481
REMARK  4 active torsions:
REMARK  status: ('A' for Active; 'I' for Inactive)
REMARK    1  A    between atoms: C_4  and  C_7
REMARK    2  A    between atoms: N_16  and  N_17
REMARK    3  A    between atoms: N_17  and  C_18
REMARK    4  A    between atoms: C_25  and  C_27
REMARK                            x       y       z     vdW  Elec       q    Type
REMARK                         _______ _______ _______ _____ _____    ______ ____
ROOT
ATOM      1  C   UNL     1       3.698  -0.688  -0.038  0.00  0.00    +0.080 A 
ATOM      2  C   UNL     1       3.727  -2.055  -0.051  0.00  0.00    +0.077 A 
ATOM      3  S   UNL     1       5.491  -2.349  -0.069  0.00  0.00    -0.058 S 
ATOM      4  C   UNL     1       6.002  -0.636  -0.057  0.00  0.00    +0.189 A 
ATOM      5  N   UNL     1       4.838  -0.014  -0.047  0.00  0.00    -0.223 NA
ATOM      6  N   UNL     1       7.286  -0.101  -0.064  0.00  0.00    -0.130 N 
ATOM      7  C   UNL     1       8.422  -0.826  -0.086  0.00  0.00    +0.294 C 
ATOM      8  O   UNL     1       8.515  -2.041  -0.103  0.00  0.00    -0.266 OA
ATOM      9  C   UNL     1       9.528   0.145  -0.085  0.00  0.00    +0.173 C 
ATOM     10  N   UNL     1      10.822  -0.110  -0.103  0.00  0.00    -0.175 NA
ATOM     11  C   UNL     1       8.870   1.468  -0.060  0.00  0.00    +0.122 C 
ATOM     12  N   UNL     1       7.580   1.262  -0.053  0.00  0.00    -0.168 NA
ENDROOT
BRANCH   1  16
ATOM     13  C   UNL     1      -0.017   1.379   0.010  0.00  0.00    +0.000 A 
ATOM     14  C   UNL     1       1.169   2.092   0.002  0.00  0.00    +0.001 A 
ATOM     15  C   UNL     1       2.377   1.427  -0.013  0.00  0.00    +0.010 A 
ATOM     16  C   UNL     1       2.402   0.033  -0.021  0.00  0.00    +0.001 A 
ATOM     17  C   UNL     1       1.205  -0.680  -0.013  0.00  0.00    +0.010 A 
ATOM     18  C   UNL     1       0.002  -0.004   0.002  0.00  0.00    +0.001 A 
ENDBRANCH   1  16
BRANCH  11  19
ATOM     19  C   UNL     1       9.548   2.786  -0.049  0.00  0.00    +0.004 A 
ATOM     20  C   UNL     1      10.941   2.856  -0.068  0.00  0.00    +0.010 A 
ATOM     21  C   UNL     1      11.567   4.086  -0.058  0.00  0.00    +0.001 A 
ATOM     22  C   UNL     1      10.816   5.247  -0.028  0.00  0.00    +0.000 A 
ATOM     23  C   UNL     1       9.434   5.184  -0.009  0.00  0.00    +0.001 A 
ATOM     24  C   UNL     1       8.796   3.960  -0.025  0.00  0.00    +0.010 A 
ENDBRANCH  11  19
BRANCH  10  25
ATOM     25  N   UNL     1      11.239  -1.331  -0.124  0.00  0.00    -0.237 N 
ATOM     26  H   UNL     1      10.601  -2.061  -0.126  0.00  0.00    +0.174 HD
BRANCH  25  27
ATOM     27  C   UNL     1      12.608  -1.600  -0.143  0.00  0.00    +0.048 A 
ATOM     28  C   UNL     1      13.524  -0.555  -0.133  0.00  0.00    +0.026 A 
ATOM     29  C   UNL     1      14.878  -0.825  -0.151  0.00  0.00    +0.017 A 
ATOM     30  C   UNL     1      15.323  -2.135  -0.180  0.00  0.00    +0.018 A 
ATOM     31  C   UNL     1      14.414  -3.178  -0.190  0.00  0.00    +0.017 A 
ATOM     32  C   UNL     1      13.059  -2.915  -0.165  0.00  0.00    +0.026 A 
ATOM     33 BR   UNL     1      17.178  -2.500  -0.206  0.00  0.00    -0.050 Br
ENDBRANCH  25  27
ENDBRANCH  10  25
TORSDOF 4
