REMARK  Name = ZINC43149244
REMARK  7 active torsions:
REMARK  status: ('A' for Active; 'I' for Inactive)
REMARK    1  A    between atoms: C_1  and  C_2
REMARK    2  A    between atoms: C_5  and  N_23
REMARK    3  A    between atoms: C_7  and  N_8
REMARK    4  A    between atoms: N_11  and  C_12
REMARK    5  A    between atoms: C_12  and  C_13
REMARK    6  A    between atoms: C_16  and  S_19
REMARK    7  A    between atoms: S_19  and  N_22
REMARK                            x       y       z     vdW  Elec       q    Type
REMARK                         _______ _______ _______ _____ _____    ______ ____
ROOT
ATOM      1  N   UNL     1       0.025  -0.015   2.417  0.00  0.00    -0.269 N 
ATOM      2  C   UNL     1      -0.056  -0.694   3.578  0.00  0.00    +0.304 C 
ATOM      3  O   UNL     1      -0.040  -1.910   3.573  0.00  0.00    -0.252 OA
ATOM      4  N   UNL     1      -0.156  -0.026   4.745  0.00  0.00    -0.295 N 
ATOM      5  H   UNL     1       0.078   0.954   2.425  0.00  0.00    +0.156 HD
ATOM      6  H   UNL     1      -0.169   0.944   4.748  0.00  0.00    +0.151 HD
ENDROOT
BRANCH   1  13
ATOM      7  C   UNL     1      -1.265   1.183   0.181  0.00  0.00    +0.045 C 
ATOM      8  C   UNL     1      -0.584  -0.158   0.084  0.00  0.00    -0.029 A 
ATOM      9  C   UNL     1      -0.569  -0.840  -1.117  0.00  0.00    +0.007 A 
ATOM     10  C   UNL     1       0.056  -2.070  -1.206  0.00  0.00    +0.033 A 
ATOM     11  C   UNL     1       0.667  -2.622  -0.095  0.00  0.00    +0.128 A 
ATOM     12  C   UNL     1       0.655  -1.945   1.108  0.00  0.00    +0.056 A 
ATOM     13  C   UNL     1       0.034  -0.706   1.200  0.00  0.00    +0.040 A 
BRANCH  11  14
ATOM     14  N   UNL     1       1.335  -3.939  -0.196  0.00  0.00    +0.056 N 
ATOM     15  O   UNL     1       1.345  -4.532  -1.249  0.00  0.00    -0.126 OA
ATOM     16  O   UNL     1       1.870  -4.421   0.775  0.00  0.00    -0.126 OA
ENDBRANCH  11  14
ENDBRANCH   1  13
BRANCH   4  17
ATOM     17  C   UNL     1      -0.245  -0.765   6.006  0.00  0.00    +0.141 C 
BRANCH  17  18
ATOM     18  C   UNL     1      -0.347   0.208   7.152  0.00  0.00    -0.030 A 
ATOM     19  C   UNL     1       0.800   0.675   7.767  0.00  0.00    +0.007 A 
ATOM     20  C   UNL     1       0.707   1.567   8.818  0.00  0.00    +0.029 A 
ATOM     21  C   UNL     1      -0.534   1.994   9.254  0.00  0.00    +0.105 A 
ATOM     22  C   UNL     1      -1.681   1.528   8.639  0.00  0.00    +0.029 A 
ATOM     23  C   UNL     1      -1.587   0.639   7.585  0.00  0.00    +0.007 A 
BRANCH  21  24
ATOM     24  S   UNL     1      -0.653   3.131  10.595  0.00  0.00    +0.056 S 
ATOM     25  O   UNL     1      -1.942   2.953  11.165  0.00  0.00    -0.153 OA
ATOM     26  O   UNL     1       0.541   2.993  11.352  0.00  0.00    -0.153 OA
BRANCH  24  27
ATOM     27  N   UNL     1      -0.629   4.656   9.948  0.00  0.00    -0.204 NA
ATOM     28  H   UNL     1      -0.559   4.774   8.988  0.00  0.00    +0.144 HD
ATOM     29  H   UNL     1      -0.685   5.430  10.529  0.00  0.00    +0.144 HD
ENDBRANCH  24  27
ENDBRANCH  21  24
ENDBRANCH  17  18
ENDBRANCH   4  17
TORSDOF 6
