REMARK  Name = ZINC36162304
REMARK  6 active torsions:
REMARK  status: ('A' for Active; 'I' for Inactive)
REMARK    1  A    between atoms: C_1  and  C_2
REMARK    2  A    between atoms: C_2  and  C_3
REMARK    3  A    between atoms: C_2  and  C_4
REMARK    4  A    between atoms: C_7  and  N_10
REMARK    5  A    between atoms: N_24  and  C_27
REMARK    6  A    between atoms: C_27  and  C_28
REMARK                            x       y       z     vdW  Elec       q    Type
REMARK                         _______ _______ _______ _____ _____    ______ ____
ROOT
ATOM      1  N   UNL     1       2.657  -1.834  -4.666  0.00  0.00    -0.269 N 
ATOM      2  C   UNL     1       3.816  -2.513  -4.559  0.00  0.00    +0.308 C 
ATOM      3  O   UNL     1       4.247  -2.813  -3.462  0.00  0.00    -0.252 OA
ATOM      4  N   UNL     1       4.498  -2.861  -5.668  0.00  0.00    -0.258 N 
ATOM      5  C   UNL     1       4.027  -2.519  -7.012  0.00  0.00    +0.122 C 
ATOM      6  C   UNL     1       5.227  -2.304  -7.983  0.00  0.00    +0.091 C 
ATOM      7  S   UNL     1       6.334  -3.645  -7.348  0.00  0.00    -0.120 S 
ATOM      8  C   UNL     1       5.759  -3.597  -5.608  0.00  0.00    +0.189 C 
ATOM      9  C   UNL     1       5.601  -4.985  -5.064  0.00  0.00    +0.019 A 
ATOM     10  C   UNL     1       4.825  -6.065  -5.422  0.00  0.00    +0.047 A 
ATOM     11  C   UNL     1       4.907  -7.246  -4.702  0.00  0.00    +0.124 A 
ATOM     12  C   UNL     1       5.770  -7.337  -3.623  0.00  0.00    +0.040 A 
ATOM     13  C   UNL     1       6.547  -6.256  -3.262  0.00  0.00    +0.027 A 
ATOM     14  C   UNL     1       6.471  -5.065  -3.980  0.00  0.00    +0.043 A 
ATOM     15  N   UNL     1       7.145  -3.852  -3.810  0.00  0.00    -0.264 N 
ATOM     16  C   UNL     1       6.780  -2.935  -4.729  0.00  0.00    +0.259 C 
ATOM     17  O   UNL     1       7.195  -1.800  -4.827  0.00  0.00    -0.272 OA
ATOM     18  F   UNL     1       4.147  -8.307  -5.053  0.00  0.00    -0.205 F 
ATOM     19  H   UNL     1       2.274  -1.663  -5.540  0.00  0.00    +0.156 HD
ENDROOT
BRANCH   1  23
ATOM     20  C   UNL     1       0.719  -0.470  -1.239  0.00  0.00    -0.045 A 
ATOM     21  C   UNL     1       2.100  -0.525  -1.275  0.00  0.00    +0.006 A 
ATOM     22  C   UNL     1       2.746  -0.977  -2.409  0.00  0.00    +0.023 A 
ATOM     23  C   UNL     1       2.006  -1.376  -3.515  0.00  0.00    +0.035 A 
ATOM     24  C   UNL     1       0.619  -1.319  -3.476  0.00  0.00    +0.023 A 
ATOM     25  C   UNL     1      -0.020  -0.872  -2.336  0.00  0.00    +0.006 A 
BRANCH  20  27
ATOM     26  C   UNL     1       0.389  -0.869   1.186  0.00  0.00    +0.012 C 
ATOM     27  C   UNL     1       0.018   0.024   0.000  0.00  0.00    +0.013 C 
ATOM     28  C   UNL     1       0.449   1.463   0.291  0.00  0.00    +0.012 C 
ENDBRANCH  20  27
ENDBRANCH   1  23
BRANCH  15  29
ATOM     29  C   UNL     1       8.132  -3.605  -2.756  0.00  0.00    +0.148 C 
BRANCH  29  30
ATOM     30  C   UNL     1       9.505  -3.974  -3.257  0.00  0.00    -0.030 A 
ATOM     31  C   UNL     1       9.979  -5.261  -3.087  0.00  0.00    +0.008 A 
ATOM     32  C   UNL     1      11.237  -5.601  -3.546  0.00  0.00    +0.038 A 
ATOM     33  C   UNL     1      12.023  -4.651  -4.177  0.00  0.00    +0.123 A 
ATOM     34  C   UNL     1      11.547  -3.362  -4.346  0.00  0.00    +0.038 A 
ATOM     35  C   UNL     1      10.286  -3.026  -3.891  0.00  0.00    +0.008 A 
ATOM     36  F   UNL     1      13.254  -4.982  -4.626  0.00  0.00    -0.205 F 
ENDBRANCH  29  30
ENDBRANCH  15  29
TORSDOF 4
