REMARK  Name = ZINC11860196
REMARK  6 active torsions:
REMARK  status: ('A' for Active; 'I' for Inactive)
REMARK    1  A    between atoms: C_1  and  C_2
REMARK    2  A    between atoms: C_7  and  C_8
REMARK    3  A    between atoms: C_8  and  O_9
REMARK    4  A    between atoms: O_9  and  C_10
REMARK    5  A    between atoms: C_15  and  C_16
REMARK    6  A    between atoms: C_26  and  O_28
REMARK                            x       y       z     vdW  Elec       q    Type
REMARK                         _______ _______ _______ _____ _____    ______ ____
ROOT
ATOM      1  C   UNL     1      -2.079  -1.333   0.437  0.00  0.00    +0.125 A 
ATOM      2  C   UNL     1      -3.060  -1.811   1.294  0.00  0.00    +0.046 A 
ATOM      3  C   UNL     1      -3.025  -1.482   2.634  0.00  0.00    +0.004 A 
ATOM      4  C   UNL     1      -2.013  -0.676   3.123  0.00  0.00    +0.001 A 
ATOM      5  C   UNL     1      -1.032  -0.202   2.273  0.00  0.00    +0.008 A 
ATOM      6  C   UNL     1      -1.065  -0.525   0.930  0.00  0.00    +0.002 A 
ENDROOT
BRANCH   6   7
ATOM      7  C   UNL     1       0.002  -0.004   0.002  0.00  0.00    +0.067 C 
ATOM      8  C   UNL     1       1.372  -0.506   0.469  0.00  0.00    +0.134 C 
ATOM      9  C   UNL     1       2.425   0.342  -0.215  0.00  0.00    +0.313 C 
ATOM     10  O   UNL     1       3.271  -0.151  -0.924  0.00  0.00    -0.250 OA
ATOM     11  O   UNL     1       2.377   1.670   0.003  0.00  0.00    -0.425 OA
ATOM     12  C   UNL     1       1.147   2.251   0.003  0.00  0.00    +0.139 A 
ATOM     13  C   UNL     1      -0.018   1.504   0.010  0.00  0.00    +0.003 A 
ATOM     14  C   UNL     1      -1.247   2.145   0.020  0.00  0.00    +0.011 A 
ATOM     15  C   UNL     1      -1.318   3.523   0.026  0.00  0.00    +0.046 A 
ATOM     16  C   UNL     1      -0.152   4.276   0.012  0.00  0.00    +0.120 A 
ATOM     17  C   UNL     1       1.077   3.640   0.001  0.00  0.00    +0.092 A 
BRANCH  16  18
ATOM     18  O   UNL     1      -0.218   5.634   0.010  0.00  0.00    -0.507 OA
ATOM     19  H   UNL     1      -0.246   6.024  -0.874  0.00  0.00    +0.292 HD
ENDBRANCH  16  18
ENDBRANCH   6   7
BRANCH   1  20
ATOM     20  O   UNL     1      -2.111  -1.656  -0.883  0.00  0.00    -0.487 OA
BRANCH  20  21
ATOM     21  C   UNL     1      -3.184  -2.493  -1.320  0.00  0.00    +0.264 C 
BRANCH  21  28
ATOM     22  C   UNL     1      -5.123  -4.148  -2.680  0.00  0.00    +0.044 C 
ATOM     23  C   UNL     1      -3.983  -3.534  -3.451  0.00  0.00    -0.044 A 
ATOM     24  C   UNL     1      -3.868  -3.759  -4.810  0.00  0.00    +0.004 A 
ATOM     25  C   UNL     1      -2.819  -3.201  -5.517  0.00  0.00    +0.000 A 
ATOM     26  C   UNL     1      -1.889  -2.413  -4.865  0.00  0.00    +0.000 A 
ATOM     27  C   UNL     1      -2.007  -2.184  -3.507  0.00  0.00    +0.007 A 
ATOM     28  C   UNL     1      -3.056  -2.742  -2.801  0.00  0.00    -0.007 A 
ENDBRANCH  21  28
ENDBRANCH  20  21
ENDBRANCH   1  20
TORSDOF 5
