REMARK  Name = ZINC58837589
REMARK  10 active torsions:
REMARK  status: ('A' for Active; 'I' for Inactive)
REMARK    1  A    between atoms: C_1  and  C_2
REMARK    2  A    between atoms: C_2  and  O_3
REMARK    3  A    between atoms: O_3  and  C_4
REMARK    4  A    between atoms: C_4  and  C_6
REMARK    5  A    between atoms: C_7  and  C_32
REMARK    6  A    between atoms: C_14  and  C_15
REMARK    7  A    between atoms: C_19  and  O_22
REMARK    8  A    between atoms: C_20  and  O_21
REMARK    9  A    between atoms: O_22  and  C_23
REMARK   10  A    between atoms: C_25  and  C_27
REMARK                            x       y       z     vdW  Elec       q    Type
REMARK                         _______ _______ _______ _____ _____    ______ ____
ROOT
ATOM      1  C   UNL     1       0.247  -2.610   3.582  0.00  0.00    +0.090 C 
ATOM      2  C   UNL     1       0.842  -3.810   3.208  0.00  0.00    +0.086 C 
ATOM      3  N   UNL     1       2.041  -4.143   3.693  0.00  0.00    -0.222 NA
ATOM      4  C   UNL     1       2.738  -3.413   4.524  0.00  0.00    +0.178 A 
ATOM      5  N   UNL     1       2.330  -2.194   5.016  0.00  0.00    -0.274 N 
ATOM      6  C   UNL     1       3.137  -1.542   5.864  0.00  0.00    +0.268 A 
ATOM      7  O   UNL     1       2.819  -0.461   6.326  0.00  0.00    -0.266 OA
ATOM      8  C   UNL     1       4.417  -2.170   6.221  0.00  0.00    +0.081 A 
ATOM      9  C   UNL     1       5.397  -1.722   7.046  0.00  0.00    +0.032 C 
ATOM     10  S   UNL     1       4.333  -3.681   5.274  0.00  0.00    -0.046 S 
ATOM     11  C   UNL     1       1.003  -1.715   4.536  0.00  0.00    +0.169 C 
ENDROOT
BRANCH   9  12
ATOM     12  C   UNL     1       5.333  -0.360   7.591  0.00  0.00    +0.021 A 
ATOM     13  C   UNL     1       4.982   0.714   6.763  0.00  0.00    +0.012 A 
ATOM     14  C   UNL     1       4.923   1.989   7.279  0.00  0.00    +0.004 A 
ATOM     15  C   UNL     1       5.210   2.218   8.616  0.00  0.00    +0.049 A 
ATOM     16  C   UNL     1       5.559   1.167   9.447  0.00  0.00    +0.162 A 
ATOM     17  C   UNL     1       5.618  -0.128   8.945  0.00  0.00    +0.166 A 
BRANCH  17  18
ATOM     18  O   UNL     1       5.954  -1.162   9.760  0.00  0.00    -0.503 OA
ATOM     19  H   UNL     1       6.903  -1.341   9.796  0.00  0.00    +0.292 HD
ENDBRANCH  17  18
BRANCH  16  20
ATOM     20  O   UNL     1       5.840   1.401  10.758  0.00  0.00    -0.491 OA
ATOM     21  C   UNL     1       5.754   2.755  11.207  0.00  0.00    +0.277 C 
ENDBRANCH  16  20
ENDBRANCH   9  12
BRANCH   2  22
ATOM     22  C   UNL     1       0.145  -4.720   2.271  0.00  0.00    +0.001 A 
ATOM     23  C   UNL     1      -0.056  -4.339   0.944  0.00  0.00    +0.010 A 
ATOM     24  C   UNL     1      -0.706  -5.191   0.075  0.00  0.00    +0.001 A 
ATOM     25  C   UNL     1      -1.159  -6.421   0.518  0.00  0.00    +0.000 A 
ATOM     26  C   UNL     1      -0.963  -6.805   1.833  0.00  0.00    +0.001 A 
ATOM     27  C   UNL     1      -0.309  -5.964   2.710  0.00  0.00    +0.010 A 
ENDBRANCH   2  22
BRANCH  11  28
ATOM     28  C   UNL     1       0.134  -1.489   5.746  0.00  0.00    +0.017 A 
ATOM     29  C   UNL     1      -0.648  -0.423   6.048  0.00  0.00    +0.013 A 
ATOM     30  C   UNL     1      -1.368  -0.433   7.228  0.00  0.00    +0.008 A 
ATOM     31  C   UNL     1      -1.272  -1.508   8.048  0.00  0.00    +0.045 A 
ATOM     32  S   UNL     1      -0.141  -2.558   7.149  0.00  0.00    -0.099 S 
ENDBRANCH  11  28
BRANCH   1  33
ATOM     33  C   UNL     1      -1.009  -2.240   3.086  0.00  0.00    +0.340 C 
ATOM     34  O   UNL     1      -1.650  -3.023   2.407  0.00  0.00    -0.245 OA
BRANCH  33  35
ATOM     35  O   UNL     1      -1.510  -1.016   3.360  0.00  0.00    -0.462 OA
BRANCH  35  37
ATOM     36  C   UNL     1      -3.194   0.713   3.235  0.00  0.00    +0.048 C 
ATOM     37  C   UNL     1      -2.797  -0.706   2.821  0.00  0.00    +0.229 C 
ENDBRANCH  35  37
ENDBRANCH  33  35
ENDBRANCH   1  33
TORSDOF 8
