REMARK  Name = ZINC63426824
REMARK  13 active torsions:
REMARK  status: ('A' for Active; 'I' for Inactive)
REMARK    1  A    between atoms: C_1  and  C_2
REMARK    2  A    between atoms: C_7  and  C_8
REMARK    3  A    between atoms: C_8  and  S_9
REMARK    4  A    between atoms: S_9  and  C_10
REMARK    5  A    between atoms: C_14  and  C_17
REMARK    6  A    between atoms: C_17  and  C_19
REMARK    7  A    between atoms: C_17  and  N_29
REMARK    8  A    between atoms: C_19  and  C_20
REMARK    9  A    between atoms: C_30  and  O_32
REMARK   10  A    between atoms: O_32  and  C_33
REMARK   11  A    between atoms: C_33  and  C_34
REMARK   12  A    between atoms: C_33  and  C_35
REMARK   13  A    between atoms: C_33  and  C_36
REMARK                            x       y       z     vdW  Elec       q    Type
REMARK                         _______ _______ _______ _____ _____    ______ ____
ROOT
ATOM      1  C   UNL     1      -0.752   3.405   6.647  0.00  0.00    +0.133 C 
ENDROOT
BRANCH   1   5
ATOM      2  C   UNL     1      -1.509   1.496   4.344  0.00  0.00    +0.319 C 
ATOM      3  N   UNL     1      -0.957   0.542   5.315  0.00  0.00    -0.146 NA
ATOM      4  N   UNL     1      -0.124   1.105   6.038  0.00  0.00    -0.155 NA
ATOM      5  C   UNL     1       0.003   2.518   5.656  0.00  0.00    +0.280 C 
ATOM      6  O   UNL     1      -0.593   2.612   4.344  0.00  0.00    -0.316 OA
BRANCH   2   7
ATOM      7  S   UNL     1      -1.584   0.744   2.695  0.00  0.00    -0.100 S 
BRANCH   7   8
ATOM      8  C   UNL     1       0.129   0.252   2.359  0.00  0.00    +0.109 C 
BRANCH   8  15
ATOM      9  C   UNL     1       0.643   1.865   0.018  0.00  0.00    +0.044 C 
ATOM     10  C   UNL     1       0.454   0.376  -0.119  0.00  0.00    -0.046 A 
ATOM     11  C   UNL     1       0.532  -0.219  -1.365  0.00  0.00    +0.003 A 
ATOM     12  C   UNL     1       0.360  -1.585  -1.491  0.00  0.00    +0.000 A 
ATOM     13  C   UNL     1       0.109  -2.356  -0.371  0.00  0.00    +0.000 A 
ATOM     14  C   UNL     1       0.032  -1.761   0.874  0.00  0.00    +0.005 A 
ATOM     15  C   UNL     1       0.209  -0.396   1.001  0.00  0.00    -0.035 A 
ENDBRANCH   8  15
ENDBRANCH   7   8
ENDBRANCH   2   7
ENDBRANCH   1   5
BRANCH   1  16
ATOM     16  N   UNL     1      -2.115   2.896   6.818  0.00  0.00    -0.274 N 
ATOM     17  C   UNL     1      -3.168   3.653   6.451  0.00  0.00    +0.401 C 
ATOM     18  O   UNL     1      -2.986   4.720   5.899  0.00  0.00    -0.226 OA
ATOM     19  H   UNL     1      -2.260   2.014   7.196  0.00  0.00    +0.152 HD
BRANCH  17  20
ATOM     20  O   UNL     1      -4.422   3.227   6.696  0.00  0.00    -0.445 OA
BRANCH  20  21
ATOM     21  C   UNL     1      -5.490   4.081   6.279  0.00  0.00    +0.107 C 
ATOM     22  C   UNL     1      -5.415   4.290   4.766  0.00  0.00    +0.055 C 
ATOM     23  C   UNL     1      -6.829   3.434   6.639  0.00  0.00    +0.055 C 
ATOM     24  C   UNL     1      -5.369   5.431   6.987  0.00  0.00    +0.055 C 
ENDBRANCH  20  21
ENDBRANCH  17  20
ENDBRANCH   1  16
BRANCH   1  25
ATOM     25  C   UNL     1      -0.030   3.392   7.996  0.00  0.00    +0.060 C 
BRANCH  25  26
ATOM     26  C   UNL     1      -0.703   4.360   8.935  0.00  0.00    -0.040 C 
ATOM     27  C   UNL     1      -1.652   4.074   9.855  0.00  0.00    -0.001 A 
ATOM     28  C   UNL     1      -2.319   2.825  10.241  0.00  0.00    +0.010 A 
ATOM     29  C   UNL     1      -3.252   2.854  11.219  0.00  0.00    +0.001 A 
ATOM     30  C   UNL     1      -3.598   4.045  11.873  0.00  0.00    +0.002 A 
ATOM     31  C   UNL     1      -3.029   5.233  11.574  0.00  0.00    +0.026 A 
ATOM     32  C   UNL     1      -2.035   5.319  10.560  0.00  0.00    +0.043 A 
ATOM     33  N   UNL     1      -1.348   6.334  10.095  0.00  0.00    -0.380 N 
ATOM     34  C   UNL     1      -0.447   5.847   9.045  0.00  0.00    +0.144 C 
ATOM     35  H   UNL     1      -1.421   7.253  10.398  0.00  0.00    +0.160 HD
ENDBRANCH  25  26
ENDBRANCH   1  25
TORSDOF 9
