REMARK  Name = ZINC11501934
REMARK  10 active torsions:
REMARK  status: ('A' for Active; 'I' for Inactive)
REMARK    1  A    between atoms: C_1  and  C_2
REMARK    2  A    between atoms: C_2  and  C_3
REMARK    3  A    between atoms: C_3  and  C_5
REMARK    4  A    between atoms: C_3  and  N_6
REMARK    5  A    between atoms: C_15  and  S_16
REMARK    6  A    between atoms: S_16  and  C_17
REMARK    7  A    between atoms: C_17  and  C_18
REMARK    8  A    between atoms: N_20  and  C_21
REMARK    9  A    between atoms: C_26  and  C_27
REMARK   10  A    between atoms: C_26  and  N_68
REMARK                            x       y       z     vdW  Elec       q    Type
REMARK                         _______ _______ _______ _____ _____    ______ ____
ROOT
ATOM      1  N   UNL     1       3.539  -3.559   3.301  0.00  0.00    -0.284 N 
ATOM      2  C   UNL     1       2.741  -2.775   2.552  0.00  0.00    +0.263 A 
ATOM      3  O   UNL     1       1.546  -2.709   2.782  0.00  0.00    -0.267 OA
ATOM      4  C   UNL     1       3.317  -2.020   1.482  0.00  0.00    +0.076 A 
ATOM      5  C   UNL     1       2.640  -1.111   0.550  0.00  0.00    -0.023 A 
ATOM      6  C   UNL     1       3.410  -0.518  -0.386  0.00  0.00    -0.004 A 
ATOM      7  S   UNL     1       5.053  -1.115  -0.081  0.00  0.00    -0.073 S 
ATOM      8  C   UNL     1       4.701  -2.170   1.302  0.00  0.00    +0.117 A 
ATOM      9  N   UNL     1       5.434  -2.961   2.078  0.00  0.00    -0.216 NA
ATOM     10  C   UNL     1       4.879  -3.644   3.058  0.00  0.00    +0.173 A 
ATOM     11  C   UNL     1       2.980   0.426  -1.464  0.00  0.00    +0.043 C 
ATOM     12  C   UNL     1       2.104   1.529  -0.854  0.00  0.00    +0.005 C 
ATOM     13  C   UNL     1       0.652   1.062  -0.891  0.00  0.00    +0.001 C 
ATOM     14  C   UNL     1       0.585  -0.453  -0.712  0.00  0.00    +0.005 C 
ATOM     15  C   UNL     1       1.139  -0.855   0.649  0.00  0.00    +0.037 C 
ENDROOT
BRANCH   1  16
ATOM     16  C   UNL     1       2.957  -4.335   4.399  0.00  0.00    +0.089 C 
ATOM     17  C   UNL     1       1.905  -5.296   3.843  0.00  0.00    +0.031 C 
BRANCH  16  19
ATOM     18  C   UNL     1       3.367  -2.487   6.030  0.00  0.00    +0.006 C 
ATOM     19  C   UNL     1       2.299  -3.385   5.402  0.00  0.00    +0.021 C 
ENDBRANCH  16  19
ENDBRANCH   1  16
BRANCH  10  20
ATOM     20  S   UNL     1       5.881  -4.684   4.068  0.00  0.00    -0.078 S 
BRANCH  20  21
ATOM     21  C   UNL     1       7.497  -4.402   3.304  0.00  0.00    +0.173 C 
BRANCH  21  22
ATOM     22  C   UNL     1       8.542  -5.214   4.024  0.00  0.00    +0.224 C 
ATOM     23  O   UNL     1       8.225  -5.915   4.963  0.00  0.00    -0.275 OA
ATOM     24  N   UNL     1       9.829  -5.162   3.626  0.00  0.00    -0.312 N 
ATOM     25  H   UNL     1      10.082  -4.603   2.876  0.00  0.00    +0.149 HD
BRANCH  24  26
ATOM     26  C   UNL     1      10.845  -5.952   4.327  0.00  0.00    +0.069 C 
ATOM     27  C   UNL     1      11.351  -5.171   5.543  0.00  0.00    +0.003 C 
ATOM     28  C   UNL     1      12.454  -5.974   6.235  0.00  0.00    -0.077 C 
ATOM     29  C   UNL     1      13.103  -7.000   4.138  0.00  0.00    -0.077 C 
ATOM     30  C   UNL     1      12.018  -6.228   3.383  0.00  0.00    +0.003 C 
ATOM     31  N   UNL     1      13.564  -6.185   5.282  0.00  0.00    +0.380 N 
ATOM     32  H   UNL     1      13.882  -5.273   4.933  0.00  0.00    -0.082 HD
BRANCH  31  33
ATOM     33  C   UNL     1      14.691  -6.859   5.960  0.00  0.00    -0.082 C 
ATOM     34  C   UNL     1      14.972  -6.151   7.287  0.00  0.00    -0.017 C 
ENDBRANCH  31  33
ENDBRANCH  24  26
ENDBRANCH  21  22
ENDBRANCH  20  21
ENDBRANCH  10  20
TORSDOF 7
