REMARK  Name = ZINC44960386
REMARK  13 active torsions:
REMARK  status: ('A' for Active; 'I' for Inactive)
REMARK    1  A    between atoms: C_1  and  C_2
REMARK    2  A    between atoms: C_2  and  O_3
REMARK    3  A    between atoms: O_3  and  C_4
REMARK    4  A    between atoms: C_4  and  C_6
REMARK    5  A    between atoms: C_12  and  N_14
REMARK    6  A    between atoms: C_15  and  C_17
REMARK    7  A    between atoms: N_23  and  C_24
REMARK    8  A    between atoms: C_24  and  C_25
REMARK    9  A    between atoms: C_27  and  C_33
REMARK   10  A    between atoms: C_30  and  O_31
REMARK   11  A    between atoms: O_31  and  C_32
REMARK   12  A    between atoms: C_33  and  C_34
REMARK   13  A    between atoms: C_33  and  C_35
REMARK                            x       y       z     vdW  Elec       q    Type
REMARK                         _______ _______ _______ _____ _____    ______ ____
ROOT
ATOM      1  C   UNL     1       2.430  -5.964  -0.567  0.00  0.00    +0.020 C 
ATOM      2  C   UNL     1       2.050  -5.033  -1.720  0.00  0.00    -0.006 C 
ATOM      3  C   UNL     1       2.860  -5.411  -2.963  0.00  0.00    -0.003 C 
ATOM      4  C   UNL     1       2.606  -6.883  -3.299  0.00  0.00    -0.019 C 
ATOM      5  C   UNL     1       2.966  -7.746  -2.087  0.00  0.00    -0.077 C 
ATOM      6  N   UNL     1       2.139  -7.354  -0.940  0.00  0.00    +0.390 N 
ATOM      7  H   UNL     1       1.163  -7.438  -1.185  0.00  0.00    -0.080 HD
ENDROOT
BRANCH   1   9
ATOM      8  N   UNL     1       2.108  -4.669   1.515  0.00  0.00    -0.313 N 
ATOM      9  C   UNL     1       1.635  -5.596   0.659  0.00  0.00    +0.200 C 
ATOM     10  O   UNL     1       0.570  -6.134   0.875  0.00  0.00    -0.278 OA
ATOM     11  H   UNL     1       2.960  -4.239   1.343  0.00  0.00    +0.149 HD
BRANCH   8  17
ATOM     12  C   UNL     1       1.708  -2.896   3.151  0.00  0.00    +0.118 C 
ATOM     13  C   UNL     1       3.202  -2.842   3.477  0.00  0.00    +0.016 C 
ATOM     14  C   UNL     1       3.515  -3.829   4.603  0.00  0.00    +0.001 C 
ATOM     15  C   UNL     1       3.141  -5.245   4.159  0.00  0.00    +0.002 C 
ATOM     16  C   UNL     1       1.647  -5.299   3.833  0.00  0.00    +0.023 C 
ATOM     17  C   UNL     1       1.335  -4.311   2.707  0.00  0.00    +0.087 C 
BRANCH  12  18
ATOM     18  C   UNL     1       1.401  -1.923   2.042  0.00  0.00    +0.312 C 
ATOM     19  O   UNL     1       0.930  -2.321   1.003  0.00  0.00    -0.250 OA
BRANCH  18  20
ATOM     20  O   UNL     1       1.649  -0.615   2.209  0.00  0.00    -0.465 OA
BRANCH  20  22
ATOM     21  C   UNL     1       1.682   1.692   1.489  0.00  0.00    +0.048 C 
ATOM     22  C   UNL     1       1.332   0.250   1.116  0.00  0.00    +0.229 C 
ENDBRANCH  20  22
ENDBRANCH  18  20
ENDBRANCH  12  18
ENDBRANCH   8  17
ENDBRANCH   1   9
BRANCH   6  23
ATOM     23  C   UNL     1       2.432  -8.236   0.197  0.00  0.00    -0.038 C 
BRANCH  23  24
ATOM     24  C   UNL     1       2.006  -9.643  -0.135  0.00  0.00    -0.022 A 
ATOM     25  C   UNL     1       2.955 -10.599  -0.441  0.00  0.00    +0.009 A 
ATOM     26  C   UNL     1       2.564 -11.889  -0.747  0.00  0.00    -0.044 A 
ATOM     27  C   UNL     1       1.223 -12.227  -0.747  0.00  0.00    +0.007 A 
ATOM     28  C   UNL     1       0.270 -11.275  -0.442  0.00  0.00    +0.046 A 
ATOM     29  C   UNL     1       0.660  -9.980  -0.130  0.00  0.00    +0.121 A 
BRANCH  26  30
ATOM     30  C   UNL     1       3.602 -12.930  -1.080  0.00  0.00    +0.013 C 
ATOM     31  C   UNL     1       3.510 -14.082  -0.078  0.00  0.00    +0.012 C 
ATOM     32  C   UNL     1       3.354 -13.463  -2.493  0.00  0.00    +0.012 C 
ENDBRANCH  26  30
BRANCH  29  33
ATOM     33  O   UNL     1      -0.275  -9.043   0.177  0.00  0.00    -0.495 OA
ATOM     34  C   UNL     1      -1.641  -9.461   0.163  0.00  0.00    +0.277 C 
ENDBRANCH  29  33
ENDBRANCH  23  24
ENDBRANCH   6  23
TORSDOF 9
