REMARK  Name = ZINC20672887
REMARK  9 active torsions:
REMARK  status: ('A' for Active; 'I' for Inactive)
REMARK    1  A    between atoms: C_1  and  C_2
REMARK    2  A    between atoms: C_2  and  C_3
REMARK    3  A    between atoms: C_4  and  C_25
REMARK    4  A    between atoms: C_8  and  C_13
REMARK    5  A    between atoms: C_9  and  C_12
REMARK    6  A    between atoms: N_15  and  C_16
REMARK    7  A    between atoms: C_21  and  O_22
REMARK    8  A    between atoms: O_22  and  C_23
REMARK    9  A    between atoms: C_23  and  C_24
REMARK                            x       y       z     vdW  Elec       q    Type
REMARK                         _______ _______ _______ _____ _____    ______ ____
ROOT
ATOM      1  C   UNL     1       2.161   3.675   0.569  0.00  0.00    +0.073 A 
ATOM      2  C   UNL     1       0.830   3.264   0.425  0.00  0.00    +0.051 A 
ATOM      3  C   UNL     1       0.847   1.893   0.155  0.00  0.00    +0.186 A 
ATOM      4  N   UNL     1      -0.117   0.993  -0.069  0.00  0.00    -0.128 NA
ATOM      5  N   UNL     1       0.163  -0.241  -0.302  0.00  0.00    -0.141 NA
ATOM      6  C   UNL     1       1.433  -0.680  -0.330  0.00  0.00    +0.169 A 
ATOM      7  C   UNL     1       2.470   0.204  -0.106  0.00  0.00    +0.074 A 
ATOM      8  N   UNL     1       2.167   1.509   0.140  0.00  0.00    -0.214 N 
ATOM      9  N   UNL     1       2.946   2.639   0.401  0.00  0.00    -0.169 NA
ATOM     10  C   UNL     1       3.902  -0.264  -0.133  0.00  0.00    +0.068 C 
ENDROOT
BRANCH   2  11
ATOM     11  C   UNL     1      -0.372   4.122   0.540  0.00  0.00    -0.012 A 
ATOM     12  C   UNL     1      -0.590   5.147  -0.380  0.00  0.00    +0.010 A 
ATOM     13  C   UNL     1      -1.714   5.941  -0.271  0.00  0.00    +0.016 A 
ATOM     14  C   UNL     1      -2.619   5.727   0.755  0.00  0.00    +0.018 A 
ATOM     15  C   UNL     1      -2.404   4.714   1.674  0.00  0.00    +0.016 A 
ATOM     16  C   UNL     1      -1.287   3.911   1.572  0.00  0.00    +0.010 A 
ATOM     17 BR   UNL     1      -4.153   6.823   0.902  0.00  0.00    -0.050 Br
ENDBRANCH   2  11
BRANCH   6  18
ATOM     18  C   UNL     1       1.720  -2.103  -0.599  0.00  0.00    +0.270 C 
ATOM     19  O   UNL     1       2.869  -2.478  -0.729  0.00  0.00    -0.268 OA
ATOM     20  N   UNL     1       0.707  -2.986  -0.701  0.00  0.00    -0.277 N 
ATOM     21  H   UNL     1      -0.335  -2.636  -0.657  0.00  0.00    +0.155 HD
BRANCH  20  22
ATOM     22  C   UNL     1       0.981  -4.350  -0.862  0.00  0.00    +0.076 A 
ATOM     23  C   UNL     1       2.100  -4.755  -1.574  0.00  0.00    +0.027 A 
ATOM     24  C   UNL     1       2.371  -6.102  -1.728  0.00  0.00    +0.002 A 
ATOM     25  C   UNL     1       1.523  -7.048  -1.182  0.00  0.00    +0.004 A 
ATOM     26  C   UNL     1       0.403  -6.652  -0.476  0.00  0.00    +0.047 A 
ATOM     27  C   UNL     1       0.127  -5.304  -0.313  0.00  0.00    +0.142 A 
BRANCH  27  28
ATOM     28  O   UNL     1      -0.976  -4.913   0.381  0.00  0.00    -0.490 OA
BRANCH  28  29
ATOM     29  C   UNL     1      -1.806  -5.946   0.916  0.00  0.00    +0.226 C 
ATOM     30  C   UNL     1      -2.987  -5.318   1.658  0.00  0.00    +0.048 C 
ENDBRANCH  28  29
ENDBRANCH  27  28
ENDBRANCH  20  22
ENDBRANCH   6  18
BRANCH   1  32
ATOM     31  C   UNL     1       2.704   5.276   2.383  0.00  0.00    +0.010 C 
ATOM     32  C   UNL     1       2.616   5.080   0.868  0.00  0.00    +0.054 C 
ENDBRANCH   1  32
TORSDOF 6
