REMARK  Name = ZINC39686907
REMARK  10 active torsions:
REMARK  status: ('A' for Active; 'I' for Inactive)
REMARK    1  A    between atoms: C_1  and  C_2
REMARK    2  A    between atoms: C_2  and  C_4
REMARK    3  A    between atoms: C_2  and  N_12
REMARK    4  A    between atoms: C_4  and  C_5
REMARK    5  A    between atoms: C_13  and  C_15
REMARK    6  A    between atoms: C_26  and  C_28
REMARK    7  A    between atoms: C_31  and  O_36
REMARK    8  A    between atoms: C_33  and  O_34
REMARK    9  A    between atoms: O_34  and  C_35
REMARK   10  A    between atoms: O_36  and  C_37
REMARK                            x       y       z     vdW  Elec       q    Type
REMARK                         _______ _______ _______ _____ _____    ______ ____
ROOT
ATOM      1  C   UNL     1       2.776  -1.141   2.412  0.00  0.00    +0.100 C 
ATOM      2  C   UNL     1       2.679  -0.092   3.542  0.00  0.00    +0.121 C 
ATOM      3  N   UNL     1       3.999  -0.141   4.213  0.00  0.00    -0.296 N 
ATOM      4  C   UNL     1       4.971  -0.304   3.105  0.00  0.00    +0.115 C 
ATOM      5  C   UNL     1       4.282  -1.277   2.128  0.00  0.00    -0.004 C 
ATOM      6  C   UNL     1       4.586  -0.880   0.687  0.00  0.00    -0.010 C 
ATOM      7  C   UNL     1       6.079  -1.079   0.411  0.00  0.00    -0.082 C 
ATOM      8  N   UNL     1       6.437  -2.484   0.638  0.00  0.00    +0.379 N 
ATOM      9  C   UNL     1       6.229  -2.832   2.049  0.00  0.00    -0.082 C 
ATOM     10  C   UNL     1       4.743  -2.707   2.394  0.00  0.00    -0.010 C 
ATOM     11  C   UNL     1       4.258  -0.057   5.533  0.00  0.00    +0.250 C 
ATOM     12  O   UNL     1       3.341  -0.017   6.331  0.00  0.00    -0.270 OA
ATOM     13  H   UNL     1       5.860  -3.075   0.059  0.00  0.00    -0.086 HD
ATOM     14  H   UNL     1       7.407  -2.626   0.397  0.00  0.00    -0.086 HD
ENDROOT
BRANCH  11  15
ATOM     15  C   UNL     1       5.651  -0.013   6.009  0.00  0.00    +0.079 A 
ATOM     16  C   UNL     1       6.625   0.665   5.268  0.00  0.00    +0.020 A 
ATOM     17  C   UNL     1       7.925   0.704   5.716  0.00  0.00    +0.046 A 
ATOM     18  C   UNL     1       8.276   0.071   6.905  0.00  0.00    +0.124 A 
ATOM     19  C   UNL     1       7.318  -0.603   7.648  0.00  0.00    +0.092 A 
ATOM     20  C   UNL     1       6.005  -0.645   7.211  0.00  0.00    +0.136 A 
BRANCH  20  21
ATOM     21  O   UNL     1       5.066  -1.299   7.938  0.00  0.00    -0.494 OA
ATOM     22  C   UNL     1       5.500  -1.919   9.150  0.00  0.00    +0.277 C 
ENDBRANCH  20  21
BRANCH  18  23
ATOM     23  O   UNL     1       9.561   0.115   7.340  0.00  0.00    -0.495 OA
ATOM     24  C   UNL     1      10.497   0.826   6.528  0.00  0.00    +0.277 C 
ENDBRANCH  18  23
ENDBRANCH  11  15
BRANCH   1  26
ATOM     25  N   UNL     1       1.450  -1.542   0.363  0.00  0.00    -0.312 N 
ATOM     26  C   UNL     1       2.052  -0.657   1.182  0.00  0.00    +0.218 C 
ATOM     27  O   UNL     1       2.011   0.528   0.930  0.00  0.00    -0.275 OA
ATOM     28  H   UNL     1       1.483  -2.490   0.565  0.00  0.00    +0.149 HD
BRANCH  25  30
ATOM     29  C   UNL     1      -0.682  -0.670  -0.459  0.00  0.00    +0.028 C 
ATOM     30  C   UNL     1       0.746  -1.072  -0.833  0.00  0.00    +0.074 C 
BRANCH  30  31
ATOM     31  C   UNL     1       0.704  -2.192  -1.874  0.00  0.00    +0.060 C 
BRANCH  31  32
ATOM     32  C   UNL     1       2.105  -2.504  -2.333  0.00  0.00    -0.010 A 
ATOM     33  C   UNL     1       2.608  -1.906  -3.473  0.00  0.00    +0.006 A 
ATOM     34  C   UNL     1       3.893  -2.192  -3.894  0.00  0.00    +0.000 A 
ATOM     35  C   UNL     1       4.677  -3.076  -3.176  0.00  0.00    +0.003 A 
ATOM     36  C   UNL     1       4.176  -3.675  -2.037  0.00  0.00    +0.038 A 
ATOM     37  C   UNL     1       2.891  -3.386  -1.610  0.00  0.00    +0.127 A 
ATOM     38  F   UNL     1       2.402  -3.967  -0.493  0.00  0.00    -0.205 F 
ENDBRANCH  31  32
ENDBRANCH  30  31
ENDBRANCH  25  30
ENDBRANCH   1  26
TORSDOF 7
