REMARK  Name = ZINC45230110
REMARK  15 active torsions:
REMARK  status: ('A' for Active; 'I' for Inactive)
REMARK    1  A    between atoms: C_1  and  C_2
REMARK    2  A    between atoms: C_2  and  C_3
REMARK    3  A    between atoms: C_3  and  N_4
REMARK    4  A    between atoms: N_4  and  C_5
REMARK    5  A    between atoms: C_5  and  C_6
REMARK    6  A    between atoms: C_9  and  C_12
REMARK    7  A    between atoms: C_15  and  C_18
REMARK    8  A    between atoms: C_18  and  N_19
REMARK    9  A    between atoms: N_19  and  C_20
REMARK   10  A    between atoms: C_20  and  C_21
REMARK   11  A    between atoms: C_21  and  O_22
REMARK   12  A    between atoms: O_22  and  C_23
REMARK   13  A    between atoms: C_24  and  C_26
REMARK   14  A    between atoms: C_29  and  N_33
REMARK   15  A    between atoms: C_30  and  C_32
REMARK                            x       y       z     vdW  Elec       q    Type
REMARK                         _______ _______ _______ _____ _____    ______ ____
ROOT
ATOM      1  C   UNL     1       0.378  -9.565  -3.803  0.00  0.00    +0.000 A 
ATOM      2  C   UNL     1       1.483  -9.670  -2.960  0.00  0.00    +0.010 A 
ATOM      3  C   UNL     1       1.917 -10.913  -2.548  0.00  0.00    +0.006 A 
ATOM      4  C   UNL     1       1.258 -12.054  -2.969  0.00  0.00    -0.030 A 
ATOM      5  C   UNL     1       0.161 -11.956  -3.806  0.00  0.00    +0.006 A 
ATOM      6  C   UNL     1      -0.286 -10.717  -4.220  0.00  0.00    +0.010 A 
ENDROOT
BRANCH   1  10
ATOM      7  C   UNL     1      -0.984  -5.797  -5.087  0.00  0.00    -0.046 A 
ATOM      8  C   UNL     1       0.124  -5.847  -4.253  0.00  0.00    +0.005 A 
ATOM      9  C   UNL     1       0.576  -7.085  -3.827  0.00  0.00    +0.028 A 
ATOM     10  C   UNL     1      -0.094  -8.231  -4.249  0.00  0.00    +0.071 A 
ATOM     11  N   UNL     1      -1.150  -8.140  -5.047  0.00  0.00    -0.255 NA
ATOM     12  C   UNL     1      -1.604  -6.975  -5.462  0.00  0.00    +0.113 A 
BRANCH   7  13
ATOM     13  C   UNL     1      -1.510  -4.472  -5.574  0.00  0.00    -0.045 C 
BRANCH  13  14
ATOM     14  N   UNL     1      -2.506  -3.961  -4.622  0.00  0.00    +0.382 N 
ATOM     15  H   UNL     1      -2.076  -3.840  -3.718  0.00  0.00    -0.085 HD
ATOM     16  H   UNL     1      -3.268  -4.618  -4.547  0.00  0.00    -0.085 HD
BRANCH  14  17
ATOM     17  C   UNL     1      -3.019  -2.669  -5.098  0.00  0.00    -0.082 C 
BRANCH  17  19
ATOM     18  C   UNL     1      -4.590  -0.791  -4.601  0.00  0.00    +0.002 C 
ATOM     19  C   UNL     1      -4.056  -2.136  -4.106  0.00  0.00    -0.022 C 
ENDBRANCH  17  19
ENDBRANCH  14  17
ENDBRANCH  13  14
ENDBRANCH   7  13
ENDBRANCH   1  10
BRANCH   4  20
ATOM     20  C   UNL     1       1.738 -13.409  -2.516  0.00  0.00    +0.143 C 
BRANCH  20  21
ATOM     21  N   UNL     1       1.062 -13.774  -1.269  0.00  0.00    -0.291 N 
ATOM     22  C   UNL     1       1.605 -13.435  -0.083  0.00  0.00    +0.247 C 
ATOM     23  O   UNL     1       2.623 -12.771  -0.049  0.00  0.00    -0.270 OA
BRANCH  22  24
ATOM     24  C   UNL     1       0.964 -13.871   1.176  0.00  0.00    +0.037 A 
ATOM     25  C   UNL     1       1.723 -14.488   2.172  0.00  0.00    +0.015 A 
ATOM     26  C   UNL     1       1.119 -14.891   3.344  0.00  0.00    +0.034 A 
ATOM     27  C   UNL     1      -0.236 -14.686   3.534  0.00  0.00    +0.129 A 
ATOM     28  C   UNL     1      -0.994 -14.076   2.551  0.00  0.00    -0.020 A 
ATOM     29  C   UNL     1      -0.401 -13.662   1.376  0.00  0.00    +0.018 A 
ATOM     30  C   UNL     1      -2.469 -13.857   2.766  0.00  0.00    +0.046 C 
BRANCH  27  31
ATOM     31  N   UNL     1      -0.878 -15.123   4.795  0.00  0.00    +0.057 N 
ATOM     32  O   UNL     1      -1.741 -14.444   5.300  0.00  0.00    -0.126 OA
ATOM     33  O   UNL     1      -0.539 -16.158   5.319  0.00  0.00    -0.126 OA
ENDBRANCH  27  31
ENDBRANCH  22  24
BRANCH  21  34
ATOM     34  C   UNL     1      -0.206 -14.508  -1.310  0.00  0.00    +0.136 C 
BRANCH  34  35
ATOM     35  C   UNL     1       0.077 -16.006  -1.449  0.00  0.00    +0.178 C 
BRANCH  35  36
ATOM     36  O   UNL     1       0.747 -16.474  -0.277  0.00  0.00    -0.381 OA
ATOM     37  C   UNL     1       1.059 -17.869  -0.304  0.00  0.00    +0.194 C 
ENDBRANCH  35  36
ENDBRANCH  34  35
ENDBRANCH  21  34
ENDBRANCH  20  21
ENDBRANCH   4  20
TORSDOF 12
