REMARK  Name = ZINC12494175
REMARK  5 active torsions:
REMARK  status: ('A' for Active; 'I' for Inactive)
REMARK    1  A    between atoms: C_1  and  C_2
REMARK    2  A    between atoms: C_15  and  S_17
REMARK    3  A    between atoms: S_17  and  C_18
REMARK    4  A    between atoms: C_18  and  C_19
REMARK    5  A    between atoms: N_21  and  C_22
REMARK                            x       y       z     vdW  Elec       q    Type
REMARK                         _______ _______ _______ _____ _____    ______ ____
ROOT
ATOM      1  C   UNL     1       1.346   3.586   0.222  0.00  0.00    +0.008 C 
ATOM      2  C   UNL     1       1.364   2.078  -0.033  0.00  0.00    -0.009 C 
ATOM      3  C   UNL     1      -0.070   1.539  -0.034  0.00  0.00    +0.008 C 
ATOM      4  C   UNL     1      -0.050   0.011  -0.039  0.00  0.00    +0.037 C 
ATOM      5  C   UNL     1       0.830  -0.469  -1.190  0.00  0.00    -0.023 A 
ATOM      6  C   UNL     1       1.726   0.366  -1.764  0.00  0.00    -0.004 A 
ATOM      7  S   UNL     1       2.512  -0.595  -3.033  0.00  0.00    -0.073 S 
ATOM      8  C   UNL     1       1.641  -2.111  -2.792  0.00  0.00    +0.117 A 
ATOM      9  C   UNL     1       0.761  -1.819  -1.725  0.00  0.00    +0.075 A 
ATOM     10  C   UNL     1      -0.102  -2.873  -1.282  0.00  0.00    +0.261 A 
ATOM     11  O   UNL     1      -0.896  -2.719  -0.370  0.00  0.00    -0.267 OA
ATOM     12  N   UNL     1       0.017  -4.051  -1.939  0.00  0.00    -0.301 N 
ATOM     13  H   UNL     1      -0.549  -4.791  -1.670  0.00  0.00    +0.171 HD
ATOM     14  C   UNL     1       0.896  -4.244  -2.961  0.00  0.00    +0.170 A 
ATOM     15  N   UNL     1       1.709  -3.291  -3.396  0.00  0.00    -0.216 NA
ATOM     16  C   UNL     1       1.995   1.795  -1.404  0.00  0.00    +0.046 C 
ENDROOT
BRANCH  14  17
ATOM     17  S   UNL     1       0.957  -5.825  -3.736  0.00  0.00    -0.078 S 
BRANCH  17  18
ATOM     18  C   UNL     1       2.246  -5.522  -4.969  0.00  0.00    +0.173 C 
BRANCH  18  19
ATOM     19  C   UNL     1       2.475  -6.774  -5.775  0.00  0.00    +0.228 C 
ATOM     20  O   UNL     1       1.830  -7.774  -5.539  0.00  0.00    -0.275 OA
ATOM     21  N   UNL     1       3.397  -6.784  -6.759  0.00  0.00    -0.279 N 
ATOM     22  H   UNL     1       3.864  -5.967  -6.993  0.00  0.00    +0.155 HD
BRANCH  21  23
ATOM     23  C   UNL     1       3.680  -7.978  -7.445  0.00  0.00    +0.115 A 
ATOM     24  C   UNL     1       4.933  -8.491  -7.442  0.00  0.00    +0.116 A 
ATOM     25  N   UNL     1       5.188  -9.660  -8.114  0.00  0.00    -0.313 N 
ATOM     26  H   UNL     1       6.111 -10.045  -8.105  0.00  0.00    +0.170 HD
ATOM     27  C   UNL     1       4.208 -10.294  -8.783  0.00  0.00    +0.327 A 
ATOM     28  O   UNL     1       4.459 -11.326  -9.375  0.00  0.00    -0.247 OA
ATOM     29  N   UNL     1       2.955  -9.803  -8.808  0.00  0.00    -0.274 N 
ATOM     30  H   UNL     1       2.241 -10.289  -9.312  0.00  0.00    +0.173 HD
ATOM     31  C   UNL     1       2.658  -8.660  -8.158  0.00  0.00    +0.275 A 
ATOM     32  O   UNL     1       1.524  -8.217  -8.181  0.00  0.00    -0.266 OA
ENDBRANCH  21  23
ENDBRANCH  18  19
ENDBRANCH  17  18
ENDBRANCH  14  17
TORSDOF 4
