REMARK  Name = ZINC09591109
REMARK  7 active torsions:
REMARK  status: ('A' for Active; 'I' for Inactive)
REMARK    1  A    between atoms: C_1  and  C_2
REMARK    2  A    between atoms: C_5  and  C_8
REMARK    3  A    between atoms: C_13  and  S_17
REMARK    4  A    between atoms: S_17  and  C_18
REMARK    5  A    between atoms: C_18  and  C_19
REMARK    6  A    between atoms: C_24  and  C_27
REMARK    7  A    between atoms: C_30  and  C_33
REMARK                            x       y       z     vdW  Elec       q    Type
REMARK                         _______ _______ _______ _____ _____    ______ ____
ROOT
ATOM      1  S   UNL     1      -5.096   0.845  -0.399  0.00  0.00    -0.096 S 
ENDROOT
BRANCH   1   7
ATOM      2  C   UNL     1      -8.244   0.087   0.044  0.00  0.00    +0.001 A 
ATOM      3  C   UNL     1      -9.567  -0.137   0.221  0.00  0.00    +0.056 A 
ATOM      4  S   UNL     1     -10.278   1.497   0.155  0.00  0.00    -0.076 S 
ATOM      5  C   UNL     1      -8.797   2.437  -0.107  0.00  0.00    +0.113 A 
ATOM      6  C   UNL     1      -7.782   1.459  -0.143  0.00  0.00    +0.047 A 
ATOM      7  C   UNL     1      -6.465   1.954  -0.339  0.00  0.00    +0.109 A 
ATOM      8  N   UNL     1      -6.278   3.257  -0.481  0.00  0.00    -0.229 NA
ATOM      9  C   UNL     1      -7.279   4.118  -0.441  0.00  0.00    +0.223 A 
ATOM     10  N   UNL     1      -8.523   3.718  -0.257  0.00  0.00    -0.228 NA
BRANCH   2  15
ATOM     11  C   UNL     1      -4.510  -4.296   0.005  0.00  0.00    +0.044 C 
ATOM     12  C   UNL     1      -5.487  -3.148   0.015  0.00  0.00    -0.050 A 
ATOM     13  C   UNL     1      -5.342  -2.128   0.938  0.00  0.00    +0.004 A 
ATOM     14  C   UNL     1      -6.234  -1.075   0.952  0.00  0.00    +0.009 A 
ATOM     15  C   UNL     1      -7.282  -1.041   0.033  0.00  0.00    -0.017 A 
ATOM     16  C   UNL     1      -7.425  -2.074  -0.892  0.00  0.00    +0.009 A 
ATOM     17  C   UNL     1      -6.524  -3.119  -0.899  0.00  0.00    +0.004 A 
ENDBRANCH   2  15
ENDBRANCH   1   7
BRANCH   1  18
ATOM     18  C   UNL     1      -3.749   2.024  -0.667  0.00  0.00    +0.172 C 
BRANCH  18  19
ATOM     19  C   UNL     1      -2.441   1.281  -0.754  0.00  0.00    +0.230 C 
ATOM     20  O   UNL     1      -2.421   0.073  -0.646  0.00  0.00    -0.274 OA
ATOM     21  N   UNL     1      -1.293   1.958  -0.953  0.00  0.00    -0.253 N 
ATOM     22  C   UNL     1      -0.080   1.269  -1.033  0.00  0.00    +0.230 A 
ATOM     23  N   UNL     1       1.040   1.924  -1.232  0.00  0.00    -0.205 NA
ATOM     24  C   UNL     1       2.175   1.238  -1.308  0.00  0.00    +0.130 A 
ATOM     25  S   UNL     1       1.613  -0.389  -1.090  0.00  0.00    +0.035 S 
ATOM     26  N   UNL     1      -0.054  -0.044  -0.916  0.00  0.00    -0.174 NA
ATOM     27  H   UNL     1      -1.310   3.053  -1.051  0.00  0.00    +0.158 HD
BRANCH  24  28
ATOM     28  C   UNL     1       3.553   1.730  -1.524  0.00  0.00    +0.009 A 
ATOM     29  C   UNL     1       3.791   3.096  -1.685  0.00  0.00    +0.011 A 
ATOM     30  C   UNL     1       5.080   3.549  -1.880  0.00  0.00    +0.004 A 
ATOM     31  C   UNL     1       6.132   2.652  -1.927  0.00  0.00    -0.050 A 
ATOM     32  C   UNL     1       5.901   1.297  -1.774  0.00  0.00    +0.004 A 
ATOM     33  C   UNL     1       4.618   0.831  -1.572  0.00  0.00    +0.011 A 
ATOM     34  C   UNL     1       7.536   3.154  -2.147  0.00  0.00    +0.044 C 
ENDBRANCH  24  28
ENDBRANCH  18  19
ENDBRANCH   1  18
TORSDOF 5
