REMARK  Name = ZINC14819902
REMARK  12 active torsions:
REMARK  status: ('A' for Active; 'I' for Inactive)
REMARK    1  A    between atoms: C_1  and  C_2
REMARK    2  A    between atoms: C_2  and  N_3
REMARK    3  A    between atoms: N_3  and  C_4
REMARK    4  A    between atoms: N_3  and  S_6
REMARK    5  A    between atoms: C_4  and  C_5
REMARK    6  A    between atoms: S_6  and  C_9
REMARK    7  A    between atoms: C_12  and  O_27
REMARK    8  A    between atoms: C_13  and  N_15
REMARK    9  A    between atoms: C_16  and  C_18
REMARK   10  A    between atoms: C_23  and  N_24
REMARK   11  A    between atoms: O_27  and  C_28
REMARK   12  A    between atoms: C_31  and  C_34
REMARK                            x       y       z     vdW  Elec       q    Type
REMARK                         _______ _______ _______ _____ _____    ______ ____
ROOT
ATOM      1  C   UNL     1       2.983   3.701   0.049  0.00  0.00    +0.107 A 
ATOM      2  C   UNL     1       3.918   2.703   0.257  0.00  0.00    +0.032 A 
ATOM      3  C   UNL     1       3.516   1.383   0.349  0.00  0.00    +0.050 A 
ATOM      4  C   UNL     1       2.174   1.058   0.240  0.00  0.00    +0.150 A 
ATOM      5  C   UNL     1       1.232   2.062   0.025  0.00  0.00    +0.078 A 
ATOM      6  C   UNL     1       1.643   3.385  -0.067  0.00  0.00    +0.055 A 
ENDROOT
BRANCH   5   7
ATOM      7  N   UNL     1      -0.125   1.739  -0.092  0.00  0.00    -0.278 N 
ATOM      8  C   UNL     1      -0.958   2.561  -0.762  0.00  0.00    +0.251 C 
ATOM      9  O   UNL     1      -0.514   3.523  -1.357  0.00  0.00    -0.270 OA
ATOM     10  H   UNL     1      -0.465   0.922   0.305  0.00  0.00    +0.155 HD
BRANCH   8  11
ATOM     11  C   UNL     1      -2.411   2.292  -0.772  0.00  0.00    +0.067 A 
ATOM     12  C   UNL     1      -3.140   2.329   0.418  0.00  0.00    +0.015 A 
ATOM     13  C   UNL     1      -4.497   2.082   0.401  0.00  0.00    +0.001 A 
ATOM     14  C   UNL     1      -5.134   1.787  -0.791  0.00  0.00    +0.002 A 
ATOM     15  C   UNL     1      -4.417   1.742  -1.973  0.00  0.00    +0.033 A 
ATOM     16  C   UNL     1      -3.060   1.992  -1.971  0.00  0.00    +0.138 A 
BRANCH  16  17
ATOM     17  N   UNL     1      -2.295   1.944  -3.237  0.00  0.00    +0.057 N 
ATOM     18  O   UNL     1      -2.876   1.783  -4.295  0.00  0.00    -0.126 OA
ATOM     19  O   UNL     1      -1.083   2.064  -3.220  0.00  0.00    -0.126 OA
ENDBRANCH  16  17
ENDBRANCH   8  11
ENDBRANCH   5   7
BRANCH   1  20
ATOM     20  S   UNL     1       3.503   5.380  -0.068  0.00  0.00    +0.061 S 
ATOM     21  O   UNL     1       4.865   5.357  -0.471  0.00  0.00    -0.153 OA
ATOM     22  O   UNL     1       2.501   6.065  -0.808  0.00  0.00    -0.153 OA
BRANCH  20  23
ATOM     23  N   UNL     1       3.474   6.010   1.463  0.00  0.00    -0.177 NA
BRANCH  23  25
ATOM     24  C   UNL     1       5.470   7.223   2.189  0.00  0.00    +0.022 C 
ATOM     25  C   UNL     1       4.665   5.927   2.312  0.00  0.00    +0.106 C 
ENDBRANCH  23  25
BRANCH  23  26
ATOM     26  C   UNL     1       2.256   6.649   1.970  0.00  0.00    +0.106 C 
ATOM     27  C   UNL     1       1.439   5.630   2.766  0.00  0.00    +0.022 C 
ENDBRANCH  23  26
ENDBRANCH  20  23
ENDBRANCH   1  20
BRANCH   4  28
ATOM     28  O   UNL     1       1.777  -0.239   0.338  0.00  0.00    -0.454 OA
BRANCH  28  29
ATOM     29  C   UNL     1       1.685  -0.966  -0.807  0.00  0.00    +0.129 A 
ATOM     30  C   UNL     1       1.886  -0.354  -2.036  0.00  0.00    +0.046 A 
ATOM     31  C   UNL     1       1.797  -1.096  -3.198  0.00  0.00    +0.007 A 
ATOM     32  C   UNL     1       1.499  -2.445  -3.137  0.00  0.00    -0.050 A 
ATOM     33  C   UNL     1       1.294  -3.056  -1.913  0.00  0.00    +0.007 A 
ATOM     34  C   UNL     1       1.386  -2.319  -0.748  0.00  0.00    +0.046 A 
ATOM     35  C   UNL     1       1.398  -3.251  -4.406  0.00  0.00    +0.044 C 
ENDBRANCH  28  29
ENDBRANCH   4  28
TORSDOF 9
