REMARK  Name = ZINC09498735
REMARK  6 active torsions:
REMARK  status: ('A' for Active; 'I' for Inactive)
REMARK    1  A    between atoms: C_1  and  C_2
REMARK    2  A    between atoms: C_5  and  N_9
REMARK    3  A    between atoms: C_6  and  C_8
REMARK    4  A    between atoms: C_14  and  C_28
REMARK    5  A    between atoms: N_16  and  C_22
REMARK    6  A    between atoms: C_33  and  O_34
REMARK                            x       y       z     vdW  Elec       q    Type
REMARK                         _______ _______ _______ _____ _____    ______ ____
ROOT
ATOM      1  N   UNL     1      -0.459  -3.796   0.856  0.00  0.00    -0.208 N 
ATOM      2  C   UNL     1      -1.495  -4.639   0.777  0.00  0.00    +0.235 C 
ATOM      3  O   UNL     1      -2.621  -4.405   1.161  0.00  0.00    -0.274 OA
ATOM      4  C   UNL     1      -1.042  -5.931   0.137  0.00  0.00    +0.146 C 
ATOM      5  C   UNL     1      -1.080  -7.065   1.187  0.00  0.00    +0.161 C 
ATOM      6  N   UNL     1       0.246  -7.709   1.020  0.00  0.00    -0.244 N 
ATOM      7  O   UNL     1       1.145  -6.624   0.787  0.00  0.00    -0.257 OA
ATOM      8  C   UNL     1       0.473  -5.697  -0.115  0.00  0.00    +0.249 C 
ATOM      9  C   UNL     1       0.690  -4.280   0.371  0.00  0.00    +0.259 C 
ATOM     10  O   UNL     1       1.742  -3.680   0.331  0.00  0.00    -0.272 OA
ENDROOT
BRANCH   1  15
ATOM     11  C   UNL     1      -0.912   1.423   3.041  0.00  0.00    +0.044 C 
ATOM     12  C   UNL     1      -0.792   0.037   2.461  0.00  0.00    -0.050 A 
ATOM     13  C   UNL     1      -1.011  -0.167   1.110  0.00  0.00    +0.005 A 
ATOM     14  C   UNL     1      -0.901  -1.435   0.576  0.00  0.00    +0.024 A 
ATOM     15  C   UNL     1      -0.571  -2.506   1.395  0.00  0.00    +0.047 A 
ATOM     16  C   UNL     1      -0.351  -2.298   2.750  0.00  0.00    -0.028 A 
ATOM     17  C   UNL     1      -0.457  -1.026   3.278  0.00  0.00    +0.008 A 
ATOM     18  C   UNL     1       0.008  -3.458   3.643  0.00  0.00    +0.046 C 
ENDBRANCH   1  15
BRANCH   5  19
ATOM     19  C   UNL     1      -2.192  -8.036   0.884  0.00  0.00    +0.022 A 
ATOM     20  C   UNL     1      -2.004  -9.031  -0.056  0.00  0.00    +0.029 A 
ATOM     21  C   UNL     1      -3.024  -9.923  -0.335  0.00  0.00    +0.043 A 
ATOM     22  C   UNL     1      -4.235  -9.820   0.327  0.00  0.00    +0.043 A 
ATOM     23  C   UNL     1      -4.428  -8.826   1.268  0.00  0.00    +0.084 A 
ATOM     24  C   UNL     1      -3.402  -7.934   1.553  0.00  0.00    +0.140 A 
ATOM     25 CL   UNL     1      -5.947  -8.697   2.097  0.00  0.00    -0.080 Cl
ATOM     26 CL   UNL     1      -2.785 -11.172  -1.517  0.00  0.00    -0.083 Cl
BRANCH  24  27
ATOM     27  O   UNL     1      -3.587  -6.959   2.482  0.00  0.00    -0.505 OA
ATOM     28  H   UNL     1      -3.943  -6.135   2.122  0.00  0.00    +0.292 HD
ENDBRANCH  24  27
ENDBRANCH   5  19
BRANCH   6  29
ATOM     29  C   UNL     1       0.547  -9.072   1.078  0.00  0.00    +0.065 A 
ATOM     30  C   UNL     1       1.208  -9.684   0.020  0.00  0.00    +0.028 A 
ATOM     31  C   UNL     1       1.505 -11.031   0.081  0.00  0.00    +0.002 A 
ATOM     32  C   UNL     1       1.145 -11.771   1.193  0.00  0.00    +0.000 A 
ATOM     33  C   UNL     1       0.487 -11.164   2.247  0.00  0.00    +0.002 A 
ATOM     34  C   UNL     1       0.192  -9.816   2.195  0.00  0.00    +0.028 A 
ENDBRANCH   6  29
TORSDOF 4
