REMARK  Name = ZINC04804168
REMARK  7 active torsions:
REMARK  status: ('A' for Active; 'I' for Inactive)
REMARK    1  A    between atoms: C_4  and  O_33
REMARK    2  A    between atoms: C_7  and  N_14
REMARK    3  A    between atoms: C_9  and  S_11
REMARK    4  A    between atoms: N_15  and  C_16
REMARK    5  A    between atoms: C_19  and  N_22
REMARK    6  A    between atoms: N_23  and  C_24
REMARK    7  A    between atoms: C_27  and  S_30
REMARK                            x       y       z     vdW  Elec       q    Type
REMARK                         _______ _______ _______ _____ _____    ______ ____
ROOT
ATOM      1  N   UNL     1       2.554   5.189   0.035  0.00  0.00    -0.149 NA
ATOM      2  N   UNL     1       3.741   5.694   0.030  0.00  0.00    -0.149 NA
ENDROOT
BRANCH   1   9
ATOM      3  C   UNL     1      -1.453   2.086   0.332  0.00  0.00    +0.003 A 
ATOM      4  C   UNL     1      -0.359   1.276   0.246  0.00  0.00    +0.012 A 
ATOM      5  C   UNL     1       0.919   1.846   0.148  0.00  0.00    +0.028 A 
ATOM      6  C   UNL     1       2.074   1.040   0.052  0.00  0.00    +0.125 A 
ATOM      7  C   UNL     1       3.323   1.617  -0.044  0.00  0.00    +0.048 A 
ATOM      8  C   UNL     1       3.490   2.992  -0.050  0.00  0.00    +0.034 A 
ATOM      9  C   UNL     1       2.389   3.841   0.042  0.00  0.00    +0.096 A 
ATOM     10  C   UNL     1       1.052   3.255   0.145  0.00  0.00    +0.040 A 
ATOM     11  C   UNL     1      -0.091   4.056   0.239  0.00  0.00    +0.129 A 
ATOM     12  C   UNL     1      -1.319   3.471   0.333  0.00  0.00    +0.030 A 
BRANCH  11  13
ATOM     13  S   UNL     1       0.056   5.812   0.237  0.00  0.00    +0.140 S 
ATOM     14  O   UNL     1      -1.265   6.330   0.176  0.00  0.00    -0.140 OA
ATOM     15  O   UNL     1       0.958   6.145   1.284  0.00  0.00    -0.140 OA
ATOM     16  O   UNL     1       0.738   6.205  -1.065  0.00  0.00    -0.043 OA
ENDBRANCH  11  13
BRANCH   6  17
ATOM     17  O   UNL     1       1.956  -0.310   0.054  0.00  0.00    -0.506 OA
ATOM     18  H   UNL     1       1.851  -0.698  -0.825  0.00  0.00    +0.292 HD
ENDBRANCH   6  17
ENDBRANCH   1   9
BRANCH   2  19
ATOM     19  C   UNL     1       3.907   7.047   0.056  0.00  0.00    +0.086 A 
ATOM     20  C   UNL     1       2.791   7.888   0.147  0.00  0.00    +0.032 A 
ATOM     21  C   UNL     1       2.957   9.242   0.178  0.00  0.00    +0.032 A 
ATOM     22  C   UNL     1       4.243   9.791   0.107  0.00  0.00    +0.086 A 
ATOM     23  C   UNL     1       5.358   8.951   0.010  0.00  0.00    +0.032 A 
ATOM     24  C   UNL     1       5.193   7.596  -0.015  0.00  0.00    +0.032 A 
BRANCH  22  25
ATOM     25  N   UNL     1       4.409  11.145   0.132  0.00  0.00    -0.149 NA
ATOM     26  N   UNL     1       3.381  11.919   0.221  0.00  0.00    -0.149 NA
BRANCH  26  27
ATOM     27  C   UNL     1       3.546  13.275   0.246  0.00  0.00    +0.086 A 
ATOM     28  C   UNL     1       4.829  13.827   0.182  0.00  0.00    +0.031 A 
ATOM     29  C   UNL     1       4.989  15.197   0.202  0.00  0.00    +0.032 A 
ATOM     30  C   UNL     1       3.883  16.024   0.298  0.00  0.00    +0.120 A 
ATOM     31  C   UNL     1       2.610  15.485   0.367  0.00  0.00    +0.032 A 
ATOM     32  C   UNL     1       2.435  14.117   0.343  0.00  0.00    +0.031 A 
BRANCH  30  33
ATOM     33  S   UNL     1       4.097  17.773   0.330  0.00  0.00    +0.140 S 
ATOM     34  O   UNL     1       5.344  18.041  -0.298  0.00  0.00    -0.140 OA
ATOM     35  O   UNL     1       2.877  18.340  -0.127  0.00  0.00    -0.140 OA
ATOM     36  O   UNL     1       4.248  18.181   1.788  0.00  0.00    -0.043 OA
ENDBRANCH  30  33
ENDBRANCH  26  27
ENDBRANCH  22  25
ENDBRANCH   2  19
TORSDOF 7
