REMARK  Name = ZINC04864993
REMARK  9 active torsions:
REMARK  status: ('A' for Active; 'I' for Inactive)
REMARK    1  A    between atoms: C_1  and  C_2
REMARK    2  A    between atoms: C_3  and  C_29
REMARK    3  A    between atoms: C_4  and  C_19
REMARK    4  A    between atoms: C_6  and  C_10
REMARK    5  A    between atoms: C_7  and  C_9
REMARK    6  A    between atoms: N_12  and  C_13
REMARK    7  A    between atoms: C_22  and  C_25
REMARK    8  A    between atoms: C_25  and  O_27
REMARK    9  A    between atoms: O_27  and  C_28
REMARK                            x       y       z     vdW  Elec       q    Type
REMARK                         _______ _______ _______ _____ _____    ______ ____
ROOT
ATOM      1  C   UNL     1      -1.105  11.532  -0.521  0.00  0.00    +0.062 C 
ATOM      2  C   UNL     1      -1.023  10.067  -0.177  0.00  0.00    +0.034 C 
ATOM      3  C   UNL     1       0.153   9.428  -0.271  0.00  0.00    +0.147 C 
ATOM      4  C   UNL     1       0.284   7.971   0.076  0.00  0.00    +0.078 C 
ATOM      5  C   UNL     1      -1.065   7.312   0.119  0.00  0.00    +0.044 C 
ATOM      6  C   UNL     1      -2.196   8.034   0.198  0.00  0.00    +0.047 C 
ATOM      7  N   UNL     1      -2.153   9.402   0.228  0.00  0.00    -0.260 NA
ATOM      8  C   UNL     1      -3.527   7.330   0.253  0.00  0.00    +0.066 C 
ENDROOT
BRANCH   4   9
ATOM      9  C   UNL     1       0.946   7.835   1.424  0.00  0.00    -0.038 A 
ATOM     10  C   UNL     1       0.343   8.379   2.545  0.00  0.00    +0.005 A 
ATOM     11  C   UNL     1       0.941   8.254   3.782  0.00  0.00    +0.015 A 
ATOM     12  C   UNL     1       2.162   7.587   3.900  0.00  0.00    +0.059 A 
ATOM     13  C   UNL     1       2.767   7.046   2.764  0.00  0.00    +0.015 A 
ATOM     14  C   UNL     1       2.156   7.173   1.534  0.00  0.00    +0.005 A 
BRANCH  12  15
ATOM     15  C   UNL     1       2.810   7.454   5.220  0.00  0.00    +0.339 C 
ATOM     16  O   UNL     1       3.872   6.873   5.320  0.00  0.00    -0.245 OA
BRANCH  15  17
ATOM     17  O   UNL     1       2.223   7.977   6.314  0.00  0.00    -0.464 OA
ATOM     18  C   UNL     1       2.917   7.809   7.579  0.00  0.00    +0.280 C 
ENDBRANCH  15  17
ENDBRANCH  12  15
ENDBRANCH   4   9
BRANCH   5  19
ATOM     19  C   UNL     1      -1.147   5.900   0.076  0.00  0.00    +0.247 C 
ATOM     20  O   UNL     1      -0.894   5.306  -0.956  0.00  0.00    -0.270 OA
ATOM     21  N   UNL     1      -1.506   5.212   1.178  0.00  0.00    -0.282 N 
ATOM     22  H   UNL     1      -1.764   5.686   1.984  0.00  0.00    +0.155 HD
BRANCH  21  23
ATOM     23  C   UNL     1      -1.506   3.813   1.160  0.00  0.00    +0.034 A 
ATOM     24  C   UNL     1      -1.148   3.103   2.299  0.00  0.00    +0.023 A 
ATOM     25  C   UNL     1      -1.149   1.722   2.278  0.00  0.00    +0.002 A 
ATOM     26  C   UNL     1      -1.507   1.047   1.125  0.00  0.00    +0.000 A 
ATOM     27  C   UNL     1      -1.859   1.751  -0.011  0.00  0.00    +0.002 A 
ATOM     28  C   UNL     1      -1.865   3.132   0.004  0.00  0.00    +0.023 A 
ENDBRANCH  21  23
ENDBRANCH   5  19
BRANCH   3  29
ATOM     29  C   UNL     1       1.310  10.152  -0.705  0.00  0.00    +0.073 C 
ATOM     30  N   UNL     1       2.228  10.726  -1.050  0.00  0.00    -0.196 NA
ENDBRANCH   3  29
TORSDOF 6
