REMARK  Name = ZINC33385685
REMARK  9 active torsions:
REMARK  status: ('A' for Active; 'I' for Inactive)
REMARK    1  A    between atoms: C_1  and  O_2
REMARK    2  A    between atoms: O_2  and  C_3
REMARK    3  A    between atoms: C_5  and  C_16
REMARK    4  A    between atoms: C_7  and  C_13
REMARK    5  A    between atoms: C_8  and  O_9
REMARK    6  A    between atoms: O_9  and  C_10
REMARK    7  A    between atoms: C_10  and  C_11
REMARK    8  A    between atoms: C_13  and  C_14
REMARK    9  A    between atoms: N_23  and  C_26
REMARK                            x       y       z     vdW  Elec       q    Type
REMARK                         _______ _______ _______ _____ _____    ______ ____
ROOT
ATOM      1  C   UNL     1      -5.610  -0.343   1.683  0.00  0.00    +0.026 C 
ATOM      2  C   UNL     1      -6.555  -0.778   0.766  0.00  0.00    +0.102 C 
ATOM      3  C   UNL     1      -7.461   0.164   0.090  0.00  0.00    +0.276 C 
ATOM      4  O   UNL     1      -7.396   1.488   0.345  0.00  0.00    -0.268 OA
ATOM      5  N   UNL     1      -8.339  -0.316  -0.773  0.00  0.00    -0.123 NA
ATOM      6  C   UNL     1      -8.425  -1.616  -1.045  0.00  0.00    +0.340 C 
ATOM      7  O   UNL     1      -9.261  -1.981  -1.853  0.00  0.00    -0.250 OA
ATOM      8  N   UNL     1      -7.644  -2.546  -0.478  0.00  0.00    -0.188 N 
ATOM      9  C   UNL     1      -6.694  -2.206   0.421  0.00  0.00    +0.264 C 
ATOM     10  O   UNL     1      -5.981  -3.049   0.931  0.00  0.00    -0.269 OA
ENDROOT
BRANCH   8  11
ATOM     11  C   UNL     1      -7.810  -3.893  -0.828  0.00  0.00    +0.047 A 
ATOM     12  C   UNL     1      -8.702  -4.690  -0.122  0.00  0.00    +0.024 A 
ATOM     13  C   UNL     1      -8.864  -6.017  -0.468  0.00  0.00    +0.003 A 
ATOM     14  C   UNL     1      -8.140  -6.553  -1.518  0.00  0.00    +0.015 A 
ATOM     15  C   UNL     1      -7.251  -5.761  -2.223  0.00  0.00    +0.020 A 
ATOM     16  C   UNL     1      -7.089  -4.431  -1.885  0.00  0.00    +0.039 A 
ATOM     17 BR   UNL     1      -6.262  -6.499  -3.656  0.00  0.00    -0.050 Br
ENDBRANCH   8  11
BRANCH   1  20
ATOM     18  C   UNL     1      -2.801  -2.111   3.415  0.00  0.00    +0.162 A 
ATOM     19  C   UNL     1      -3.486  -1.190   2.650  0.00  0.00    +0.057 A 
ATOM     20  C   UNL     1      -4.875  -1.314   2.490  0.00  0.00    -0.020 A 
ATOM     21  C   UNL     1      -5.556  -2.374   3.110  0.00  0.00    +0.015 A 
ATOM     22  C   UNL     1      -4.868  -3.280   3.865  0.00  0.00    +0.002 A 
ATOM     23  C   UNL     1      -3.491  -3.163   4.021  0.00  0.00    +0.167 A 
BRANCH  18  25
ATOM     24  C   UNL     1      -0.831  -0.839   3.018  0.00  0.00    +0.277 C 
ATOM     25  O   UNL     1      -1.455  -1.998   3.574  0.00  0.00    -0.491 OA
ENDBRANCH  18  25
BRANCH  23  26
ATOM     26  O   UNL     1      -2.816  -4.072   4.769  0.00  0.00    -0.476 OA
BRANCH  26  27
ATOM     27  C   UNL     1      -2.212  -5.164   4.074  0.00  0.00    +0.317 C 
BRANCH  27  28
ATOM     28  C   UNL     1      -1.633  -6.105   5.046  0.00  0.00    -0.065 C 
ATOM     29  C   UNL     1      -1.171  -6.855   5.822  0.00  0.00    +0.007 C 
ENDBRANCH  27  28
ENDBRANCH  26  27
ENDBRANCH  23  26
BRANCH  22  30
ATOM     30  C   UNL     1      -5.603  -4.416   4.529  0.00  0.00    +0.065 C 
BRANCH  30  31
ATOM     31  C   UNL     1      -5.945  -4.033   5.946  0.00  0.00    -0.030 C 
ATOM     32  C   UNL     1      -7.192  -4.054   6.347  0.00  0.00    +0.004 C 
ENDBRANCH  30  31
ENDBRANCH  22  30
ENDBRANCH   1  20
TORSDOF 8
