REMARK  Name = ZINC06926044
REMARK  3 active torsions:
REMARK  status: ('A' for Active; 'I' for Inactive)
REMARK    1  A    between atoms: C_3  and  C_8
REMARK    2  A    between atoms: N_13  and  C_14
REMARK    3  A    between atoms: C_18  and  O_20
REMARK                            x       y       z     vdW  Elec       q    Type
REMARK                         _______ _______ _______ _____ _____    ______ ____
ROOT
ATOM      1  C   UNL     1       3.651   2.158  -0.022  0.00  0.00    +0.028 C 
ATOM      2  C   UNL     1       4.833   1.498   0.066  0.00  0.00    +0.078 C 
ATOM      3  C   UNL     1       6.203   2.038   0.182  0.00  0.00    +0.256 C 
ATOM      4  N   UNL     1       7.189   1.160   0.251  0.00  0.00    -0.260 N 
ATOM      5  C   UNL     1       6.929  -0.193   0.216  0.00  0.00    +0.166 C 
ATOM      6  N   UNL     1       7.782  -1.190   0.273  0.00  0.00    -0.226 NA
ATOM      7  S   UNL     1       5.150  -0.261   0.080  0.00  0.00    -0.049 S 
ATOM      8  O   UNL     1       6.414   3.236   0.211  0.00  0.00    -0.269 OA
ATOM      9  H   UNL     1       8.104   1.471   0.328  0.00  0.00    +0.157 HD
ENDROOT
BRANCH   1  12
ATOM     10  C   UNL     1       0.010   1.304  -0.291  0.00  0.00    +0.003 A 
ATOM     11  C   UNL     1       1.169   2.007  -0.038  0.00  0.00    +0.008 A 
ATOM     12  C   UNL     1       2.412   1.415  -0.289  0.00  0.00    -0.021 A 
ATOM     13  C   UNL     1       2.469   0.112  -0.796  0.00  0.00    +0.046 A 
ATOM     14  C   UNL     1       1.299  -0.579  -1.045  0.00  0.00    +0.124 A 
ATOM     15  C   UNL     1       0.072   0.016  -0.793  0.00  0.00    +0.038 A 
ATOM     16  F   UNL     1       1.351  -1.837  -1.535  0.00  0.00    -0.205 F 
ENDBRANCH   1  12
BRANCH   6  17
ATOM     17  C   UNL     1       9.123  -0.938   0.384  0.00  0.00    +0.070 A 
ATOM     18  C   UNL     1       9.720   0.044  -0.411  0.00  0.00    +0.028 A 
ATOM     19  C   UNL     1      11.071   0.296  -0.297  0.00  0.00    +0.006 A 
ATOM     20  C   UNL     1      11.839  -0.421   0.603  0.00  0.00    +0.045 A 
ATOM     21  C   UNL     1      11.255  -1.400   1.397  0.00  0.00    +0.119 A 
ATOM     22  C   UNL     1       9.898  -1.657   1.294  0.00  0.00    +0.073 A 
BRANCH  21  23
ATOM     23  O   UNL     1      12.015  -2.101   2.278  0.00  0.00    -0.507 OA
ATOM     24  H   UNL     1      12.070  -1.700   3.156  0.00  0.00    +0.292 HD
ENDBRANCH  21  23
ENDBRANCH   6  17
TORSDOF 3
