REMARK  Name = ZINC09388080
REMARK  6 active torsions:
REMARK  status: ('A' for Active; 'I' for Inactive)
REMARK    1  A    between atoms: C_1  and  C_2
REMARK    2  A    between atoms: C_5  and  S_8
REMARK    3  A    between atoms: S_8  and  C_11
REMARK    4  A    between atoms: C_11  and  C_12
REMARK    5  A    between atoms: N_14  and  C_15
REMARK    6  A    between atoms: C_15  and  C_16
REMARK                            x       y       z     vdW  Elec       q    Type
REMARK                         _______ _______ _______ _____ _____    ______ ____
ROOT
ATOM      1  C   UNL     1      -0.742   1.585  -1.213  0.00  0.00    +0.243 C 
ATOM      2  O   UNL     1      -1.736   2.268  -1.088  0.00  0.00    -0.273 OA
ATOM      3  N   UNL     1      -0.288   1.272  -2.443  0.00  0.00    -0.243 N 
ATOM      4  C   UNL     1      -0.959   1.731  -3.566  0.00  0.00    +0.169 A 
ATOM      5  N   UNL     1      -0.671   1.540  -4.832  0.00  0.00    -0.221 NA
ATOM      6  C   UNL     1      -1.424   2.048  -5.832  0.00  0.00    +0.115 A 
ATOM      7  C   UNL     1      -1.229   1.912  -7.228  0.00  0.00    +0.150 A 
ATOM      8  C   UNL     1      -2.092   2.503  -8.116  0.00  0.00    +0.040 A 
ATOM      9  C   UNL     1      -3.179   3.250  -7.683  0.00  0.00    +0.004 A 
ATOM     10  C   UNL     1      -3.398   3.403  -6.327  0.00  0.00    +0.017 A 
ATOM     11  C   UNL     1      -2.540   2.815  -5.430  0.00  0.00    +0.044 A 
ATOM     12  S   UNL     1      -2.430   2.742  -3.658  0.00  0.00    -0.052 S 
ATOM     13  F   UNL     1      -0.183   1.194  -7.691  0.00  0.00    -0.203 F 
ENDROOT
BRANCH   1  14
ATOM     14  C   UNL     1      -0.013   1.086   0.008  0.00  0.00    +0.267 C 
BRANCH  14  15
ATOM     15  S   UNL     1      -0.862   1.671   1.500  0.00  0.00    +0.005 S 
ATOM     16  O   UNL     1      -0.735   3.082   1.615  0.00  0.00    -0.169 OA
ATOM     17  O   UNL     1      -2.133   1.046   1.617  0.00  0.00    -0.169 OA
BRANCH  15  22
ATOM     18  C   UNL     1       2.368  -0.542   6.091  0.00  0.00    +0.044 C 
ATOM     19  C   UNL     1       1.561   0.011   4.945  0.00  0.00    -0.050 A 
ATOM     20  C   UNL     1       1.870   1.250   4.417  0.00  0.00    +0.005 A 
ATOM     21  C   UNL     1       1.129   1.758   3.366  0.00  0.00    +0.027 A 
ATOM     22  C   UNL     1       0.082   1.024   2.841  0.00  0.00    +0.089 A 
ATOM     23  C   UNL     1      -0.230  -0.213   3.372  0.00  0.00    +0.027 A 
ATOM     24  C   UNL     1       0.513  -0.723   4.420  0.00  0.00    +0.005 A 
ENDBRANCH  15  22
ENDBRANCH  14  15
ENDBRANCH   1  14
BRANCH   3  25
ATOM     25  C   UNL     1       0.913   0.447  -2.593  0.00  0.00    +0.171 C 
BRANCH  25  26
ATOM     26  C   UNL     1       0.520  -1.007  -2.643  0.00  0.00    +0.059 A 
ATOM     27  C   UNL     1       0.335  -1.623  -3.867  0.00  0.00    +0.025 A 
ATOM     28  C   UNL     1      -0.020  -2.962  -3.902  0.00  0.00    +0.003 A 
ATOM     29  C   UNL     1      -0.188  -3.632  -2.700  0.00  0.00    +0.020 A 
ATOM     30  C   UNL     1       0.008  -2.949  -1.515  0.00  0.00    +0.111 A 
ATOM     31  N   UNL     1       0.351  -1.676  -1.520  0.00  0.00    -0.258 NA
ENDBRANCH  25  26
ENDBRANCH   3  25
TORSDOF 5
