REMARK  Name = ZINC34926297
REMARK  6 active torsions:
REMARK  status: ('A' for Active; 'I' for Inactive)
REMARK    1  A    between atoms: C_1  and  C_2
REMARK    2  A    between atoms: C_2  and  C_20
REMARK    3  A    between atoms: C_3  and  C_10
REMARK    4  A    between atoms: C_5  and  C_7
REMARK    5  A    between atoms: N_12  and  C_13
REMARK    6  A    between atoms: C_18  and  O_19
REMARK                            x       y       z     vdW  Elec       q    Type
REMARK                         _______ _______ _______ _____ _____    ______ ____
ROOT
ATOM      1  C   UNL     1      -0.977  -2.134   0.074  0.00  0.00    +0.222 C 
ATOM      2  O   UNL     1      -0.099  -2.583  -0.632  0.00  0.00    -0.275 OA
ATOM      3  N   UNL     1      -1.898  -2.958   0.612  0.00  0.00    -0.282 N 
ATOM      4  H   UNL     1      -2.634  -2.593   1.127  0.00  0.00    +0.155 HD
ENDROOT
BRANCH   3   5
ATOM      5  C   UNL     1      -1.792  -4.343   0.426  0.00  0.00    +0.075 A 
ATOM      6  C   UNL     1      -1.153  -4.847  -0.698  0.00  0.00    +0.027 A 
ATOM      7  C   UNL     1      -1.049  -6.213  -0.879  0.00  0.00    +0.002 A 
ATOM      8  C   UNL     1      -1.581  -7.080   0.058  0.00  0.00    +0.004 A 
ATOM      9  C   UNL     1      -2.218  -6.586   1.180  0.00  0.00    +0.047 A 
ATOM     10  C   UNL     1      -2.322  -5.217   1.372  0.00  0.00    +0.138 A 
BRANCH  10  11
ATOM     11  O   UNL     1      -2.944  -4.729   2.478  0.00  0.00    -0.505 OA
ATOM     12  H   UNL     1      -3.894  -4.589   2.366  0.00  0.00    +0.292 HD
ENDBRANCH  10  11
ENDBRANCH   3   5
BRANCH   1  15
ATOM     13  C   UNL     1      -0.381   1.632  -0.741  0.00  0.00    +0.012 C 
ATOM     14  C   UNL     1       0.034   0.230  -0.291  0.00  0.00    -0.009 C 
ATOM     15  C   UNL     1      -1.040  -0.653   0.349  0.00  0.00    +0.096 C 
ATOM     16  C   UNL     1       0.068  -0.048   1.214  0.00  0.00    +0.121 C 
ATOM     17  C   UNL     1       1.089  -0.457  -1.160  0.00  0.00    +0.012 C 
BRANCH  16  18
ATOM     18  C   UNL     1       1.138  -0.978   1.725  0.00  0.00    +0.360 C 
ATOM     19  O   UNL     1       2.314  -0.693   1.578  0.00  0.00    -0.246 OA
ATOM     20  O   UNL     1       0.827  -2.014   2.287  0.00  0.00    -0.246 OA
ENDBRANCH  16  18
ENDBRANCH   1  15
TORSDOF 4
