REMARK  Name = ZINC45148134
REMARK  6 active torsions:
REMARK  status: ('A' for Active; 'I' for Inactive)
REMARK    1  A    between atoms: C_1  and  C_2
REMARK    2  A    between atoms: C_2  and  C_3
REMARK    3  A    between atoms: C_2  and  C_4
REMARK    4  A    between atoms: N_9  and  S_10
REMARK    5  A    between atoms: S_10  and  C_13
REMARK    6  A    between atoms: C_14  and  N_20
REMARK                            x       y       z     vdW  Elec       q    Type
REMARK                         _______ _______ _______ _____ _____    ______ ____
ROOT
ATOM      1  S   UNL     1      -6.211  -1.380   1.520  0.00  0.00    +0.106 S 
ATOM      2  O   UNL     1      -6.652  -0.569   0.440  0.00  0.00    -0.146 OA
ATOM      3  O   UNL     1      -6.286  -2.798   1.488  0.00  0.00    -0.146 OA
ENDROOT
BRANCH   1   9
ATOM      4  C   UNL     1      -1.626  -1.434  -0.197  0.00  0.00    +0.027 A 
ATOM      5  C   UNL     1      -2.219  -2.020  -1.237  0.00  0.00    +0.070 A 
ATOM      6  S   UNL     1      -3.928  -2.059  -0.723  0.00  0.00    -0.057 S 
ATOM      7  C   UNL     1      -3.722  -1.276   0.870  0.00  0.00    +0.192 A 
ATOM      8  N   UNL     1      -2.362  -1.052   0.886  0.00  0.00    -0.336 N 
ATOM      9  N   UNL     1      -4.621  -0.996   1.781  0.00  0.00    -0.103 NA
ATOM     10  H   UNL     1      -1.938  -0.628   1.649  0.00  0.00    +0.168 HD
BRANCH   4  12
ATOM     11  C   UNL     1       0.143   0.299  -0.085  0.00  0.00    +0.013 C 
ATOM     12  C   UNL     1      -0.138  -1.199  -0.214  0.00  0.00    +0.030 C 
ATOM     13  C   UNL     1       0.510  -1.942   0.956  0.00  0.00    +0.013 C 
ENDBRANCH   4  12
ENDBRANCH   1   9
BRANCH   1  14
ATOM     14  C   UNL     1      -7.112  -0.859   2.942  0.00  0.00    +0.168 A 
ATOM     15  C   UNL     1      -7.126  -1.649   4.084  0.00  0.00    +0.055 A 
ATOM     16  C   UNL     1      -7.837  -1.235   5.203  0.00  0.00    +0.025 A 
ATOM     17  C   UNL     1      -8.529  -0.040   5.178  0.00  0.00    +0.005 A 
ATOM     18  C   UNL     1      -8.515   0.745   4.040  0.00  0.00    +0.040 A 
ATOM     19  C   UNL     1      -7.802   0.339   2.924  0.00  0.00    +0.152 A 
ATOM     20  F   UNL     1      -7.786   1.111   1.815  0.00  0.00    -0.203 F 
BRANCH  15  21
ATOM     21  N   UNL     1      -6.426  -2.857   4.108  0.00  0.00    -0.356 N 
ATOM     22  H   UNL     1      -5.802  -3.070   3.397  0.00  0.00    +0.142 HD
ATOM     23  H   UNL     1      -6.564  -3.484   4.835  0.00  0.00    +0.142 HD
ENDBRANCH  15  21
ENDBRANCH   1  14
TORSDOF 4
