REMARK  Name = ZINC27603052
REMARK  11 active torsions:
REMARK  status: ('A' for Active; 'I' for Inactive)
REMARK    1  A    between atoms: C_1  and  C_2
REMARK    2  A    between atoms: C_3  and  C_34
REMARK    3  A    between atoms: C_11  and  C_13
REMARK    4  A    between atoms: C_13  and  S_14
REMARK    5  A    between atoms: S_14  and  C_15
REMARK    6  A    between atoms: C_15  and  C_17
REMARK    7  A    between atoms: C_15  and  C_18
REMARK    8  A    between atoms: N_20  and  C_21
REMARK    9  A    between atoms: C_21  and  C_22
REMARK   10  A    between atoms: C_22  and  C_24
REMARK   11  A    between atoms: C_22  and  N_29
REMARK                            x       y       z     vdW  Elec       q    Type
REMARK                         _______ _______ _______ _____ _____    ______ ____
ROOT
ATOM      1  C   UNL     1       0.201  -6.159   5.460  0.00  0.00    +0.129 C 
ATOM      2  C   UNL     1       1.341  -5.830   6.426  0.00  0.00    +0.029 C 
ENDROOT
BRANCH   1   3
ATOM      3  C   UNL     1       0.215  -7.634   5.151  0.00  0.00    +0.226 C 
ATOM      4  O   UNL     1       0.784  -8.040   4.160  0.00  0.00    -0.275 OA
ATOM      5  N   UNL     1      -0.406  -8.502   5.974  0.00  0.00    -0.316 N 
ATOM      6  H   UNL     1      -0.861  -8.177   6.767  0.00  0.00    +0.149 HD
BRANCH   5   7
ATOM      7  C   UNL     1      -0.392  -9.935   5.673  0.00  0.00    +0.094 C 
BRANCH   7   8
ATOM      8  C   UNL     1      -1.046 -10.704   6.823  0.00  0.00    -0.013 C 
BRANCH   8   9
ATOM      9  N   UNL     1      -1.150 -12.125   6.465  0.00  0.00    +0.386 N 
ATOM     10  C   UNL     1      -1.802 -12.883   7.564  0.00  0.00    -0.078 C 
ATOM     11  C   UNL     1      -2.337 -14.150   6.851  0.00  0.00    -0.020 C 
ATOM     12  C   UNL     1      -2.804 -13.605   5.481  0.00  0.00    -0.020 C 
ATOM     13  C   UNL     1      -2.027 -12.290   5.285  0.00  0.00    -0.078 C 
ATOM     14  H   UNL     1      -0.235 -12.505   6.275  0.00  0.00    -0.081 HD
ENDBRANCH   8   9
BRANCH   8  15
ATOM     15  C   UNL     1      -0.205 -10.560   8.066  0.00  0.00    -0.022 A 
ATOM     16  C   UNL     1      -0.386  -9.737   9.128  0.00  0.00    +0.009 A 
ATOM     17  C   UNL     1       0.522  -9.776  10.169  0.00  0.00    +0.008 A 
ATOM     18  C   UNL     1       1.567 -10.636  10.097  0.00  0.00    +0.045 A 
ATOM     19  S   UNL     1       1.282 -11.433   8.525  0.00  0.00    -0.103 S 
ENDBRANCH   8  15
ENDBRANCH   7   8
ENDBRANCH   5   7
ENDBRANCH   1   3
BRANCH   1  20
ATOM     20  S   UNL     1       0.418  -5.217   3.926  0.00  0.00    -0.141 S 
BRANCH  20  21
ATOM     21  C   UNL     1       0.227  -3.488   4.441  0.00  0.00    +0.144 C 
BRANCH  21  32
ATOM     22  C   UNL     1       0.786   1.247  -0.272  0.00  0.00    +0.045 C 
ATOM     23  C   UNL     1       0.860  -0.257  -0.203  0.00  0.00    -0.026 A 
ATOM     24  C   UNL     1       1.103  -0.976  -1.311  0.00  0.00    -0.008 A 
ATOM     25  S   UNL     1       1.094  -2.658  -0.721  0.00  0.00    -0.073 S 
ATOM     26  C   UNL     1       0.765  -2.346   0.995  0.00  0.00    +0.116 A 
ATOM     27  C   UNL     1       0.677  -0.944   1.061  0.00  0.00    +0.075 A 
ATOM     28  C   UNL     1       0.416  -0.401   2.362  0.00  0.00    +0.260 A 
ATOM     29  O   UNL     1       0.318   0.803   2.521  0.00  0.00    -0.267 OA
ATOM     30  N   UNL     1       0.281  -1.242   3.404  0.00  0.00    -0.310 N 
ATOM     31  H   UNL     1       0.104  -0.881   4.286  0.00  0.00    +0.170 HD
ATOM     32  C   UNL     1       0.387  -2.587   3.245  0.00  0.00    +0.121 A 
ATOM     33  N   UNL     1       0.615  -3.112   2.071  0.00  0.00    -0.226 NA
ATOM     34  C   UNL     1       1.327  -0.480  -2.716  0.00  0.00    +0.052 C 
ENDBRANCH  21  32
ENDBRANCH  20  21
ENDBRANCH   1  20
TORSDOF 8
