REMARK  Name = ZINC35005945
REMARK  8 active torsions:
REMARK  status: ('A' for Active; 'I' for Inactive)
REMARK    1  A    between atoms: C_1  and  C_2
REMARK    2  A    between atoms: C_5  and  N_8
REMARK    3  A    between atoms: C_9  and  N_10
REMARK    4  A    between atoms: C_11  and  C_25
REMARK    5  A    between atoms: C_19  and  C_24
REMARK    6  A    between atoms: N_27  and  C_28
REMARK    7  A    between atoms: C_28  and  C_30
REMARK    8  A    between atoms: C_28  and  C_31
REMARK                            x       y       z     vdW  Elec       q    Type
REMARK                         _______ _______ _______ _____ _____    ______ ____
ROOT
ATOM      1  N   UNL     1       0.221  -4.154   0.070  0.00  0.00    -0.281 N 
ATOM      2  C   UNL     1      -0.899  -4.656  -0.435  0.00  0.00    +0.115 A 
ATOM      3  C   UNL     1      -1.089  -6.048  -0.554  0.00  0.00    +0.076 A 
ATOM      4  C   UNL     1      -0.079  -6.916  -0.131  0.00  0.00    +0.033 A 
ATOM      5  C   UNL     1       1.086  -6.361   0.395  0.00  0.00    +0.083 A 
ATOM      6  C   UNL     1       1.220  -4.949   0.483  0.00  0.00    +0.154 A 
ATOM      7  N   UNL     1       2.346  -4.438   0.986  0.00  0.00    -0.211 NA
ATOM      8  C   UNL     1       3.348  -5.204   1.401  0.00  0.00    +0.143 A 
ATOM      9  C   UNL     1       4.503  -4.580   1.919  0.00  0.00    +0.047 A 
ATOM     10  C   UNL     1       5.544  -5.342   2.352  0.00  0.00    +0.008 A 
ATOM     11  C   UNL     1       5.457  -6.741   2.278  0.00  0.00    -0.034 A 
ATOM     12  C   UNL     1       4.346  -7.325   1.781  0.00  0.00    +0.099 A 
ATOM     13  N   UNL     1       3.295  -6.571   1.344  0.00  0.00    -0.267 N 
ATOM     14  C   UNL     1       2.195  -7.195   0.862  0.00  0.00    +0.268 A 
ATOM     15  O   UNL     1       2.135  -8.409   0.805  0.00  0.00    -0.267 OA
ATOM     16  C   UNL     1       6.606  -7.592   2.755  0.00  0.00    +0.045 C 
ENDROOT
BRANCH   1  21
ATOM     17  C   UNL     1       0.807   1.454   0.468  0.00  0.00    +0.044 C 
ATOM     18  C   UNL     1       0.651  -0.041   0.362  0.00  0.00    -0.050 A 
ATOM     19  C   UNL     1       0.551  -0.637  -0.883  0.00  0.00    +0.005 A 
ATOM     20  C   UNL     1       0.408  -2.005  -0.986  0.00  0.00    +0.026 A 
ATOM     21  C   UNL     1       0.364  -2.788   0.167  0.00  0.00    +0.050 A 
ATOM     22  C   UNL     1       0.466  -2.182   1.418  0.00  0.00    +0.026 A 
ATOM     23  C   UNL     1       0.614  -0.813   1.509  0.00  0.00    +0.005 A 
ENDBRANCH   1  21
BRANCH   3  24
ATOM     24  C   UNL     1      -2.340  -6.583  -1.117  0.00  0.00    +0.248 C 
ATOM     25  O   UNL     1      -3.168  -5.825  -1.586  0.00  0.00    -0.270 OA
ATOM     26  N   UNL     1      -2.567  -7.911  -1.114  0.00  0.00    -0.305 N 
ATOM     27  H   UNL     1      -1.906  -8.515  -0.741  0.00  0.00    +0.150 HD
BRANCH  26  28
ATOM     28  C   UNL     1      -3.811  -8.443  -1.675  0.00  0.00    +0.100 C 
ATOM     29  C   UNL     1      -3.655  -8.621  -3.186  0.00  0.00    +0.033 C 
BRANCH  28  30
ATOM     30  C   UNL     1      -4.119  -9.775  -1.041  0.00  0.00    -0.027 A 
ATOM     31  C   UNL     1      -3.099 -10.673  -0.789  0.00  0.00    +0.005 A 
ATOM     32  C   UNL     1      -3.381 -11.895  -0.207  0.00  0.00    +0.000 A 
ATOM     33  C   UNL     1      -4.684 -12.219   0.122  0.00  0.00    +0.000 A 
ATOM     34  C   UNL     1      -5.704 -11.320  -0.129  0.00  0.00    +0.000 A 
ATOM     35  C   UNL     1      -5.421 -10.097  -0.707  0.00  0.00    +0.005 A 
ENDBRANCH  28  30
ENDBRANCH  26  28
ENDBRANCH   3  24
BRANCH   2  36
ATOM     36  N   UNL     1      -1.895  -3.800  -0.852  0.00  0.00    -0.344 N 
ATOM     37  H   UNL     1      -1.811  -2.846  -0.697  0.00  0.00    +0.144 HD
ATOM     38  H   UNL     1      -2.680  -4.151  -1.301  0.00  0.00    +0.144 HD
ENDBRANCH   2  36
TORSDOF 5
