REMARK  Name = ZINC36329244
REMARK  5 active torsions:
REMARK  status: ('A' for Active; 'I' for Inactive)
REMARK    1  A    between atoms: C_1  and  O_2
REMARK    2  A    between atoms: O_2  and  C_3
REMARK    3  A    between atoms: C_5  and  N_21
REMARK    4  A    between atoms: C_8  and  C_9
REMARK    5  A    between atoms: C_11  and  C_14
REMARK                            x       y       z     vdW  Elec       q    Type
REMARK                         _______ _______ _______ _____ _____    ______ ____
ROOT
ATOM      1  C   UNL     1      -1.199  -0.637   0.010  0.00  0.00    +0.134 A 
ATOM      2  C   UNL     1      -2.371   0.099   0.019  0.00  0.00    +0.070 A 
ATOM      3  C   UNL     1      -3.599  -0.550   0.027  0.00  0.00    +0.047 A 
ATOM      4  C   UNL     1      -3.656  -1.942   0.026  0.00  0.00    +0.063 A 
ATOM      5  C   UNL     1      -2.496  -2.683   0.017  0.00  0.00    +0.038 A 
ATOM      6  C   UNL     1      -1.256  -2.038   0.003  0.00  0.00    +0.082 A 
ATOM      7 CL   UNL     1      -5.196  -2.745   0.036  0.00  0.00    -0.082 Cl
ENDROOT
BRANCH   6   8
ATOM      8  C   UNL     1      -0.011  -2.828  -0.013  0.00  0.00    +0.262 A 
ATOM      9  N   UNL     1       0.071  -4.142  -0.026  0.00  0.00    -0.191 NA
ATOM     10  C   UNL     1       1.351  -4.518  -0.039  0.00  0.00    +0.175 A 
ATOM     11  N   UNL     1       2.108  -3.457  -0.034  0.00  0.00    -0.061 NA
ATOM     12  O   UNL     1       1.240  -2.334  -0.023  0.00  0.00    -0.333 OA
BRANCH  10  13
ATOM     13  C   UNL     1       1.844  -5.942  -0.056  0.00  0.00    +0.060 C 
ATOM     14  C   UNL     1       2.701  -6.200   1.184  0.00  0.00    +0.011 C 
ATOM     15  C   UNL     1       3.201  -7.646   1.167  0.00  0.00    +0.001 C 
ATOM     16  C   UNL     1       4.040  -7.880  -0.091  0.00  0.00    +0.000 C 
ATOM     17  C   UNL     1       3.183  -7.622  -1.331  0.00  0.00    +0.001 C 
ATOM     18  C   UNL     1       2.683  -6.176  -1.314  0.00  0.00    +0.011 C 
ENDBRANCH  10  13
ENDBRANCH   6   8
BRANCH   3  19
ATOM     19  N   UNL     1      -4.777   0.194   0.037  0.00  0.00    -0.357 N 
ATOM     20  H   UNL     1      -4.738   1.163   0.038  0.00  0.00    +0.142 HD
ATOM     21  H   UNL     1      -5.635  -0.257   0.042  0.00  0.00    +0.142 HD
ENDBRANCH   3  19
BRANCH   1  23
ATOM     22  C   UNL     1      -0.017   1.425   0.010  0.00  0.00    +0.277 C 
ATOM     23  O   UNL     1       0.002  -0.004   0.002  0.00  0.00    -0.494 OA
ENDBRANCH   1  23
TORSDOF 4
