REMARK  Name = ZINC09566460
REMARK  9 active torsions:
REMARK  status: ('A' for Active; 'I' for Inactive)
REMARK    1  A    between atoms: C_1  and  C_2
REMARK    2  A    between atoms: C_2  and  C_3
REMARK    3  A    between atoms: C_4  and  C_31
REMARK    4  A    between atoms: N_10  and  C_23
REMARK    5  A    between atoms: C_11  and  S_13
REMARK    6  A    between atoms: S_13  and  C_14
REMARK    7  A    between atoms: C_14  and  C_15
REMARK    8  A    between atoms: C_26  and  C_30
REMARK    9  A    between atoms: C_27  and  C_29
REMARK                            x       y       z     vdW  Elec       q    Type
REMARK                         _______ _______ _______ _____ _____    ______ ____
ROOT
ATOM      1  C   UNL     1      -1.877   2.192   0.821  0.00  0.00    -0.023 A 
ATOM      2  C   UNL     1      -1.413   3.298   1.423  0.00  0.00    -0.007 A 
ATOM      3  S   UNL     1      -1.609   2.939   3.158  0.00  0.00    -0.073 S 
ATOM      4  C   UNL     1      -2.300   1.310   3.026  0.00  0.00    +0.117 A 
ATOM      5  C   UNL     1      -2.362   1.092   1.636  0.00  0.00    +0.076 A 
ATOM      6  C   UNL     1      -2.891  -0.172   1.227  0.00  0.00    +0.268 A 
ATOM      7  O   UNL     1      -2.984  -0.449   0.044  0.00  0.00    -0.267 OA
ATOM      8  N   UNL     1      -3.286  -1.052   2.166  0.00  0.00    -0.255 N 
ATOM      9  C   UNL     1      -3.190  -0.759   3.497  0.00  0.00    +0.178 A 
ATOM     10  N   UNL     1      -2.707   0.398   3.901  0.00  0.00    -0.215 NA
ATOM     11  C   UNL     1      -0.860   4.546   0.784  0.00  0.00    +0.052 C 
ENDROOT
BRANCH   8  12
ATOM     12  C   UNL     1      -3.804  -2.292   1.770  0.00  0.00    +0.052 A 
ATOM     13  C   UNL     1      -2.956  -3.378   1.595  0.00  0.00    +0.026 A 
ATOM     14  C   UNL     1      -3.471  -4.600   1.212  0.00  0.00    +0.005 A 
ATOM     15  C   UNL     1      -4.829  -4.741   0.990  0.00  0.00    -0.047 A 
ATOM     16  C   UNL     1      -5.676  -3.661   1.158  0.00  0.00    -0.046 A 
ATOM     17  C   UNL     1      -5.167  -2.437   1.548  0.00  0.00    +0.030 A 
ATOM     18  C   UNL     1      -7.155  -3.819   0.916  0.00  0.00    +0.044 C 
ATOM     19  C   UNL     1      -5.387  -6.075   0.565  0.00  0.00    +0.044 C 
ENDBRANCH   8  12
BRANCH   1  21
ATOM     20  C   UNL     1      -3.219   2.620  -1.219  0.00  0.00    +0.009 C 
ATOM     21  C   UNL     1      -1.888   2.090  -0.682  0.00  0.00    +0.033 C 
ENDBRANCH   1  21
BRANCH   9  22
ATOM     22  S   UNL     1      -3.720  -1.943   4.689  0.00  0.00    -0.078 S 
BRANCH  22  23
ATOM     23  C   UNL     1      -3.367  -1.035   6.214  0.00  0.00    +0.173 C 
BRANCH  23  24
ATOM     24  C   UNL     1      -3.752  -1.878   7.402  0.00  0.00    +0.233 C 
ATOM     25  O   UNL     1      -4.219  -2.984   7.234  0.00  0.00    -0.274 OA
ATOM     26  N   UNL     1      -3.577  -1.403   8.651  0.00  0.00    -0.224 N 
ATOM     27  C   UNL     1      -3.910  -2.121   9.890  0.00  0.00    +0.136 C 
ATOM     28  C   UNL     1      -3.514  -1.134  11.006  0.00  0.00    +0.125 C 
ATOM     29  N   UNL     1      -3.000   0.035  10.277  0.00  0.00    -0.297 N 
ATOM     30  C   UNL     1      -3.067  -0.203   8.961  0.00  0.00    +0.309 C 
ATOM     31  O   UNL     1      -2.701   0.597   8.123  0.00  0.00    -0.252 OA
ATOM     32  H   UNL     1      -2.663   0.848  10.685  0.00  0.00    +0.150 HD
ENDBRANCH  23  24
ENDBRANCH  22  23
ENDBRANCH   9  22
TORSDOF 5
