REMARK  Name = ZINC36028096
REMARK  9 active torsions:
REMARK  status: ('A' for Active; 'I' for Inactive)
REMARK    1  A    between atoms: C_1  and  C_2
REMARK    2  A    between atoms: C_2  and  C_3
REMARK    3  A    between atoms: C_3  and  C_5
REMARK    4  A    between atoms: C_3  and  C_6
REMARK    5  A    between atoms: N_10  and  C_27
REMARK    6  A    between atoms: N_15  and  S_18
REMARK    7  A    between atoms: S_18  and  C_21
REMARK    8  A    between atoms: C_27  and  C_28
REMARK    9  A    between atoms: C_32  and  C_34
REMARK                            x       y       z     vdW  Elec       q    Type
REMARK                         _______ _______ _______ _____ _____    ______ ____
ROOT
ATOM      1  C   UNL     1       0.001  -3.460  -1.526  0.00  0.00    +0.022 C 
ATOM      2  C   UNL     1       1.393  -4.012  -1.742  0.00  0.00    +0.201 C 
ATOM      3  O   UNL     1       1.764  -4.640  -2.712  0.00  0.00    -0.277 OA
ATOM      4  N   UNL     1       2.153  -3.688  -0.675  0.00  0.00    -0.309 N 
ATOM      5  C   UNL     1       1.347  -2.933   0.288  0.00  0.00    +0.006 C 
ATOM      6  N   UNL     1       0.154  -2.456  -0.446  0.00  0.00    +0.401 N 
ATOM      7  C   UNL     1       0.913  -3.840   1.439  0.00  0.00    +0.023 C 
ATOM      8  C   UNL     1       2.155  -4.362   2.168  0.00  0.00    +0.109 C 
ATOM      9  N   UNL     1       2.985  -3.217   2.569  0.00  0.00    -0.177 NA
ATOM     10  C   UNL     1       3.391  -2.245   1.545  0.00  0.00    +0.109 C 
ATOM     11  C   UNL     1       2.139  -1.740   0.820  0.00  0.00    +0.023 C 
ATOM     12  H   UNL     1       0.317  -1.538  -0.833  0.00  0.00    -0.082 HD
ATOM     13  H   UNL     1      -0.658  -2.452   0.154  0.00  0.00    -0.082 HD
ENDROOT
BRANCH   9  14
ATOM     14  S   UNL     1       3.452  -3.026   4.146  0.00  0.00    +0.061 S 
ATOM     15  O   UNL     1       3.721  -1.642   4.325  0.00  0.00    -0.153 OA
ATOM     16  O   UNL     1       2.504  -3.726   4.939  0.00  0.00    -0.153 OA
BRANCH  14  17
ATOM     17  C   UNL     1       4.989  -3.866   4.340  0.00  0.00    +0.105 A 
ATOM     18  C   UNL     1       5.006  -5.199   4.705  0.00  0.00    +0.028 A 
ATOM     19  C   UNL     1       6.212  -5.858   4.857  0.00  0.00    +0.002 A 
ATOM     20  C   UNL     1       7.400  -5.184   4.643  0.00  0.00    +0.000 A 
ATOM     21  C   UNL     1       7.382  -3.852   4.276  0.00  0.00    +0.002 A 
ATOM     22  C   UNL     1       6.177  -3.193   4.120  0.00  0.00    +0.028 A 
ENDBRANCH  14  17
ENDBRANCH   9  14
BRANCH   1  23
ATOM     23  C   UNL     1      -0.512  -2.794  -2.804  0.00  0.00    -0.020 C 
ATOM     24  C   UNL     1      -1.889  -2.179  -2.541  0.00  0.00    +0.006 C 
BRANCH  23  26
ATOM     25  C   UNL     1      -1.018  -3.154  -5.224  0.00  0.00    +0.004 C 
ATOM     26  C   UNL     1      -0.625  -3.841  -3.915  0.00  0.00    -0.001 C 
ENDBRANCH  23  26
ENDBRANCH   1  23
BRANCH   4  27
ATOM     27  C   UNL     1       3.566  -4.037  -0.506  0.00  0.00    +0.141 C 
BRANCH  27  28
ATOM     28  C   UNL     1       4.425  -2.986  -1.160  0.00  0.00    -0.030 A 
ATOM     29  C   UNL     1       3.997  -2.368  -2.321  0.00  0.00    +0.005 A 
ATOM     30  C   UNL     1       4.785  -1.403  -2.921  0.00  0.00    +0.001 A 
ATOM     31  C   UNL     1       6.001  -1.057  -2.360  0.00  0.00    +0.012 A 
ATOM     32  C   UNL     1       6.428  -1.674  -1.200  0.00  0.00    +0.055 A 
ATOM     33  C   UNL     1       5.638  -2.635  -0.597  0.00  0.00    +0.017 A 
BRANCH  32  34
ATOM     34  C   UNL     1       7.753  -1.297  -0.589  0.00  0.00    +0.417 C 
ATOM     35  F   UNL     1       8.362  -0.309  -1.370  0.00  0.00    -0.166 F 
ATOM     36  F   UNL     1       7.547  -0.806   0.705  0.00  0.00    -0.166 F 
ATOM     37  F   UNL     1       8.579  -2.424  -0.535  0.00  0.00    -0.166 F 
ENDBRANCH  32  34
ENDBRANCH  27  28
ENDBRANCH   4  27
TORSDOF 7
