REMARK  Name = ZINC59502646
REMARK  7 active torsions:
REMARK  status: ('A' for Active; 'I' for Inactive)
REMARK    1  A    between atoms: C_1  and  C_2
REMARK    2  A    between atoms: C_3  and  C_19
REMARK    3  A    between atoms: N_7  and  N_8
REMARK    4  A    between atoms: C_9  and  C_10
REMARK    5  A    between atoms: C_9  and  C_11
REMARK    6  A    between atoms: C_14  and  O_17
REMARK    7  A    between atoms: O_17  and  C_18
REMARK                            x       y       z     vdW  Elec       q    Type
REMARK                         _______ _______ _______ _____ _____    ______ ____
ROOT
ATOM      1  N   UNL     1       3.407  -2.444  -0.049  0.00  0.00    -0.151 NA
ATOM      2  C   UNL     1       4.412  -3.279  -0.039  0.00  0.00    +0.068 C 
ATOM      3  C   UNL     1       5.824  -2.760  -0.135  0.00  0.00    +0.068 C 
ENDROOT
BRANCH   1  10
ATOM      4  C   UNL     1      -0.033   1.485  -0.246  0.00  0.00    +0.064 C 
ATOM      5  C   UNL     1       0.001  -0.005  -0.021  0.00  0.00    +0.025 A 
ATOM      6  C   UNL     1      -1.133  -0.669   0.215  0.00  0.00    +0.009 A 
ATOM      7  S   UNL     1      -0.550  -2.346   0.404  0.00  0.00    -0.053 S 
ATOM      8  C   UNL     1       1.190  -2.028   0.149  0.00  0.00    +0.192 A 
ATOM      9  N   UNL     1       1.187  -0.670  -0.065  0.00  0.00    -0.336 N 
ATOM     10  N   UNL     1       2.209  -2.874   0.159  0.00  0.00    -0.124 NA
ATOM     11  C   UNL     1      -2.541  -0.139   0.301  0.00  0.00    +0.053 C 
ATOM     12  H   UNL     1       2.014  -0.195  -0.239  0.00  0.00    +0.168 HD
ENDBRANCH   1  10
BRANCH   2  13
ATOM     13  C   UNL     1       4.166  -4.725   0.065  0.00  0.00    -0.002 A 
ATOM     14  C   UNL     1       3.034  -5.289  -0.532  0.00  0.00    +0.013 A 
ATOM     15  C   UNL     1       2.808  -6.645  -0.432  0.00  0.00    +0.046 A 
ATOM     16  C   UNL     1       3.702  -7.451   0.261  0.00  0.00    +0.120 A 
ATOM     17  C   UNL     1       4.828  -6.896   0.857  0.00  0.00    +0.046 A 
ATOM     18  C   UNL     1       5.066  -5.542   0.758  0.00  0.00    +0.013 A 
BRANCH  16  19
ATOM     19  O   UNL     1       3.475  -8.787   0.357  0.00  0.00    -0.495 OA
ATOM     20  C   UNL     1       4.434  -9.558   1.084  0.00  0.00    +0.277 C 
ENDBRANCH  16  19
ENDBRANCH   2  13
TORSDOF 3
