REMARK  Name = ZINC39321721
REMARK  12 active torsions:
REMARK  status: ('A' for Active; 'I' for Inactive)
REMARK    1  A    between atoms: C_1  and  C_2
REMARK    2  A    between atoms: C_2  and  O_4
REMARK    3  A    between atoms: O_4  and  C_5
REMARK    4  A    between atoms: C_5  and  C_6
REMARK    5  A    between atoms: C_8  and  O_32
REMARK    6  A    between atoms: C_10  and  O_28
REMARK    7  A    between atoms: C_12  and  N_15
REMARK    8  A    between atoms: C_22  and  N_26
REMARK    9  A    between atoms: O_28  and  C_29
REMARK   10  A    between atoms: C_29  and  C_31
REMARK   11  A    between atoms: O_32  and  C_33
REMARK   12  A    between atoms: C_33  and  C_35
REMARK                            x       y       z     vdW  Elec       q    Type
REMARK                         _______ _______ _______ _____ _____    ______ ____
ROOT
ATOM      1  C   UNL     1       0.015  -2.673  -2.514  0.00  0.00    +0.202 C 
ATOM      2  C   UNL     1       0.128  -4.218  -2.466  0.00  0.00    +0.253 C 
ATOM      3  C   UNL     1      -0.527  -4.604  -3.820  0.00  0.00    +0.266 C 
ATOM      4  C   UNL     1      -1.616  -3.521  -3.978  0.00  0.00    +0.255 C 
ATOM      5  O   UNL     1      -1.242  -2.407  -3.156  0.00  0.00    -0.344 OA
ENDROOT
BRANCH   4   6
ATOM      6  N   UNL     1      -1.699  -3.099  -5.378  0.00  0.00    -0.253 N 
ATOM      7  C   UNL     1      -0.657  -2.413  -6.155  0.00  0.00    +0.264 C 
ATOM      8  N   UNL     1      -1.204  -2.203  -7.499  0.00  0.00    -0.242 NA
ATOM      9  C   UNL     1      -2.398  -2.686  -7.541  0.00  0.00    +0.165 C 
ATOM     10  C   UNL     1      -2.756  -3.271  -6.223  0.00  0.00    +0.159 C 
ATOM     11  N   UNL     1      -3.946  -3.818  -6.089  0.00  0.00    -0.198 NA
ATOM     12  C   UNL     1      -4.817  -3.857  -7.098  0.00  0.00    +0.226 C 
ATOM     13  N   UNL     1      -4.590  -3.368  -8.304  0.00  0.00    -0.141 NA
ATOM     14  C   UNL     1      -3.434  -2.768  -8.614  0.00  0.00    +0.291 C 
ATOM     15  O   UNL     1      -3.230  -2.320  -9.728  0.00  0.00    -0.266 OA
ATOM     16 BR   UNL     1      -0.227  -0.683  -5.324  0.00  0.00    -0.041 Br
BRANCH  12  17
ATOM     17  N   UNL     1      -6.033  -4.446  -6.868  0.00  0.00    -0.234 NA
ATOM     18  H   UNL     1      -6.692  -4.493  -7.579  0.00  0.00    +0.173 HD
ENDBRANCH  12  17
ENDBRANCH   4   6
BRANCH   1  19
ATOM     19  C   UNL     1       0.020  -2.096  -1.097  0.00  0.00    +0.267 C 
BRANCH  19  20
ATOM     20  O   UNL     1       0.000  -0.669  -1.164  0.00  0.00    -0.462 OA
BRANCH  20  22
ATOM     21  C   UNL     1      -0.018   1.503   0.010  0.00  0.00    +0.136 C 
ATOM     22  C   UNL     1       0.002  -0.004   0.002  0.00  0.00    +0.304 C 
ATOM     23  O   UNL     1       0.020  -0.614   1.045  0.00  0.00    -0.251 OA
ENDBRANCH  20  22
ENDBRANCH  19  20
ENDBRANCH   1  19
BRANCH   3  24
ATOM     24  O   UNL     1       0.424  -4.532  -4.884  0.00  0.00    -0.453 OA
BRANCH  24  25
ATOM     25  C   UNL     1       1.101  -5.655  -5.173  0.00  0.00    +0.304 C 
ATOM     26  O   UNL     1       0.892  -6.665  -4.543  0.00  0.00    -0.251 OA
ATOM     27  C   UNL     1       2.121  -5.656  -6.282  0.00  0.00    +0.136 C 
ENDBRANCH  24  25
ENDBRANCH   3  24
BRANCH   2  28
ATOM     28  O   UNL     1       1.494  -4.633  -2.417  0.00  0.00    -0.455 OA
BRANCH  28  29
ATOM     29  C   UNL     1       2.036  -4.804  -1.201  0.00  0.00    +0.304 C 
ATOM     30  O   UNL     1       1.372  -4.608  -0.211  0.00  0.00    -0.251 OA
ATOM     31  C   UNL     1       3.472  -5.241  -1.071  0.00  0.00    +0.136 C 
ENDBRANCH  28  29
ENDBRANCH   2  28
TORSDOF 9
