REMARK  Name = ZINC24107249
REMARK  6 active torsions:
REMARK  status: ('A' for Active; 'I' for Inactive)
REMARK    1  A    between atoms: C_1  and  C_2
REMARK    2  A    between atoms: C_7  and  C_9
REMARK    3  A    between atoms: C_7  and  C_10
REMARK    4  A    between atoms: N_13  and  C_17
REMARK    5  A    between atoms: C_17  and  C_18
REMARK    6  A    between atoms: N_20  and  C_21
REMARK                            x       y       z     vdW  Elec       q    Type
REMARK                         _______ _______ _______ _____ _____    ______ ____
ROOT
ATOM      1  C   UNL     1       0.009   1.511   0.010  0.00  0.00    +0.007 C 
ATOM      2  C   UNL     1       0.032  -0.021  -0.005  0.00  0.00    -0.011 C 
ATOM      3  C   UNL     1       0.748  -0.503  -1.268  0.00  0.00    +0.038 C 
ATOM      4  C   UNL     1       0.734  -2.025  -1.318  0.00  0.00    +0.113 C 
ATOM      5  C   UNL     1       1.296  -2.661  -0.062  0.00  0.00    +0.041 C 
ATOM      6  C   UNL     1       0.828  -2.051   1.248  0.00  0.00    -0.032 C 
ATOM      7  C   UNL     1       0.803  -0.528   1.212  0.00  0.00    +0.009 C 
ATOM      8  C   UNL     1      -0.552  -2.591   1.634  0.00  0.00    +0.011 C 
ATOM      9  C   UNL     1       1.817  -2.479   2.354  0.00  0.00    +0.011 C 
ATOM     10  C   UNL     1      -0.644  -2.540  -1.650  0.00  0.00    +0.247 C 
ATOM     11  O   UNL     1      -1.692  -2.296  -1.090  0.00  0.00    -0.273 OA
ATOM     12  N   UNL     1      -0.489  -3.326  -2.738  0.00  0.00    -0.215 N 
ATOM     13  C   UNL     1       0.761  -3.271  -3.208  0.00  0.00    +0.310 C 
ATOM     14  O   UNL     1       1.143  -3.882  -4.188  0.00  0.00    -0.252 OA
ATOM     15  N   UNL     1       1.548  -2.468  -2.473  0.00  0.00    -0.285 N 
ATOM     16  H   UNL     1       2.467  -2.218  -2.650  0.00  0.00    +0.151 HD
ENDROOT
BRANCH  12  17
ATOM     17  C   UNL     1      -1.559  -4.136  -3.326  0.00  0.00    +0.214 C 
BRANCH  17  18
ATOM     18  C   UNL     1      -2.289  -3.326  -4.366  0.00  0.00    +0.235 C 
ATOM     19  O   UNL     1      -1.949  -2.184  -4.593  0.00  0.00    -0.274 OA
ATOM     20  N   UNL     1      -3.319  -3.870  -5.043  0.00  0.00    -0.283 N 
ATOM     21  H   UNL     1      -3.550  -4.802  -4.909  0.00  0.00    +0.155 HD
BRANCH  20  22
ATOM     22  C   UNL     1      -4.057  -3.089  -5.941  0.00  0.00    +0.053 A 
ATOM     23  C   UNL     1      -3.426  -2.100  -6.684  0.00  0.00    +0.046 A 
ATOM     24  C   UNL     1      -4.156  -1.331  -7.570  0.00  0.00    +0.061 A 
ATOM     25  C   UNL     1      -5.517  -1.545  -7.717  0.00  0.00    +0.061 A 
ATOM     26  C   UNL     1      -6.148  -2.530  -6.978  0.00  0.00    +0.043 A 
ATOM     27  C   UNL     1      -5.421  -3.306  -6.095  0.00  0.00    +0.064 A 
ATOM     28 CL   UNL     1      -6.212  -4.546  -5.173  0.00  0.00    -0.082 Cl
ATOM     29 CL   UNL     1      -6.432  -0.577  -8.830  0.00  0.00    -0.082 Cl
ATOM     30 CL   UNL     1      -3.368  -0.095  -8.500  0.00  0.00    -0.082 Cl
ENDBRANCH  20  22
ENDBRANCH  17  18
ENDBRANCH  12  17
TORSDOF 3
