REMARK  Name = ZINC16913250
REMARK  12 active torsions:
REMARK  status: ('A' for Active; 'I' for Inactive)
REMARK    1  A    between atoms: C_1  and  C_2
REMARK    2  A    between atoms: C_2  and  C_3
REMARK    3  A    between atoms: C_3  and  C_5
REMARK    4  A    between atoms: C_3  and  O_8
REMARK    5  A    between atoms: O_8  and  C_9
REMARK    6  A    between atoms: C_12  and  C_17
REMARK    7  A    between atoms: C_14  and  O_15
REMARK    8  A    between atoms: O_15  and  C_16
REMARK    9  A    between atoms: C_22  and  N_24
REMARK   10  A    between atoms: N_24  and  C_25
REMARK   11  A    between atoms: C_28  and  C_31
REMARK   12  A    between atoms: C_31  and  C_33
REMARK                            x       y       z     vdW  Elec       q    Type
REMARK                         _______ _______ _______ _____ _____    ______ ____
ROOT
ATOM      1  C   UNL     1      -0.024   1.065  -0.244  0.00  0.00    +0.028 C 
ATOM      2  C   UNL     1       1.051   1.476  -0.964  0.00  0.00    +0.079 C 
ATOM      3  C   UNL     1       1.170   2.580  -1.945  0.00  0.00    +0.276 C 
ATOM      4  O   UNL     1       0.223   3.295  -2.228  0.00  0.00    -0.267 OA
ATOM      5  N   UNL     1       2.353   2.746  -2.494  0.00  0.00    -0.152 NA
ATOM      6  C   UNL     1       3.389   1.978  -2.197  0.00  0.00    +0.175 C 
ATOM      7  S   UNL     1       2.723   0.842  -0.990  0.00  0.00    -0.050 S 
ENDROOT
BRANCH   1  11
ATOM      8  C   UNL     1      -3.603   3.343  -0.293  0.00  0.00    +0.163 A 
ATOM      9  C   UNL     1      -2.372   3.985  -0.320  0.00  0.00    +0.050 A 
ATOM     10  C   UNL     1      -1.207   3.250  -0.298  0.00  0.00    +0.012 A 
ATOM     11  C   UNL     1      -1.263   1.851  -0.261  0.00  0.00    -0.020 A 
ATOM     12  C   UNL     1      -2.506   1.205  -0.235  0.00  0.00    +0.057 A 
ATOM     13  C   UNL     1      -3.668   1.951  -0.251  0.00  0.00    +0.162 A 
BRANCH  13  14
ATOM     14  O   UNL     1      -4.876   1.327  -0.224  0.00  0.00    -0.491 OA
ATOM     15  C   UNL     1      -4.868  -0.101  -0.181  0.00  0.00    +0.277 C 
ENDBRANCH  13  14
BRANCH   8  16
ATOM     16  O   UNL     1      -4.748   4.074  -0.308  0.00  0.00    -0.474 OA
BRANCH  16  17
ATOM     17  C   UNL     1      -4.613   5.488  -0.465  0.00  0.00    +0.285 C 
BRANCH  17  18
ATOM     18  C   UNL     1      -4.363   6.121   0.880  0.00  0.00    +0.396 C 
ATOM     19  O   UNL     1      -4.306   5.432   1.871  0.00  0.00    -0.242 OA
ATOM     20  O   UNL     1      -4.204   7.450   0.977  0.00  0.00    -0.242 OA
ENDBRANCH  17  18
BRANCH  17  22
ATOM     21  C   UNL     1      -6.086   5.512  -2.482  0.00  0.00    +0.008 C 
ATOM     22  C   UNL     1      -5.898   6.060  -1.066  0.00  0.00    +0.053 C 
ENDBRANCH  17  22
ENDBRANCH  16  17
ENDBRANCH   8  16
ENDBRANCH   1  11
BRANCH   6  23
ATOM     23  N   UNL     1       4.667   2.042  -2.692  0.00  0.00    -0.192 NA
BRANCH  23  24
ATOM     24  C   UNL     1       5.023   3.063  -3.567  0.00  0.00    +0.056 A 
ATOM     25  C   UNL     1       4.081   3.577  -4.455  0.00  0.00    +0.026 A 
ATOM     26  C   UNL     1       4.426   4.583  -5.312  0.00  0.00    +0.013 A 
ATOM     27  C   UNL     1       5.732   5.090  -5.305  0.00  0.00    +0.017 A 
ATOM     28  C   UNL     1       6.677   4.566  -4.415  0.00  0.00    +0.013 A 
ATOM     29  C   UNL     1       6.323   3.564  -3.557  0.00  0.00    +0.026 A 
BRANCH  27  30
ATOM     30  C   UNL     1       6.109   6.167  -6.229  0.00  0.00    +0.160 C 
ATOM     31  O   UNL     1       7.240   6.604  -6.222  0.00  0.00    -0.292 OA
ATOM     32  C   UNL     1       5.090   6.729  -7.187  0.00  0.00    +0.091 C 
ENDBRANCH  27  30
ENDBRANCH  23  24
ENDBRANCH   6  23
TORSDOF 9
