REMARK  Name = ZINC39325490
REMARK  8 active torsions:
REMARK  status: ('A' for Active; 'I' for Inactive)
REMARK    1  A    between atoms: C_1  and  C_2
REMARK    2  A    between atoms: C_6  and  C_8
REMARK    3  A    between atoms: C_8  and  C_9
REMARK    4  A    between atoms: C_9  and  N_10
REMARK    5  A    between atoms: N_10  and  C_11
REMARK    6  A    between atoms: N_10  and  S_28
REMARK    7  A    between atoms: C_11  and  C_12
REMARK    8  A    between atoms: S_28  and  C_31
REMARK                            x       y       z     vdW  Elec       q    Type
REMARK                         _______ _______ _______ _____ _____    ______ ____
ROOT
ATOM      1  N   UNL     1       1.526  -3.828   4.295  0.00  0.00    -0.175 NA
ENDROOT
BRANCH   1   2
ATOM      2  S   UNL     1       1.217  -3.048   5.723  0.00  0.00    +0.061 S 
ATOM      3  O   UNL     1       1.462  -3.989   6.760  0.00  0.00    -0.153 OA
ATOM      4  O   UNL     1       1.886  -1.797   5.656  0.00  0.00    -0.153 OA
BRANCH   2   5
ATOM      5  C   UNL     1      -0.509  -2.695   5.761  0.00  0.00    +0.105 A 
ATOM      6  C   UNL     1      -0.983  -1.505   5.240  0.00  0.00    +0.028 A 
ATOM      7  C   UNL     1      -2.337  -1.228   5.270  0.00  0.00    +0.002 A 
ATOM      8  C   UNL     1      -3.217  -2.141   5.820  0.00  0.00    +0.000 A 
ATOM      9  C   UNL     1      -2.744  -3.331   6.340  0.00  0.00    +0.002 A 
ATOM     10  C   UNL     1      -1.390  -3.610   6.306  0.00  0.00    +0.028 A 
ENDBRANCH   2   5
ENDBRANCH   1   2
BRANCH   1  11
ATOM     11  C   UNL     1       2.009  -3.071   3.137  0.00  0.00    +0.114 C 
BRANCH  11  12
ATOM     12  C   UNL     1       0.826  -2.704   2.238  0.00  0.00    +0.052 C 
BRANCH  12  18
ATOM     13  C   UNL     1       1.950   1.670   0.082  0.00  0.00    +0.044 C 
ATOM     14  C   UNL     1       1.860   0.168   0.015  0.00  0.00    -0.050 A 
ATOM     15  C   UNL     1       2.233  -0.497  -1.138  0.00  0.00    +0.003 A 
ATOM     16  C   UNL     1       2.151  -1.875  -1.199  0.00  0.00    +0.001 A 
ATOM     17  C   UNL     1       1.696  -2.590  -0.106  0.00  0.00    +0.004 A 
ATOM     18  C   UNL     1       1.323  -1.925   1.047  0.00  0.00    -0.046 A 
ATOM     19  C   UNL     1       1.409  -0.547   1.109  0.00  0.00    +0.007 A 
ENDBRANCH  12  18
ENDBRANCH  11  12
ENDBRANCH   1  11
BRANCH   1  20
ATOM     20  C   UNL     1       1.316  -5.274   4.189  0.00  0.00    +0.126 C 
BRANCH  20  21
ATOM     21  C   UNL     1       2.669  -5.977   4.056  0.00  0.00    +0.114 C 
ATOM     22  C   UNL     1       3.505  -5.609   5.266  0.00  0.00    -0.003 C 
ATOM     23  C   UNL     1       3.958  -6.627   6.046  0.00  0.00    -0.003 A 
ATOM     24  C   UNL     1       4.772  -6.357   7.231  0.00  0.00    +0.059 A 
ATOM     25  C   UNL     1       5.210  -7.397   7.991  0.00  0.00    +0.163 A 
ATOM     26  C   UNL     1       4.890  -8.729   7.657  0.00  0.00    +0.164 A 
ATOM     27  C   UNL     1       4.127  -9.035   6.548  0.00  0.00    +0.073 A 
ATOM     28  C   UNL     1       3.637  -8.027   5.710  0.00  0.00    +0.044 A 
ATOM     29  N   UNL     1       2.901  -8.346   4.643  0.00  0.00    -0.284 N 
ATOM     30  C   UNL     1       2.406  -7.446   3.813  0.00  0.00    +0.225 C 
ATOM     31  O   UNL     1       1.741  -7.797   2.857  0.00  0.00    -0.275 OA
ATOM     32  O   UNL     1       5.329  -9.754   8.436  0.00  0.00    -0.485 OA
ATOM     33  C   UNL     1       6.409  -9.470   9.330  0.00  0.00    +0.270 C 
ATOM     34  C   UNL     1       6.096  -8.160  10.064  0.00  0.00    +0.270 C 
ATOM     35  O   UNL     1       5.971  -7.121   9.088  0.00  0.00    -0.485 OA
ATOM     36  H   UNL     1       2.721  -9.283   4.469  0.00  0.00    +0.155 HD
ENDBRANCH  20  21
ENDBRANCH   1  20
TORSDOF 7
