REMARK  Name = ZINC12582240
REMARK  7 active torsions:
REMARK  status: ('A' for Active; 'I' for Inactive)
REMARK    1  A    between atoms: C_4  and  C_7
REMARK    2  A    between atoms: C_7  and  C_9
REMARK    3  A    between atoms: C_7  and  O_22
REMARK    4  A    between atoms: N_11  and  C_12
REMARK    5  A    between atoms: C_15  and  N_19
REMARK    6  A    between atoms: O_22  and  C_23
REMARK    7  A    between atoms: C_23  and  C_25
REMARK                            x       y       z     vdW  Elec       q    Type
REMARK                         _______ _______ _______ _____ _____    ______ ____
ROOT
ATOM      1  C   UNL     1       3.807  -0.900  -0.056  0.00  0.00    +0.292 C 
ENDROOT
BRANCH   1   5
ATOM      2  C   UNL     1       5.126  -1.518   3.959  0.00  0.00    +0.000 A 
ATOM      3  C   UNL     1       6.025  -1.109   2.992  0.00  0.00    +0.000 A 
ATOM      4  C   UNL     1       5.598  -0.908   1.693  0.00  0.00    +0.008 A 
ATOM      5  C   UNL     1       4.273  -1.118   1.360  0.00  0.00    +0.002 A 
ATOM      6  C   UNL     1       3.373  -1.523   2.329  0.00  0.00    +0.008 A 
ATOM      7  C   UNL     1       3.801  -1.728   3.627  0.00  0.00    +0.000 A 
ENDBRANCH   1   5
BRANCH   1   8
ATOM      8  C   UNL     1       3.710  -2.227  -0.763  0.00  0.00    +0.263 C 
ATOM      9  O   UNL     1       2.647  -2.598  -1.213  0.00  0.00    -0.271 OA
ATOM     10  N   UNL     1       4.805  -3.002  -0.896  0.00  0.00    -0.281 N 
ATOM     11  H   UNL     1       5.668  -2.677  -0.595  0.00  0.00    +0.155 HD
BRANCH  10  12
ATOM     12  C   UNL     1       4.697  -4.274  -1.468  0.00  0.00    +0.048 A 
ATOM     13  C   UNL     1       3.787  -4.502  -2.492  0.00  0.00    +0.026 A 
ATOM     14  C   UNL     1       3.682  -5.758  -3.055  0.00  0.00    +0.034 A 
ATOM     15  C   UNL     1       4.482  -6.790  -2.600  0.00  0.00    +0.127 A 
ATOM     16  C   UNL     1       5.389  -6.568  -1.581  0.00  0.00    +0.049 A 
ATOM     17  C   UNL     1       5.503  -5.312  -1.017  0.00  0.00    +0.041 A 
ATOM     18 BR   UNL     1       6.749  -5.006   0.372  0.00  0.00    -0.048 Br
BRANCH  15  19
ATOM     19  N   UNL     1       4.368  -8.136  -3.207  0.00  0.00    +0.056 N 
ATOM     20  O   UNL     1       3.569  -8.333  -4.105  0.00  0.00    -0.126 OA
ATOM     21  O   UNL     1       5.072  -9.046  -2.807  0.00  0.00    -0.126 OA
ENDBRANCH  15  19
ENDBRANCH  10  12
ENDBRANCH   1   8
BRANCH   1  22
ATOM     22  O   UNL     1       2.503  -0.261  -0.044  0.00  0.00    -0.443 OA
BRANCH  22  23
ATOM     23  C   UNL     1       2.482   1.086  -0.047  0.00  0.00    +0.343 C 
ATOM     24  O   UNL     1       3.525   1.710  -0.058  0.00  0.00    -0.245 OA
BRANCH  23  25
ATOM     25  C   UNL     1       1.194   1.804  -0.035  0.00  0.00    +0.094 A 
ATOM     26  C   UNL     1      -0.007   1.089  -0.022  0.00  0.00    +0.020 A 
ATOM     27  C   UNL     1      -1.208   1.764  -0.017  0.00  0.00    +0.039 A 
ATOM     28  C   UNL     1      -1.228   3.151  -0.015  0.00  0.00    +0.126 A 
ATOM     29  C   UNL     1      -0.043   3.868  -0.027  0.00  0.00    +0.077 A 
ATOM     30  C   UNL     1       1.169   3.203  -0.038  0.00  0.00    +0.140 A 
ATOM     31  F   UNL     1       2.325   3.902  -0.050  0.00  0.00    -0.205 F 
ATOM     32  F   UNL     1      -2.410   3.806  -0.005  0.00  0.00    -0.205 F 
ENDBRANCH  23  25
ENDBRANCH  22  23
ENDBRANCH   1  22
TORSDOF 7
