REMARK  Name = ZINC39692935
REMARK  8 active torsions:
REMARK  status: ('A' for Active; 'I' for Inactive)
REMARK    1  A    between atoms: C_1  and  C_2
REMARK    2  A    between atoms: C_4  and  C_16
REMARK    3  A    between atoms: C_11  and  C_13
REMARK    4  A    between atoms: C_16  and  S_17
REMARK    5  A    between atoms: S_17  and  C_18
REMARK    6  A    between atoms: C_21  and  C_29
REMARK    7  A    between atoms: N_22  and  C_23
REMARK    8  A    between atoms: C_29  and  C_30
REMARK                            x       y       z     vdW  Elec       q    Type
REMARK                         _______ _______ _______ _____ _____    ______ ____
ROOT
ATOM      1  C   UNL     1      -2.492   3.716   1.707  0.00  0.00    +0.196 A 
ATOM      2  N   UNL     1      -3.081   4.325   0.705  0.00  0.00    -0.122 NA
ATOM      3  N   UNL     1      -3.179   5.583   0.953  0.00  0.00    -0.133 NA
ATOM      4  C   UNL     1      -2.662   5.851   2.119  0.00  0.00    +0.143 A 
ATOM      5  N   UNL     1      -2.210   4.670   2.646  0.00  0.00    -0.274 N 
ENDROOT
BRANCH   5   6
ATOM      6  C   UNL     1      -1.586   4.480   3.887  0.00  0.00    +0.050 A 
ATOM      7  C   UNL     1      -2.289   4.709   5.061  0.00  0.00    +0.026 A 
ATOM      8  C   UNL     1      -1.672   4.520   6.283  0.00  0.00    +0.002 A 
ATOM      9  C   UNL     1      -0.355   4.104   6.336  0.00  0.00    +0.000 A 
ATOM     10  C   UNL     1       0.349   3.876   5.168  0.00  0.00    +0.002 A 
ATOM     11  C   UNL     1      -0.265   4.057   3.944  0.00  0.00    +0.026 A 
ENDBRANCH   5   6
BRANCH   1  12
ATOM     12  S   UNL     1      -2.137   1.994   1.824  0.00  0.00    -0.081 S 
BRANCH  12  13
ATOM     13  C   UNL     1      -2.762   1.310   0.265  0.00  0.00    +0.113 C 
BRANCH  13  17
ATOM     14  C   UNL     1      -0.138   1.495  -0.579  0.00  0.00    +0.041 C 
ATOM     15  C   UNL     1      -0.108  -0.011  -0.539  0.00  0.00    -0.039 C 
ATOM     16  C   UNL     1      -1.194  -0.720  -0.170  0.00  0.00    +0.009 C 
ATOM     17  C   UNL     1      -2.519  -0.177   0.235  0.00  0.00    -0.023 C 
ATOM     18  C   UNL     1      -3.496  -1.039   0.574  0.00  0.00    +0.074 C 
ATOM     19  C   UNL     1      -3.259  -2.479   0.545  0.00  0.00    +0.261 C 
ATOM     20  O   UNL     1      -4.157  -3.245   0.857  0.00  0.00    -0.269 OA
ATOM     21  N   UNL     1      -2.069  -2.970   0.182  0.00  0.00    -0.170 NA
ATOM     22  C   UNL     1      -1.075  -2.193  -0.160  0.00  0.00    +0.098 C 
ATOM     23  S   UNL     1       0.594  -2.516  -0.681  0.00  0.00    -0.088 S 
ATOM     24  C   UNL     1       1.138  -0.776  -0.918  0.00  0.00    +0.192 C 
BRANCH  24  25
ATOM     25  C   UNL     1       2.279  -0.440   0.007  0.00  0.00    +0.373 C 
ATOM     26  O   UNL     1       2.508  -1.146   0.974  0.00  0.00    -0.245 OA
ATOM     27  O   UNL     1       2.974   0.537  -0.213  0.00  0.00    -0.245 OA
ENDBRANCH  24  25
ENDBRANCH  13  17
ENDBRANCH  12  13
ENDBRANCH   1  12
BRANCH   4  28
ATOM     28  C   UNL     1      -2.582   7.208   2.769  0.00  0.00    +0.119 C 
BRANCH  28  29
ATOM     29  C   UNL     1      -3.819   7.442   3.597  0.00  0.00    -0.003 A 
ATOM     30  C   UNL     1      -4.040   7.152   4.902  0.00  0.00    +0.011 A 
ATOM     31  C   UNL     1      -5.267   7.461   5.459  0.00  0.00    +0.008 A 
ATOM     32  C   UNL     1      -6.212   8.045   4.684  0.00  0.00    +0.045 A 
ATOM     33  S   UNL     1      -5.371   8.182   3.115  0.00  0.00    -0.101 S 
ENDBRANCH  28  29
ENDBRANCH   4  28
TORSDOF 7
