REMARK  Name = ZINC19236556
REMARK  6 active torsions:
REMARK  status: ('A' for Active; 'I' for Inactive)
REMARK    1  A    between atoms: C_1  and  C_2
REMARK    2  A    between atoms: C_16  and  C_18
REMARK    3  A    between atoms: C_18  and  C_19
REMARK    4  A    between atoms: N_26  and  C_27
REMARK    5  A    between atoms: C_27  and  C_28
REMARK    6  A    between atoms: C_27  and  C_29
REMARK                            x       y       z     vdW  Elec       q    Type
REMARK                         _______ _______ _______ _____ _____    ______ ____
ROOT
ATOM      1  C   UNL     1      -3.186   6.893  -3.257  0.00  0.00    +0.046 C 
ATOM      2  C   UNL     1      -3.677   5.777  -2.371  0.00  0.00    -0.027 A 
ATOM      3  C   UNL     1      -5.024   5.601  -2.107  0.00  0.00    +0.005 A 
ATOM      4  C   UNL     1      -5.492   4.581  -1.295  0.00  0.00    +0.001 A 
ATOM      5  C   UNL     1      -4.646   3.677  -0.700  0.00  0.00    +0.010 A 
ATOM      6  C   UNL     1      -3.280   3.830  -0.950  0.00  0.00    +0.005 A 
ATOM      7  C   UNL     1      -2.795   4.874  -1.781  0.00  0.00    +0.050 A 
ATOM      8  N   UNL     1      -1.436   4.758  -1.828  0.00  0.00    -0.357 N 
ATOM      9  H   UNL     1      -0.843   5.471  -2.419  0.00  0.00    +0.166 HD
ATOM     10  C   UNL     1      -1.034   3.688  -1.069  0.00  0.00    +0.023 A 
ATOM     11  C   UNL     1      -2.112   3.095  -0.514  0.00  0.00    -0.002 A 
ATOM     12  C   UNL     1      -2.043   1.889   0.385  0.00  0.00    +0.145 C 
ATOM     13  N   UNL     1      -0.670   1.360   0.319  0.00  0.00    -0.297 N 
ATOM     14  C   UNL     1       0.446   2.317   0.370  0.00  0.00    +0.114 C 
ATOM     15  C   UNL     1       0.388   3.221  -0.867  0.00  0.00    +0.072 C 
ATOM     16  C   UNL     1      -0.442   0.036   0.208  0.00  0.00    +0.215 C 
ATOM     17  O   UNL     1      -1.374  -0.738   0.167  0.00  0.00    -0.276 OA
ENDROOT
BRANCH  16  18
ATOM     18  C   UNL     1       0.971  -0.481   0.135  0.00  0.00    +0.090 C 
BRANCH  18  19
ATOM     19  C   UNL     1       0.953  -2.011   0.112  0.00  0.00    +0.028 C 
ATOM     20  C   UNL     1       0.237  -2.484  -1.121  0.00  0.00    +0.200 C 
ATOM     21  O   UNL     1       0.462  -1.925  -2.174  0.00  0.00    -0.278 OA
ATOM     22  N   UNL     1      -0.638  -3.494  -1.107  0.00  0.00    -0.318 N 
ATOM     23  C   UNL     1      -1.006  -4.208   0.113  0.00  0.00    +0.085 C 
ATOM     24  C   UNL     1       0.038  -3.958   1.202  0.00  0.00    -0.058 C 
ATOM     25  N   UNL     1       0.268  -2.508   1.313  0.00  0.00    +0.390 N 
ATOM     26  H   UNL     1      -1.088  -3.781  -2.069  0.00  0.00    +0.149 HD
ATOM     27  H   UNL     1      -0.707  -2.004   1.390  0.00  0.00    -0.080 HD
BRANCH  25  28
ATOM     28  C   UNL     1       1.031  -2.187   2.526  0.00  0.00    -0.074 C 
ATOM     29  C   UNL     1       0.172  -2.475   3.760  0.00  0.00    -0.013 C 
ATOM     30  C   UNL     1       2.297  -3.045   2.574  0.00  0.00    -0.013 C 
ENDBRANCH  25  28
ENDBRANCH  18  19
ENDBRANCH  16  18
TORSDOF 3
