REMARK  Name = ZINC35594693
REMARK  13 active torsions:
REMARK  status: ('A' for Active; 'I' for Inactive)
REMARK    1  A    between atoms: C_1  and  C_2
REMARK    2  A    between atoms: C_2  and  C_3
REMARK    3  A    between atoms: C_2  and  C_4
REMARK    4  A    between atoms: C_2  and  C_5
REMARK    5  A    between atoms: N_8  and  C_10
REMARK    6  A    between atoms: C_10  and  C_11
REMARK    7  A    between atoms: C_10  and  C_12
REMARK    8  A    between atoms: C_10  and  C_13
REMARK    9  A    between atoms: N_14  and  C_28
REMARK   10  A    between atoms: C_19  and  C_21
REMARK   11  A    between atoms: C_28  and  C_29
REMARK   12  A    between atoms: N_31  and  C_32
REMARK   13  A    between atoms: C_32  and  C_33
REMARK                            x       y       z     vdW  Elec       q    Type
REMARK                         _______ _______ _______ _____ _____    ______ ____
ROOT
ATOM      1  C   UNL     1      -1.670  -1.032  -2.001  0.00  0.00    +0.075 A 
ATOM      2  C   UNL     1      -2.134  -1.596  -3.190  0.00  0.00    +0.033 A 
ATOM      3  C   UNL     1      -1.824  -0.750  -4.199  0.00  0.00    +0.132 A 
ATOM      4  N   UNL     1      -1.190   0.316  -3.675  0.00  0.00    -0.244 N 
ATOM      5  N   UNL     1      -1.108   0.117  -2.288  0.00  0.00    -0.173 NA
ATOM      6  N   UNL     1      -2.130  -0.996  -5.546  0.00  0.00    -0.246 N 
ATOM      7  C   UNL     1      -1.825  -2.191  -6.062  0.00  0.00    +0.231 C 
ATOM      8  O   UNL     1      -2.335  -2.548  -7.103  0.00  0.00    -0.274 OA
ATOM      9  C   UNL     1      -0.855  -3.092  -5.359  0.00  0.00    +0.166 C 
ATOM     10  S   UNL     1      -1.710  -4.114  -4.113  0.00  0.00    -0.138 S 
ATOM     11  C   UNL     1      -2.858  -2.907  -3.358  0.00  0.00    +0.112 C 
ENDROOT
BRANCH  11  12
ATOM     12  C   UNL     1      -3.309  -3.412  -2.011  0.00  0.00    -0.027 A 
ATOM     13  C   UNL     1      -4.579  -3.115  -1.552  0.00  0.00    +0.005 A 
ATOM     14  C   UNL     1      -4.994  -3.577  -0.317  0.00  0.00    +0.003 A 
ATOM     15  C   UNL     1      -4.140  -4.337   0.460  0.00  0.00    +0.038 A 
ATOM     16  C   UNL     1      -2.868  -4.636   0.000  0.00  0.00    +0.124 A 
ATOM     17  C   UNL     1      -2.456  -4.177  -1.240  0.00  0.00    +0.043 A 
ATOM     18  F   UNL     1      -2.033  -5.379   0.759  0.00  0.00    -0.205 F 
ENDBRANCH  11  12
BRANCH   1  20
ATOM     19  C   UNL     1      -1.416  -0.594   0.427  0.00  0.00    +0.017 C 
ATOM     20  C   UNL     1      -1.799  -1.636  -0.626  0.00  0.00    +0.007 C 
ATOM     21  C   UNL     1      -0.867  -2.844  -0.510  0.00  0.00    +0.017 C 
ATOM     22  C   UNL     1      -3.244  -2.083  -0.398  0.00  0.00    +0.017 C 
ENDBRANCH   1  20
BRANCH   4  23
ATOM     23  C   UNL     1      -0.683   1.474  -4.415  0.00  0.00    +0.057 C 
ATOM     24  C   UNL     1      -1.505   1.661  -5.692  0.00  0.00    +0.036 C 
ATOM     25  C   UNL     1      -0.800   2.727  -3.545  0.00  0.00    +0.036 C 
ATOM     26  C   UNL     1       0.784   1.242  -4.782  0.00  0.00    +0.036 C 
ENDBRANCH   4  23
BRANCH   6  27
ATOM     27  C   UNL     1      -2.770   0.034  -6.369  0.00  0.00    +0.210 C 
BRANCH  27  28
ATOM     28  C   UNL     1      -1.907   0.327  -7.569  0.00  0.00    +0.231 C 
ATOM     29  O   UNL     1      -1.067  -0.474  -7.922  0.00  0.00    -0.274 OA
ATOM     30  N   UNL     1      -2.067   1.479  -8.249  0.00  0.00    -0.307 N 
ATOM     31  H   UNL     1      -2.738   2.119  -7.967  0.00  0.00    +0.149 HD
BRANCH  30  32
ATOM     32  C   UNL     1      -1.227   1.764  -9.416  0.00  0.00    +0.178 C 
BRANCH  32  33
ATOM     33  C   UNL     1      -1.605   3.104  -9.991  0.00  0.00    +0.122 A 
ATOM     34  C   UNL     1      -1.064   4.288  -9.649  0.00  0.00    +0.046 A 
ATOM     35  C   UNL     1      -1.710   5.274 -10.430  0.00  0.00    +0.041 A 
ATOM     36  C   UNL     1      -2.606   4.634 -11.203  0.00  0.00    +0.195 A 
ATOM     37  O   UNL     1      -2.534   3.320 -10.937  0.00  0.00    -0.466 OA
ENDBRANCH  32  33
ENDBRANCH  30  32
ENDBRANCH  27  28
ENDBRANCH   6  27
TORSDOF 7
