REMARK  Name = ZINC20889681
REMARK  7 active torsions:
REMARK  status: ('A' for Active; 'I' for Inactive)
REMARK    1  A    between atoms: C_5  and  N_7
REMARK    2  A    between atoms: C_8  and  C_10
REMARK    3  A    between atoms: C_10  and  O_11
REMARK    4  A    between atoms: O_11  and  C_12
REMARK    5  A    between atoms: C_12  and  C_14
REMARK    6  A    between atoms: C_16  and  N_25
REMARK    7  A    between atoms: C_19  and  N_20
REMARK                            x       y       z     vdW  Elec       q    Type
REMARK                         _______ _______ _______ _____ _____    ______ ____
ROOT
ATOM      1  C   UNL     1      -1.765   3.361   0.155  0.00  0.00    +0.342 C 
ATOM      2  O   UNL     1      -2.905   2.942   0.123  0.00  0.00    -0.245 OA
ENDROOT
BRANCH   1   3
ATOM      3  C   UNL     1      -0.635   2.442  -0.066  0.00  0.00    +0.082 A 
ATOM      4  C   UNL     1       0.670   2.936  -0.139  0.00  0.00    +0.049 A 
ATOM      5  C   UNL     1       1.722   2.071  -0.346  0.00  0.00    +0.127 A 
ATOM      6  C   UNL     1       1.494   0.711  -0.483  0.00  0.00    +0.034 A 
ATOM      7  C   UNL     1       0.211   0.207  -0.413  0.00  0.00    +0.026 A 
ATOM      8  C   UNL     1      -0.864   1.064  -0.210  0.00  0.00    +0.044 A 
BRANCH   8   9
ATOM      9  N   UNL     1      -2.156   0.560  -0.146  0.00  0.00    -0.329 N 
ATOM     10  C   UNL     1      -2.451  -0.298  -1.322  0.00  0.00    +0.105 C 
ATOM     11  C   UNL     1      -3.648  -1.157  -0.842  0.00  0.00    +0.020 C 
ATOM     12  C   UNL     1      -3.307  -1.427   0.642  0.00  0.00    +0.020 C 
ATOM     13  C   UNL     1      -2.328  -0.307   1.040  0.00  0.00    +0.105 C 
ENDBRANCH   8   9
BRANCH   5  14
ATOM     14  N   UNL     1       3.103   2.597  -0.424  0.00  0.00    +0.056 N 
ATOM     15  O   UNL     1       4.036   1.835  -0.607  0.00  0.00    -0.126 OA
ATOM     16  O   UNL     1       3.308   3.792  -0.304  0.00  0.00    -0.126 OA
ENDBRANCH   5  14
ENDBRANCH   1   3
BRANCH   1  17
ATOM     17  O   UNL     1      -1.534   4.667   0.394  0.00  0.00    -0.452 OA
BRANCH  17  18
ATOM     18  C   UNL     1      -2.694   5.514   0.602  0.00  0.00    +0.328 C 
BRANCH  18  20
ATOM     19  N   UNL     1      -3.155   7.899   1.073  0.00  0.00    -0.282 N 
ATOM     20  C   UNL     1      -2.244   6.931   0.852  0.00  0.00    +0.255 C 
ATOM     21  O   UNL     1      -1.061   7.199   0.855  0.00  0.00    -0.272 OA
ATOM     22  H   UNL     1      -4.222   7.642   1.155  0.00  0.00    +0.155 HD
BRANCH  19  27
ATOM     23  C   UNL     1      -1.240  11.004   0.617  0.00  0.00    +0.002 A 
ATOM     24  C   UNL     1      -1.933  11.864   1.450  0.00  0.00    +0.001 A 
ATOM     25  C   UNL     1      -3.030  11.411   2.158  0.00  0.00    +0.016 A 
ATOM     26  C   UNL     1      -3.438  10.096   2.036  0.00  0.00    +0.035 A 
ATOM     27  C   UNL     1      -2.745   9.231   1.200  0.00  0.00    +0.047 A 
ATOM     28  C   UNL     1      -1.640   9.688   0.494  0.00  0.00    +0.024 A 
ATOM     29  I   UNL     1      -5.101   9.410   3.110  0.00  0.00    -0.042 I 
ENDBRANCH  19  27
ENDBRANCH  18  20
ENDBRANCH  17  18
ENDBRANCH   1  17
TORSDOF 7
