REMARK  Name = ZINC13280230
REMARK  9 active torsions:
REMARK  status: ('A' for Active; 'I' for Inactive)
REMARK    1  A    between atoms: C_1  and  C_2
REMARK    2  A    between atoms: C_2  and  C_4
REMARK    3  A    between atoms: C_2  and  S_14
REMARK    4  A    between atoms: C_4  and  C_6
REMARK    5  A    between atoms: S_14  and  C_15
REMARK    6  A    between atoms: C_19  and  C_34
REMARK    7  A    between atoms: N_25  and  C_26
REMARK    8  A    between atoms: C_26  and  C_27
REMARK    9  A    between atoms: C_27  and  C_28
REMARK                            x       y       z     vdW  Elec       q    Type
REMARK                         _______ _______ _______ _____ _____    ______ ____
ROOT
ATOM      1  C   UNL     1       5.432  -3.029  -1.512  0.00  0.00    +0.173 A 
ATOM      2  N   UNL     1       6.537  -3.733  -1.528  0.00  0.00    -0.223 NA
ATOM      3  C   UNL     1       7.754  -3.142  -1.537  0.00  0.00    +0.080 A 
ATOM      4  C   UNL     1       8.931  -3.896  -1.554  0.00  0.00    +0.043 A 
ATOM      5  C   UNL     1      10.159  -3.246  -1.563  0.00  0.00    +0.065 A 
ATOM      6  C   UNL     1      10.221  -1.846  -1.556  0.00  0.00    +0.016 A 
ATOM      7  C   UNL     1       9.079  -1.099  -1.539  0.00  0.00    +0.016 A 
ATOM      8  C   UNL     1       7.835  -1.731  -1.530  0.00  0.00    +0.065 A 
ATOM      9  C   UNL     1       6.579  -0.965  -1.518  0.00  0.00    +0.262 A 
ATOM     10  O   UNL     1       6.582   0.252  -1.517  0.00  0.00    -0.267 OA
ATOM     11  N   UNL     1       5.420  -1.663  -1.505  0.00  0.00    -0.287 N 
ENDROOT
BRANCH   5  12
ATOM     12  C   UNL     1      11.409  -4.037  -1.581  0.00  0.00    +0.387 C 
ATOM     13  O   UNL     1      11.360  -5.250  -1.587  0.00  0.00    -0.241 OA
ATOM     14  O   UNL     1      12.602  -3.411  -1.590  0.00  0.00    -0.241 OA
ENDBRANCH   5  12
BRANCH   1  15
ATOM     15  S   UNL     1       3.891  -3.882  -1.502  0.00  0.00    -0.076 S 
BRANCH  15  17
ATOM     16  C   UNL     1       5.209  -5.870  -2.834  0.00  0.00    +0.028 C 
ATOM     17  C   UNL     1       4.479  -5.594  -1.518  0.00  0.00    +0.122 C 
BRANCH  17  18
ATOM     18  C   UNL     1       3.306  -6.530  -1.388  0.00  0.00    +0.176 C 
ATOM     19  O   UNL     1       2.202  -6.171  -1.740  0.00  0.00    -0.291 OA
BRANCH  18  20
ATOM     20  C   UNL     1       3.499  -7.878  -0.834  0.00  0.00    +0.021 A 
ATOM     21  C   UNL     1       2.411  -8.750  -0.712  0.00  0.00    +0.014 A 
ATOM     22  C   UNL     1       2.597 -10.012  -0.193  0.00  0.00    +0.042 A 
ATOM     23  C   UNL     1       3.859 -10.421   0.209  0.00  0.00    +0.158 A 
ATOM     24  C   UNL     1       4.944  -9.562   0.091  0.00  0.00    +0.159 A 
ATOM     25  C   UNL     1       4.772  -8.297  -0.433  0.00  0.00    +0.052 A 
ATOM     26  F   UNL     1       6.172  -9.967   0.485  0.00  0.00    -0.202 F 
ATOM     27  F   UNL     1       4.035 -11.660   0.718  0.00  0.00    -0.202 F 
ENDBRANCH  18  20
ENDBRANCH  17  18
ENDBRANCH  15  17
ENDBRANCH   1  15
BRANCH  11  28
ATOM     28  C   UNL     1       4.142  -0.948  -1.488  0.00  0.00    +0.132 C 
BRANCH  28  29
ATOM     29  C   UNL     1       3.711  -0.707  -0.039  0.00  0.00    +0.057 C 
BRANCH  29  30
ATOM     30  C   UNL     1       2.396   0.029  -0.022  0.00  0.00    -0.046 A 
ATOM     31  C   UNL     1       1.208  -0.679  -0.014  0.00  0.00    +0.004 A 
ATOM     32  C   UNL     1       0.002  -0.004   0.002  0.00  0.00    +0.000 A 
ATOM     33  C   UNL     1      -0.017   1.378   0.010  0.00  0.00    +0.000 A 
ATOM     34  C   UNL     1       1.171   2.086   0.002  0.00  0.00    +0.000 A 
ATOM     35  C   UNL     1       2.377   1.411  -0.014  0.00  0.00    +0.004 A 
ENDBRANCH  29  30
ENDBRANCH  28  29
ENDBRANCH  11  28
TORSDOF 8
