REMARK  Name = ZINC35057971
REMARK  12 active torsions:
REMARK  status: ('A' for Active; 'I' for Inactive)
REMARK    1  A    between atoms: C_1  and  C_2
REMARK    2  A    between atoms: N_4  and  C_5
REMARK    3  A    between atoms: C_7  and  O_37
REMARK    4  A    between atoms: C_15  and  C_18
REMARK    5  A    between atoms: C_24  and  O_26
REMARK    6  A    between atoms: O_26  and  C_27
REMARK    7  A    between atoms: C_30  and  C_33
REMARK    8  A    between atoms: C_33  and  C_34
REMARK    9  A    between atoms: C_33  and  C_35
REMARK   10  A    between atoms: C_33  and  C_36
REMARK   11  A    between atoms: O_37  and  C_38
REMARK   12  A    between atoms: C_38  and  C_39
REMARK                            x       y       z     vdW  Elec       q    Type
REMARK                         _______ _______ _______ _____ _____    ______ ____
ROOT
ATOM      1  C   UNL     1      -1.136  -2.159   0.001  0.00  0.00    +0.173 C 
ATOM      2  C   UNL     1      -2.374  -2.692   0.728  0.00  0.00    +0.176 C 
ATOM      3  C   UNL     1      -3.630  -2.254  -0.027  0.00  0.00    +0.183 C 
ATOM      4  C   UNL     1      -3.550  -2.733  -1.480  0.00  0.00    +0.179 C 
ATOM      5  C   UNL     1      -4.760  -2.180  -2.245  0.00  0.00    +0.197 C 
ATOM      6  O   UNL     1      -4.791  -0.757  -2.091  0.00  0.00    -0.342 OA
ATOM      7  C   UNL     1      -4.859  -0.323  -0.731  0.00  0.00    +0.319 C 
ATOM      8  O   UNL     1      -3.731  -0.828  -0.011  0.00  0.00    -0.336 OA
ATOM      9  O   UNL     1      -2.344  -2.250  -2.076  0.00  0.00    -0.332 OA
ATOM     10  C   UNL     1      -1.148  -2.663  -1.444  0.00  0.00    +0.331 C 
ENDROOT
BRANCH   1  14
ATOM     11  C   UNL     1      -0.651   1.488   1.059  0.00  0.00    +0.109 C 
ATOM     12  C   UNL     1      -0.630  -0.018   1.051  0.00  0.00    +0.210 C 
ATOM     13  O   UNL     1      -0.141  -0.623   1.981  0.00  0.00    -0.276 OA
ATOM     14  N   UNL     1      -1.156  -0.694   0.009  0.00  0.00    -0.304 N 
ATOM     15  H   UNL     1      -1.547  -0.210  -0.735  0.00  0.00    +0.149 HD
ENDBRANCH   1  14
BRANCH   7  16
ATOM     16  C   UNL     1      -4.851   1.183  -0.684  0.00  0.00    +0.161 A 
ATOM     17  C   UNL     1      -5.765   1.992  -1.248  0.00  0.00    +0.050 A 
ATOM     18  C   UNL     1      -5.372   3.319  -0.958  0.00  0.00    +0.041 A 
ATOM     19  C   UNL     1      -4.241   3.241  -0.234  0.00  0.00    +0.195 A 
ATOM     20  O   UNL     1      -3.934   1.944  -0.066  0.00  0.00    -0.463 OA
ENDBRANCH   7  16
BRANCH  10  21
ATOM     21  O   UNL     1      -1.087  -4.091  -1.452  0.00  0.00    -0.462 OA
BRANCH  21  22
ATOM     22  C   UNL     1      -0.878  -4.694  -2.652  0.00  0.00    +0.124 A 
ATOM     23  C   UNL     1      -0.729  -3.926  -3.798  0.00  0.00    +0.046 A 
ATOM     24  C   UNL     1      -0.517  -4.541  -5.017  0.00  0.00    +0.008 A 
ATOM     25  C   UNL     1      -0.453  -5.920  -5.095  0.00  0.00    -0.042 A 
ATOM     26  C   UNL     1      -0.602  -6.687  -3.954  0.00  0.00    +0.008 A 
ATOM     27  C   UNL     1      -0.808  -6.077  -2.732  0.00  0.00    +0.046 A 
BRANCH  25  28
ATOM     28  C   UNL     1      -0.222  -6.588  -6.426  0.00  0.00    -0.013 C 
ATOM     29  C   UNL     1       1.115  -6.122  -7.005  0.00  0.00    +0.015 C 
ATOM     30  C   UNL     1      -0.195  -8.106  -6.237  0.00  0.00    +0.015 C 
ATOM     31  C   UNL     1      -1.352  -6.214  -7.387  0.00  0.00    +0.015 C 
ENDBRANCH  25  28
ENDBRANCH  21  22
ENDBRANCH  10  21
BRANCH   2  32
ATOM     32  O   UNL     1      -2.320  -4.119   0.778  0.00  0.00    -0.361 OA
BRANCH  32  33
ATOM     33  C   UNL     1      -1.659  -4.635   1.935  0.00  0.00    +0.285 C 
BRANCH  33  34
ATOM     34  C   UNL     1      -1.661  -6.141   1.884  0.00  0.00    +0.381 C 
ATOM     35  O   UNL     1      -2.180  -6.719   0.944  0.00  0.00    -0.244 OA
ATOM     36  O   UNL     1      -1.143  -6.782   2.783  0.00  0.00    -0.244 OA
ENDBRANCH  33  34
ENDBRANCH  32  33
ENDBRANCH   2  32
TORSDOF 8
