REMARK  Name = ZINC00206044
REMARK  4 active torsions:
REMARK  status: ('A' for Active; 'I' for Inactive)
REMARK    1  A    between atoms: C_6  and  C_7
REMARK    2  A    between atoms: C_12  and  N_21
REMARK    3  A    between atoms: C_16  and  N_20
REMARK    4  A    between atoms: C_17  and  C_18
REMARK                            x       y       z     vdW  Elec       q    Type
REMARK                         _______ _______ _______ _____ _____    ______ ____
ROOT
ATOM      1  C   UNL     1      -1.293  -0.775   0.010  0.00  0.00    +0.098 C 
ATOM      2  C   UNL     1      -1.355  -1.633   1.246  0.00  0.00    +0.008 A 
ATOM      3  C   UNL     1      -1.651  -1.049   2.465  0.00  0.00    +0.010 A 
ATOM      4  C   UNL     1      -1.712  -1.818   3.609  0.00  0.00    +0.023 A 
ATOM      5  C   UNL     1      -1.477  -3.186   3.539  0.00  0.00    +0.028 A 
ATOM      6  C   UNL     1      -1.181  -3.774   2.318  0.00  0.00    +0.069 A 
ATOM      7  C   UNL     1      -1.120  -2.997   1.169  0.00  0.00    +0.136 A 
ATOM      8  O   UNL     1      -0.830  -3.587  -0.017  0.00  0.00    -0.441 OA
ATOM      9  C   UNL     1      -1.138  -2.965  -1.168  0.00  0.00    +0.199 C 
ATOM     10  C   UNL     1      -1.369  -1.632  -1.222  0.00  0.00    +0.098 C 
ENDROOT
BRANCH   1  16
ATOM     11  C   UNL     1      -0.017   1.378   0.010  0.00  0.00    +0.006 A 
ATOM     12  C   UNL     1       1.171   2.086   0.002  0.00  0.00    +0.022 A 
ATOM     13  C   UNL     1       2.378   1.412  -0.013  0.00  0.00    +0.059 A 
ATOM     14  C   UNL     1       2.397   0.027  -0.021  0.00  0.00    +0.060 A 
ATOM     15  C   UNL     1       1.208  -0.680  -0.013  0.00  0.00    +0.026 A 
ATOM     16  C   UNL     1       0.002  -0.004   0.002  0.00  0.00    -0.033 A 
ATOM     17 CL   UNL     1       3.912  -0.821  -0.039  0.00  0.00    -0.082 Cl
ATOM     18 CL   UNL     1       3.869   2.301  -0.022  0.00  0.00    -0.082 Cl
ENDBRANCH   1  16
BRANCH   9  19
ATOM     19  N   UNL     1      -1.219  -3.703  -2.322  0.00  0.00    -0.328 N 
ATOM     20  H   UNL     1      -1.440  -3.268  -3.161  0.00  0.00    +0.145 HD
ATOM     21  H   UNL     1      -1.056  -4.659  -2.300  0.00  0.00    +0.145 HD
ENDBRANCH   9  19
BRANCH   5  22
ATOM     22  N   UNL     1      -1.539  -3.967   4.695  0.00  0.00    -0.358 N 
ATOM     23  H   UNL     1      -1.375  -4.922   4.644  0.00  0.00    +0.142 HD
ATOM     24  H   UNL     1      -1.746  -3.555   5.548  0.00  0.00    +0.142 HD
ENDBRANCH   5  22
BRANCH  10  25
ATOM     25  C   UNL     1      -1.694  -1.027  -2.479  0.00  0.00    +0.101 C 
ATOM     26  N   UNL     1      -1.951  -0.547  -3.476  0.00  0.00    -0.191 NA
ENDBRANCH  10  25
TORSDOF 4
