REMARK  Name = ZINC58927357
REMARK  10 active torsions:
REMARK  status: ('A' for Active; 'I' for Inactive)
REMARK    1  A    between atoms: C_1  and  C_2
REMARK    2  A    between atoms: C_6  and  C_37
REMARK    3  A    between atoms: C_7  and  N_8
REMARK    4  A    between atoms: C_9  and  C_36
REMARK    5  A    between atoms: C_11  and  C_14
REMARK    6  A    between atoms: C_12  and  C_13
REMARK    7  A    between atoms: N_15  and  N_16
REMARK    8  A    between atoms: C_17  and  C_19
REMARK    9  A    between atoms: C_22  and  C_25
REMARK   10  A    between atoms: C_25  and  N_26
REMARK                            x       y       z     vdW  Elec       q    Type
REMARK                         _______ _______ _______ _____ _____    ______ ____
ROOT
ATOM      1  N   UNL     1      -3.686   2.022   6.165  0.00  0.00    -0.203 N 
ATOM      2  C   UNL     1      -5.025   1.923   6.051  0.00  0.00    +0.263 C 
ATOM      3  O   UNL     1      -5.514   1.364   5.088  0.00  0.00    -0.268 OA
ATOM      4  H   UNL     1      -3.297   2.469   6.933  0.00  0.00    +0.178 HD
ENDROOT
BRANCH   2   5
ATOM      5  C   UNL     1      -5.901   2.495   7.095  0.00  0.00    +0.038 A 
ATOM      6  C   UNL     1      -5.343   3.143   8.199  0.00  0.00    +0.013 A 
ATOM      7  C   UNL     1      -6.166   3.674   9.171  0.00  0.00    +0.002 A 
ATOM      8  C   UNL     1      -7.540   3.566   9.053  0.00  0.00    -0.064 A 
ATOM      9  C   UNL     1      -8.099   2.924   7.962  0.00  0.00    +0.002 A 
ATOM     10  C   UNL     1      -7.288   2.394   6.980  0.00  0.00    +0.013 A 
BRANCH   8  11
ATOM     11  C   UNL     1      -8.433   4.148  10.119  0.00  0.00    -0.043 C 
BRANCH  11  12
ATOM     12  N   UNL     1      -8.759   5.539   9.778  0.00  0.00    +0.385 N 
ATOM     13  C   UNL     1      -9.540   6.143  10.869  0.00  0.00    -0.073 C 
ATOM     14  C   UNL     1      -9.604   7.654  10.643  0.00  0.00    +0.017 C 
ATOM     15  C   UNL     1     -10.060   7.941   9.235  0.00  0.00    -0.048 A 
ATOM     16  C   UNL     1     -10.514   9.214   8.929  0.00  0.00    +0.004 A 
ATOM     17  C   UNL     1     -10.936   9.514   7.649  0.00  0.00    +0.000 A 
ATOM     18  C   UNL     1     -10.905   8.540   6.669  0.00  0.00    +0.000 A 
ATOM     19  C   UNL     1     -10.454   7.272   6.973  0.00  0.00    +0.002 A 
ATOM     20  C   UNL     1     -10.031   6.968   8.259  0.00  0.00    -0.061 A 
ATOM     21  C   UNL     1      -9.555   5.569   8.548  0.00  0.00    -0.042 C 
ATOM     22  H   UNL     1      -7.907   6.062   9.641  0.00  0.00    -0.081 HD
ENDBRANCH  11  12
ENDBRANCH   8  11
ENDBRANCH   2   5
BRANCH   1  24
ATOM     23  C   UNL     1      -1.567   1.576   5.285  0.00  0.00    +0.140 C 
ATOM     24  N   UNL     1      -2.857   1.480   5.175  0.00  0.00    -0.187 NA
BRANCH  23  28
ATOM     25  N   UNL     1       0.025  -0.013   2.419  0.00  0.00    -0.317 N 
ATOM     26  C   UNL     1       1.144   0.394   3.087  0.00  0.00    +0.022 A 
ATOM     27  C   UNL     1       0.772   1.026   4.215  0.00  0.00    +0.032 A 
ATOM     28  C   UNL     1      -0.694   1.006   4.243  0.00  0.00    +0.016 A 
ATOM     29  C   UNL     1      -1.089   0.356   3.108  0.00  0.00    +0.030 A 
ATOM     30  C   UNL     1      -2.513   0.092   2.692  0.00  0.00    +0.064 C 
ATOM     31  C   UNL     1       2.564   0.172   2.634  0.00  0.00    +0.064 C 
BRANCH  25  38
ATOM     32  C   UNL     1      -0.018   1.503   0.010  0.00  0.00    +0.046 C 
ATOM     33  C   UNL     1       0.002  -0.004   0.002  0.00  0.00    -0.026 A 
ATOM     34  C   UNL     1       0.006  -0.689  -1.198  0.00  0.00    +0.005 A 
ATOM     35  C   UNL     1       0.025  -2.071  -1.206  0.00  0.00    +0.001 A 
ATOM     36  C   UNL     1       0.040  -2.773  -0.014  0.00  0.00    +0.005 A 
ATOM     37  C   UNL     1       0.036  -2.094   1.188  0.00  0.00    -0.026 A 
ATOM     38  C   UNL     1       0.023  -0.705   1.200  0.00  0.00    +0.052 A 
ATOM     39  C   UNL     1       0.051  -2.859   2.487  0.00  0.00    +0.046 C 
ENDBRANCH  25  38
ENDBRANCH  23  28
ENDBRANCH   1  24
TORSDOF 6
