REMARK  Name = ZINC04402281
REMARK  3 active torsions:
REMARK  status: ('A' for Active; 'I' for Inactive)
REMARK    1  A    between atoms: C_14  and  C_15
REMARK    2  A    between atoms: N_16  and  N_17
REMARK    3  A    between atoms: C_18  and  C_20
REMARK                            x       y       z     vdW  Elec       q    Type
REMARK                         _______ _______ _______ _____ _____    ______ ____
ROOT
ATOM      1  N   UNL     1      -1.669   5.969   1.479  0.00  0.00    -0.206 N 
ATOM      2  C   UNL     1      -0.339   5.985   1.257  0.00  0.00    +0.244 C 
ATOM      3  O   UNL     1       0.403   6.511   2.059  0.00  0.00    -0.273 OA
ATOM      4  H   UNL     1      -2.262   5.549   0.837  0.00  0.00    +0.177 HD
ENDROOT
BRANCH   2   5
ATOM      5  C   UNL     1       0.225   5.349   0.013  0.00  0.00    +0.138 C 
ATOM      6  C   UNL     1      -0.051   3.866   0.017  0.00  0.00    -0.023 A 
ATOM      7  C   UNL     1      -1.224   3.142   0.034  0.00  0.00    +0.005 A 
ATOM      8  C   UNL     1      -1.185   1.759   0.028  0.00  0.00    +0.000 A 
ATOM      9  C   UNL     1       0.030   1.099   0.015  0.00  0.00    +0.001 A 
ATOM     10  C   UNL     1       1.210   1.815  -0.002  0.00  0.00    +0.009 A 
ATOM     11  C   UNL     1       1.178   3.211  -0.002  0.00  0.00    -0.013 A 
ATOM     12  C   UNL     1       2.272   4.213  -0.018  0.00  0.00    -0.013 A 
ATOM     13  C   UNL     1       1.727   5.495  -0.010  0.00  0.00    -0.023 A 
ATOM     14  C   UNL     1       2.550   6.601  -0.022  0.00  0.00    +0.005 A 
ATOM     15  C   UNL     1       3.924   6.441  -0.043  0.00  0.00    +0.000 A 
ATOM     16  C   UNL     1       4.475   5.173  -0.051  0.00  0.00    +0.001 A 
ATOM     17  C   UNL     1       3.659   4.060  -0.038  0.00  0.00    +0.009 A 
ENDBRANCH   2   5
BRANCH   1  19
ATOM     18  C   UNL     1      -3.477   6.545   2.849  0.00  0.00    +0.139 C 
ATOM     19  N   UNL     1      -2.193   6.561   2.635  0.00  0.00    -0.188 NA
BRANCH  18  33
ATOM     20  C   UNL     1      -8.172   7.465   4.634  0.00  0.00    +0.001 A 
ATOM     21  C   UNL     1      -7.655   6.875   3.482  0.00  0.00    +0.001 A 
ATOM     22  C   UNL     1      -6.315   6.768   3.275  0.00  0.00    +0.009 A 
ATOM     23  C   UNL     1      -5.421   7.264   4.239  0.00  0.00    -0.009 A 
ATOM     24  C   UNL     1      -5.962   7.879   5.453  0.00  0.00    -0.017 A 
ATOM     25  C   UNL     1      -7.362   7.960   5.606  0.00  0.00    +0.008 A 
ATOM     26  C   UNL     1      -5.103   8.378   6.433  0.00  0.00    +0.017 A 
ATOM     27  C   UNL     1      -3.721   8.287   6.261  0.00  0.00    -0.017 A 
ATOM     28  C   UNL     1      -2.833   8.784   7.239  0.00  0.00    +0.008 A 
ATOM     29  C   UNL     1      -1.493   8.680   7.042  0.00  0.00    +0.001 A 
ATOM     30  C   UNL     1      -0.966   8.092   5.893  0.00  0.00    +0.001 A 
ATOM     31  C   UNL     1      -1.768   7.594   4.914  0.00  0.00    +0.009 A 
ATOM     32  C   UNL     1      -3.165   7.670   5.055  0.00  0.00    -0.009 A 
ATOM     33  C   UNL     1      -4.026   7.164   4.060  0.00  0.00    +0.010 A 
ENDBRANCH  18  33
ENDBRANCH   1  19
TORSDOF 3
