REMARK  Name = ZINC38965980
REMARK  8 active torsions:
REMARK  status: ('A' for Active; 'I' for Inactive)
REMARK    1  A    between atoms: C_1  and  C_2
REMARK    2  A    between atoms: C_2  and  C_3
REMARK    3  A    between atoms: C_8  and  N_9
REMARK    4  A    between atoms: N_9  and  C_10
REMARK    5  A    between atoms: N_13  and  S_14
REMARK    6  A    between atoms: S_14  and  C_17
REMARK    7  A    between atoms: C_19  and  C_24
REMARK    8  A    between atoms: C_22  and  C_23
REMARK                            x       y       z     vdW  Elec       q    Type
REMARK                         _______ _______ _______ _____ _____    ______ ____
ROOT
ATOM      1  C   UNL     1       4.280  -0.493  -0.092  0.00  0.00    +0.237 C 
ATOM      2  C   UNL     1       4.927   0.734   0.510  0.00  0.00    +0.192 C 
ATOM      3  N   UNL     1       4.746   1.905  -0.026  0.00  0.00    -0.110 NA
ATOM      4  N   UNL     1       5.691   0.597   1.605  0.00  0.00    -0.226 NA
ATOM      5  C   UNL     1       5.889  -0.578   2.166  0.00  0.00    +0.089 A 
ATOM      6  C   UNL     1       6.702  -0.686   3.323  0.00  0.00    +0.030 A 
ATOM      7  C   UNL     1       6.909  -1.889   3.902  0.00  0.00    +0.002 A 
ATOM      8  C   UNL     1       6.346  -3.077   3.408  0.00  0.00    +0.002 A 
ATOM      9  C   UNL     1       5.556  -3.087   2.311  0.00  0.00    +0.027 A 
ATOM     10  C   UNL     1       5.282  -1.817   1.622  0.00  0.00    +0.063 A 
ATOM     11  N   UNL     1       4.523  -1.788   0.563  0.00  0.00    -0.359 N 
ATOM     12  H   UNL     1       4.129  -2.602   0.213  0.00  0.00    +0.162 HD
ENDROOT
BRANCH   3  13
ATOM     13  S   UNL     1       5.461   3.241   0.643  0.00  0.00    +0.101 S 
ATOM     14  O   UNL     1       4.861   3.427   1.918  0.00  0.00    -0.146 OA
ATOM     15  O   UNL     1       6.863   3.077   0.477  0.00  0.00    -0.146 OA
BRANCH  13  16
ATOM     16  C   UNL     1       4.996   4.628  -0.339  0.00  0.00    +0.116 A 
ATOM     17  C   UNL     1       4.216   5.631   0.206  0.00  0.00    +0.032 A 
ATOM     18  C   UNL     1       3.851   6.718  -0.565  0.00  0.00    -0.049 A 
ATOM     19  C   UNL     1       4.267   6.804  -1.881  0.00  0.00    +0.004 A 
ATOM     20  C   UNL     1       5.047   5.801  -2.425  0.00  0.00    +0.005 A 
ATOM     21  C   UNL     1       5.415   4.715  -1.653  0.00  0.00    -0.024 A 
ATOM     22  C   UNL     1       6.271   3.625  -2.246  0.00  0.00    +0.046 C 
ATOM     23  C   UNL     1       3.001   7.811   0.029  0.00  0.00    +0.044 C 
ENDBRANCH  13  16
ENDBRANCH   3  13
BRANCH   1  24
ATOM     24  N   UNL     1       2.832  -0.269  -0.115  0.00  0.00    -0.318 N 
ATOM     25  H   UNL     1       2.372   0.015   0.691  0.00  0.00    +0.148 HD
BRANCH  24  31
ATOM     26  C   UNL     1       0.767  -0.131  -1.356  0.00  0.00    -0.027 A 
ATOM     27  C   UNL     1       0.061  -0.320  -2.528  0.00  0.00    +0.005 A 
ATOM     28  C   UNL     1       0.693  -0.846  -3.640  0.00  0.00    +0.000 A 
ATOM     29  C   UNL     1       2.033  -1.183  -3.583  0.00  0.00    +0.002 A 
ATOM     30  C   UNL     1       2.744  -0.997  -2.415  0.00  0.00    +0.023 A 
ATOM     31  C   UNL     1       2.114  -0.464  -1.297  0.00  0.00    +0.032 A 
BRANCH  26  33
ATOM     32  C   UNL     1       0.298   1.955  -0.099  0.00  0.00    +0.009 C 
ATOM     33  C   UNL     1       0.077   0.441  -0.144  0.00  0.00    +0.033 C 
ENDBRANCH  26  33
ENDBRANCH  24  31
ENDBRANCH   1  24
TORSDOF 5
