REMARK  Name = ZINC35426969
REMARK  4 active torsions:
REMARK  status: ('A' for Active; 'I' for Inactive)
REMARK    1  A    between atoms: C_1  and  C_2
REMARK    2  A    between atoms: C_2  and  C_3
REMARK    3  A    between atoms: N_16  and  C_19
REMARK    4  A    between atoms: N_24  and  C_25
REMARK                            x       y       z     vdW  Elec       q    Type
REMARK                         _______ _______ _______ _____ _____    ______ ____
ROOT
ATOM      1  C   UNL     1       0.729  -0.507  -1.267  0.00  0.00    +0.125 C 
ATOM      2  C   UNL     1       0.882  -1.997  -1.199  0.00  0.00    +0.045 A 
ATOM      3  C   UNL     1       1.976  -2.751  -1.383  0.00  0.00    +0.025 A 
ATOM      4  C   UNL     1       1.607  -4.094  -1.155  0.00  0.00    +0.020 A 
ATOM      5  C   UNL     1       0.288  -4.109  -0.853  0.00  0.00    +0.092 A 
ATOM      6  N   UNL     1      -0.168  -2.837  -0.908  0.00  0.00    -0.312 N 
ATOM      7  C   UNL     1      -1.447  -2.312  -0.768  0.00  0.00    +0.090 A 
ATOM      8  C   UNL     1      -1.989  -1.390  -1.610  0.00  0.00    +0.004 A 
ATOM      9  C   UNL     1      -3.284  -0.936  -1.300  0.00  0.00    -0.034 A 
ATOM     10  C   UNL     1      -3.900  -1.468  -0.209  0.00  0.00    -0.021 A 
ATOM     11  S   UNL     1      -2.709  -2.615   0.431  0.00  0.00    -0.077 S 
ATOM     12  C   UNL     1      -5.261  -1.134   0.304  0.00  0.00    -0.036 C 
ATOM     13  N   UNL     1      -5.696   0.127  -0.327  0.00  0.00    +0.381 N 
ATOM     14  C   UNL     1      -5.508   0.035  -1.780  0.00  0.00    -0.074 C 
ATOM     15  C   UNL     1      -4.020   0.112  -2.132  0.00  0.00    +0.018 C 
ATOM     16  C   UNL     1      -7.116   0.359  -0.030  0.00  0.00    -0.096 C 
ATOM     17  C   UNL     1      -1.212  -0.915  -2.818  0.00  0.00    +0.148 C 
ATOM     18  N   UNL     1      -0.051  -0.087  -2.456  0.00  0.00    -0.272 N 
ATOM     19  C   UNL     1       0.287   1.004  -3.173  0.00  0.00    +0.307 C 
ATOM     20  O   UNL     1       1.251   1.669  -2.850  0.00  0.00    -0.252 OA
ATOM     21  N   UNL     1      -0.445   1.356  -4.249  0.00  0.00    -0.269 N 
ATOM     22  H   UNL     1      -1.173   0.789  -4.547  0.00  0.00    +0.156 HD
ATOM     23  H   UNL     1      -5.147   0.892   0.036  0.00  0.00    -0.082 HD
ENDROOT
BRANCH  21  24
ATOM     24  C   UNL     1      -0.154   2.540  -4.936  0.00  0.00    +0.038 A 
ATOM     25  C   UNL     1       1.161   2.964  -5.051  0.00  0.00    +0.023 A 
ATOM     26  C   UNL     1       1.446   4.133  -5.729  0.00  0.00    +0.002 A 
ATOM     27  C   UNL     1       0.421   4.872  -6.284  0.00  0.00    +0.004 A 
ATOM     28  C   UNL     1      -0.898   4.452  -6.171  0.00  0.00    -0.042 A 
ATOM     29  C   UNL     1      -1.188   3.283  -5.506  0.00  0.00    -0.023 A 
ATOM     30  C   UNL     1      -2.591   2.756  -5.364  0.00  0.00    +0.037 C 
ATOM     31  C   UNL     1      -3.610   3.859  -5.644  0.00  0.00    +0.005 C 
ATOM     32  C   UNL     1      -3.257   4.515  -6.984  0.00  0.00    +0.005 C 
ATOM     33  C   UNL     1      -1.964   5.314  -6.795  0.00  0.00    +0.035 C 
ENDBRANCH  21  24
BRANCH   1  35
ATOM     34  C   UNL     1      -0.013   1.508   0.011  0.00  0.00    +0.006 C 
ATOM     35  C   UNL     1       0.013  -0.021  -0.005  0.00  0.00    +0.025 C 
ENDBRANCH   1  35
TORSDOF 2
