REMARK  Name = ZINC11061779
REMARK  7 active torsions:
REMARK  status: ('A' for Active; 'I' for Inactive)
REMARK    1  A    between atoms: C_1  and  C_2
REMARK    2  A    between atoms: C_16  and  C_17
REMARK    3  A    between atoms: C_17  and  O_19
REMARK    4  A    between atoms: O_19  and  C_20
REMARK    5  A    between atoms: C_20  and  C_22
REMARK    6  A    between atoms: C_20  and  C_23
REMARK    7  A    between atoms: C_23  and  C_25
REMARK                            x       y       z     vdW  Elec       q    Type
REMARK                         _______ _______ _______ _____ _____    ______ ____
ROOT
ATOM      1  C   UNL     1       3.124   5.724  -6.397  0.00  0.00    +0.347 C 
ATOM      2  O   UNL     1       2.926   6.884  -6.090  0.00  0.00    -0.244 OA
ENDROOT
BRANCH   1  18
ATOM      3  C   UNL     1       2.188   6.121  -3.534  0.00  0.00    +0.046 C 
ATOM      4  C   UNL     1       2.490   4.766  -4.120  0.00  0.00    -0.015 A 
ATOM      5  C   UNL     1       2.344   3.618  -3.340  0.00  0.00    +0.076 A 
ATOM      6  C   UNL     1       2.653   2.395  -3.980  0.00  0.00    +0.116 A 
ATOM      7  N   UNL     1       2.557   1.231  -3.350  0.00  0.00    -0.226 NA
ATOM      8  C   UNL     1       2.164   1.152  -2.110  0.00  0.00    +0.114 A 
ATOM      9  N   UNL     1       1.835   2.264  -1.391  0.00  0.00    -0.296 N 
ATOM     10  C   UNL     1       1.906   3.493  -1.931  0.00  0.00    +0.263 A 
ATOM     11  O   UNL     1       1.616   4.479  -1.277  0.00  0.00    -0.267 OA
ATOM     12  C   UNL     1       1.397   2.086  -0.000  0.00  0.00    +0.126 C 
ATOM     13  C   UNL     1      -0.018   1.515   0.010  0.00  0.00    +0.022 C 
ATOM     14  C   UNL     1       0.002  -0.004   0.002  0.00  0.00    +0.002 C 
ATOM     15  C   UNL     1       0.583  -0.562  -1.285  0.00  0.00    +0.008 C 
ATOM     16  C   UNL     1       2.058  -0.193  -1.429  0.00  0.00    +0.074 C 
ATOM     17  S   UNL     1       3.125   2.899  -5.615  0.00  0.00    -0.062 S 
ATOM     18  C   UNL     1       2.908   4.659  -5.415  0.00  0.00    +0.102 A 
ENDBRANCH   1  18
BRANCH   1  19
ATOM     19  O   UNL     1       3.544   5.419  -7.642  0.00  0.00    -0.450 OA
BRANCH  19  20
ATOM     20  C   UNL     1       3.737   6.525  -8.562  0.00  0.00    +0.244 C 
ATOM     21  C   UNL     1       2.434   6.793  -9.318  0.00  0.00    +0.061 C 
BRANCH  20  22
ATOM     22  C   UNL     1       4.825   6.176  -9.545  0.00  0.00    +0.205 C 
ATOM     23  O   UNL     1       5.130   5.015  -9.726  0.00  0.00    -0.288 OA
BRANCH  22  24
ATOM     24  C   UNL     1       5.492   7.204 -10.258  0.00  0.00    +0.046 A 
ATOM     25  C   UNL     1       5.258   8.559 -10.169  0.00  0.00    +0.095 A 
ATOM     26  N   UNL     1       6.091   9.218 -10.998  0.00  0.00    -0.360 N 
ATOM     27  H   UNL     1       6.114  10.181 -11.105  0.00  0.00    +0.165 HD
ATOM     28  C   UNL     1       6.904   8.333 -11.676  0.00  0.00    +0.047 A 
ATOM     29  C   UNL     1       6.572   7.037 -11.251  0.00  0.00    +0.010 A 
ATOM     30  C   UNL     1       7.241   5.936 -11.775  0.00  0.00    +0.011 A 
ATOM     31  C   UNL     1       8.232   6.123 -12.714  0.00  0.00    +0.001 A 
ATOM     32  C   UNL     1       8.562   7.402 -13.137  0.00  0.00    +0.002 A 
ATOM     33  C   UNL     1       7.907   8.502 -12.626  0.00  0.00    +0.026 A 
ENDBRANCH  22  24
ENDBRANCH  20  22
ENDBRANCH  19  20
ENDBRANCH   1  19
TORSDOF 5
