REMARK  Name = ZINC15865175
REMARK  3 active torsions:
REMARK  status: ('A' for Active; 'I' for Inactive)
REMARK    1  A    between atoms: C_6  and  N_7
REMARK    2  A    between atoms: C_10  and  C_22
REMARK    3  A    between atoms: C_12  and  C_14
REMARK                            x       y       z     vdW  Elec       q    Type
REMARK                         _______ _______ _______ _____ _____    ______ ____
ROOT
ATOM      1  N   UNL     1       3.526  -5.021  -0.058  0.00  0.00    -0.245 N 
ATOM      2  C   UNL     1       2.490  -4.104  -0.043  0.00  0.00    +0.170 A 
ATOM      3  C   UNL     1       1.295  -4.847  -0.035  0.00  0.00    +0.117 A 
ATOM      4  C   UNL     1       0.081  -4.159  -0.019  0.00  0.00    +0.154 A 
ATOM      5  N   UNL     1       0.104  -2.825  -0.008  0.00  0.00    -0.220 NA
ATOM      6  C   UNL     1       1.250  -2.164  -0.021  0.00  0.00    +0.166 A 
ATOM      7  N   UNL     1       2.425  -2.784  -0.035  0.00  0.00    -0.207 NA
ATOM      8  N   UNL     1       1.653  -6.183  -0.045  0.00  0.00    -0.303 N 
ATOM      9  H   UNL     1       1.041  -6.935  -0.043  0.00  0.00    +0.171 HD
ATOM     10  C   UNL     1       2.998  -6.260  -0.059  0.00  0.00    +0.333 A 
ATOM     11  O   UNL     1       3.639  -7.294  -0.071  0.00  0.00    -0.246 OA
ENDROOT
BRANCH   6  12
ATOM     12  C   UNL     1       1.222  -0.682  -0.013  0.00  0.00    +0.055 A 
ATOM     13  C   UNL     1       2.414   0.040  -0.021  0.00  0.00    +0.029 A 
ATOM     14  C   UNL     1       2.382   1.421  -0.013  0.00  0.00    +0.019 A 
ATOM     15  C   UNL     1       1.169   2.088   0.002  0.00  0.00    +0.018 A 
ATOM     16  C   UNL     1      -0.017   1.379   0.010  0.00  0.00    +0.040 A 
ATOM     17  C   UNL     1       0.002  -0.004   0.002  0.00  0.00    +0.134 A 
ATOM     18  F   UNL     1      -1.158  -0.697   0.010  0.00  0.00    -0.205 F 
ATOM     19 BR   UNL     1       3.999   2.401  -0.022  0.00  0.00    -0.050 Br
ENDBRANCH   6  12
BRANCH   1  25
ATOM     20  C   UNL     1       5.307  -3.387  -0.072  0.00  0.00    +0.029 A 
ATOM     21  C   UNL     1       6.655  -3.085  -0.080  0.00  0.00    +0.040 A 
ATOM     22  C   UNL     1       7.593  -4.104  -0.094  0.00  0.00    +0.124 A 
ATOM     23  C   UNL     1       7.183  -5.426  -0.096  0.00  0.00    +0.040 A 
ATOM     24  C   UNL     1       5.836  -5.732  -0.084  0.00  0.00    +0.029 A 
ATOM     25  C   UNL     1       4.894  -4.713  -0.069  0.00  0.00    +0.053 A 
ATOM     26  F   UNL     1       8.911  -3.806  -0.106  0.00  0.00    -0.205 F 
ENDBRANCH   1  25
BRANCH   4  27
ATOM     27  C   UNL     1      -1.205  -4.894  -0.010  0.00  0.00    +0.262 C 
ATOM     28  O   UNL     1      -1.210  -6.109  -0.017  0.00  0.00    -0.269 OA
ATOM     29  N   UNL     1      -2.369  -4.215   0.005  0.00  0.00    -0.324 N 
ATOM     30  H   UNL     1      -2.365  -3.245   0.010  0.00  0.00    +0.145 HD
ATOM     31  H   UNL     1      -3.211  -4.696   0.011  0.00  0.00    +0.145 HD
ENDBRANCH   4  27
TORSDOF 3
