REMARK  Name = ZINC01376230
REMARK  9 active torsions:
REMARK  status: ('A' for Active; 'I' for Inactive)
REMARK    1  A    between atoms: C_1  and  C_2
REMARK    2  A    between atoms: C_7  and  N_8
REMARK    3  A    between atoms: N_8  and  C_9
REMARK    4  A    between atoms: C_9  and  C_11
REMARK    5  A    between atoms: C_9  and  C_18
REMARK    6  A    between atoms: N_20  and  C_21
REMARK    7  A    between atoms: C_21  and  C_22
REMARK    8  A    between atoms: C_27  and  C_29
REMARK    9  A    between atoms: C_29  and  N_30
REMARK                            x       y       z     vdW  Elec       q    Type
REMARK                         _______ _______ _______ _____ _____    ______ ____
ROOT
ATOM      1  N   UNL     1      -5.154   3.490  -1.282  0.00  0.00    -0.253 N 
ATOM      2  C   UNL     1      -3.874   3.398  -0.870  0.00  0.00    +0.242 C 
ATOM      3  O   UNL     1      -2.978   3.338  -1.685  0.00  0.00    -0.273 OA
ENDROOT
BRANCH   1  10
ATOM      4  C   UNL     1      -6.182   0.963  -0.472  0.00  0.00    +0.045 C 
ATOM      5  C   UNL     1      -6.725   2.257   0.077  0.00  0.00    -0.029 A 
ATOM      6  C   UNL     1      -7.747   2.239   1.006  0.00  0.00    +0.005 A 
ATOM      7  C   UNL     1      -8.249   3.426   1.507  0.00  0.00    +0.000 A 
ATOM      8  C   UNL     1      -7.726   4.634   1.084  0.00  0.00    +0.002 A 
ATOM      9  C   UNL     1      -6.700   4.659   0.160  0.00  0.00    +0.024 A 
ATOM     10  C   UNL     1      -6.194   3.468  -0.345  0.00  0.00    +0.040 A 
ENDBRANCH   1  10
BRANCH   1  11
ATOM     11  C   UNL     1      -5.458   3.612  -2.710  0.00  0.00    +0.200 C 
BRANCH  11  12
ATOM     12  C   UNL     1      -4.963   4.942  -3.216  0.00  0.00    +0.017 A 
ATOM     13  C   UNL     1      -4.013   5.645  -2.499  0.00  0.00    +0.009 A 
ATOM     14  C   UNL     1      -3.558   6.865  -2.964  0.00  0.00    +0.001 A 
ATOM     15  C   UNL     1      -4.053   7.383  -4.146  0.00  0.00    +0.003 A 
ATOM     16  C   UNL     1      -5.003   6.683  -4.864  0.00  0.00    +0.039 A 
ATOM     17  C   UNL     1      -5.455   5.458  -4.403  0.00  0.00    +0.129 A 
ATOM     18  F   UNL     1      -6.380   4.770  -5.107  0.00  0.00    -0.205 F 
ENDBRANCH  11  12
BRANCH  11  19
ATOM     19  C   UNL     1      -4.775   2.501  -3.465  0.00  0.00    +0.239 C 
ATOM     20  O   UNL     1      -4.101   1.687  -2.869  0.00  0.00    -0.273 OA
ATOM     21  N   UNL     1      -4.913   2.412  -4.803  0.00  0.00    -0.306 N 
ATOM     22  H   UNL     1      -5.452   3.063  -5.279  0.00  0.00    +0.149 HD
BRANCH  21  23
ATOM     23  C   UNL     1      -4.249   1.332  -5.537  0.00  0.00    +0.178 C 
BRANCH  23  24
ATOM     24  C   UNL     1      -4.561   1.458  -7.006  0.00  0.00    +0.122 A 
ATOM     25  C   UNL     1      -3.844   2.155  -7.906  0.00  0.00    +0.046 A 
ATOM     26  C   UNL     1      -4.491   2.001  -9.154  0.00  0.00    +0.041 A 
ATOM     27  C   UNL     1      -5.565   1.219  -8.942  0.00  0.00    +0.195 A 
ATOM     28  O   UNL     1      -5.599   0.889  -7.641  0.00  0.00    -0.466 OA
ENDBRANCH  23  24
ENDBRANCH  21  23
ENDBRANCH  11  19
ENDBRANCH   1  11
BRANCH   2  29
ATOM     29  C   UNL     1      -3.557   3.368   0.603  0.00  0.00    +0.242 C 
BRANCH  29  30
ATOM     30  N   UNL     1      -2.107   3.265   0.788  0.00  0.00    -0.235 N 
ATOM     31  C   UNL     1      -1.371   2.109   0.886  0.00  0.00    +0.090 A 
ATOM     32  C   UNL     1      -1.687   0.755   0.846  0.00  0.00    +0.029 A 
ATOM     33  C   UNL     1      -0.697  -0.178   0.980  0.00  0.00    +0.002 A 
ATOM     34  C   UNL     1       0.625   0.213   1.147  0.00  0.00    +0.002 A 
ATOM     35  C   UNL     1       0.962   1.535   1.185  0.00  0.00    +0.032 A 
ATOM     36  C   UNL     1      -0.034   2.511   1.055  0.00  0.00    +0.113 A 
ATOM     37  N   UNL     1      -0.009   3.859   1.053  0.00  0.00    -0.129 NA
ATOM     38  N   UNL     1      -1.198   4.328   0.900  0.00  0.00    -0.064 NA
ENDBRANCH  29  30
ENDBRANCH   2  29
TORSDOF 8
