REMARK  Name = ZINC12053609
REMARK  9 active torsions:
REMARK  status: ('A' for Active; 'I' for Inactive)
REMARK    1  A    between atoms: C_1  and  C_2
REMARK    2  A    between atoms: C_6  and  C_8
REMARK    3  A    between atoms: C_8  and  N_67
REMARK    4  A    between atoms: C_10  and  S_29
REMARK    5  A    between atoms: C_13  and  C_15
REMARK    6  A    between atoms: N_17  and  C_18
REMARK    7  A    between atoms: N_17  and  C_19
REMARK    8  A    between atoms: C_19  and  C_20
REMARK    9  A    between atoms: S_29  and  C_30
REMARK                            x       y       z     vdW  Elec       q    Type
REMARK                         _______ _______ _______ _____ _____    ______ ____
ROOT
ATOM      1  C   UNL     1      -3.274   9.994   4.892  0.00  0.00    -0.063 C 
ATOM      2  C   UNL     1      -4.649  10.015   4.178  0.00  0.00    +0.037 C 
ATOM      3  C   UNL     1      -4.762   8.585   3.602  0.00  0.00    +0.006 C 
ATOM      4  C   UNL     1      -3.313   8.070   3.518  0.00  0.00    +0.021 C 
ATOM      5  N   UNL     1      -2.463   9.170   3.989  0.00  0.00    +0.391 N 
ATOM      6  H   UNL     1      -2.152   9.736   3.190  0.00  0.00    -0.080 HD
ENDROOT
BRANCH   4   7
ATOM      7  C   UNL     1      -2.974   7.721   2.091  0.00  0.00    +0.202 C 
ATOM      8  O   UNL     1      -2.090   8.318   1.514  0.00  0.00    -0.277 OA
ATOM      9  N   UNL     1      -3.654   6.746   1.457  0.00  0.00    -0.301 N 
ATOM     10  C   UNL     1      -4.722   6.024   2.154  0.00  0.00    +0.132 C 
BRANCH   9  11
ATOM     11  C   UNL     1      -3.325   6.406   0.070  0.00  0.00    +0.149 C 
BRANCH  11  12
ATOM     12  C   UNL     1      -2.267   5.333   0.053  0.00  0.00    +0.008 A 
ATOM     13  C   UNL     1      -2.434   4.003   0.047  0.00  0.00    +0.021 A 
ATOM     14  C   UNL     1      -1.264   3.138   0.031  0.00  0.00    -0.011 A 
ATOM     15  C   UNL     1      -1.208   1.724   0.017  0.00  0.00    +0.009 A 
ATOM     16  C   UNL     1      -0.013   1.076   0.008  0.00  0.00    +0.001 A 
ATOM     17  C   UNL     1       1.190   1.770   0.000  0.00  0.00    +0.001 A 
ATOM     18  C   UNL     1       1.178   3.151   0.008  0.00  0.00    +0.015 A 
ATOM     19  C   UNL     1      -0.028   3.820   0.023  0.00  0.00    +0.020 A 
ATOM     20  S   UNL     1      -0.495   5.531   0.037  0.00  0.00    -0.092 S 
ENDBRANCH  11  12
ENDBRANCH   9  11
ENDBRANCH   4   7
BRANCH   5  21
ATOM     21  C   UNL     1      -1.267   8.630   4.702  0.00  0.00    -0.042 C 
BRANCH  21  27
ATOM     22  C   UNL     1       0.461  12.319   7.609  0.00  0.00    +0.044 C 
ATOM     23  C   UNL     1       0.546  11.507   6.343  0.00  0.00    -0.050 A 
ATOM     24  C   UNL     1       1.529  11.781   5.410  0.00  0.00    +0.003 A 
ATOM     25  C   UNL     1       1.608  11.036   4.249  0.00  0.00    +0.000 A 
ATOM     26  C   UNL     1       0.706  10.013   4.022  0.00  0.00    +0.002 A 
ATOM     27  C   UNL     1      -0.280   9.742   4.952  0.00  0.00    -0.064 A 
ATOM     28  C   UNL     1      -0.358  10.487   6.114  0.00  0.00    +0.005 A 
ENDBRANCH  21  27
ENDBRANCH   5  21
BRANCH   2  29
ATOM     29  S   UNL     1      -5.981  10.336   5.362  0.00  0.00    -0.086 S 
BRANCH  29  30
ATOM     30  C   UNL     1      -5.587  11.990   5.825  0.00  0.00    +0.167 A 
ATOM     31  N   UNL     1      -6.291  12.743   6.721  0.00  0.00    -0.333 N 
ATOM     32  H   UNL     1      -7.108  12.458   7.223  0.00  0.00    +0.168 HD
ATOM     33  C   UNL     1      -5.663  13.974   6.806  0.00  0.00    +0.067 A 
ATOM     34  C   UNL     1      -5.906  15.130   7.533  0.00  0.00    +0.028 A 
ATOM     35  C   UNL     1      -5.071  16.219   7.391  0.00  0.00    +0.002 A 
ATOM     36  C   UNL     1      -3.989  16.167   6.525  0.00  0.00    +0.002 A 
ATOM     37  C   UNL     1      -3.732  15.028   5.795  0.00  0.00    +0.030 A 
ATOM     38  C   UNL     1      -4.568  13.916   5.928  0.00  0.00    +0.090 A 
ATOM     39  N   UNL     1      -4.572  12.679   5.364  0.00  0.00    -0.222 NA
ENDBRANCH  29  30
ENDBRANCH   2  29
TORSDOF 7
