REMARK  Name = ZINC03428024
REMARK  10 active torsions:
REMARK  status: ('A' for Active; 'I' for Inactive)
REMARK    1  A    between atoms: C_1  and  C_2
REMARK    2  A    between atoms: C_5  and  C_8
REMARK    3  A    between atoms: C_11  and  S_22
REMARK    4  A    between atoms: N_12  and  C_13
REMARK    5  A    between atoms: C_18  and  C_19
REMARK    6  A    between atoms: C_19  and  C_20
REMARK    7  A    between atoms: C_19  and  C_21
REMARK    8  A    between atoms: S_22  and  C_23
REMARK    9  A    between atoms: C_23  and  C_25
REMARK   10  A    between atoms: C_23  and  C_26
REMARK                            x       y       z     vdW  Elec       q    Type
REMARK                         _______ _______ _______ _____ _____    ______ ____
ROOT
ATOM      1  C   UNL     1      -3.141   0.608   1.117  0.00  0.00    +0.169 A 
ATOM      2  N   UNL     1      -4.203  -0.018   0.665  0.00  0.00    -0.128 NA
ATOM      3  N   UNL     1      -4.206  -0.009  -0.619  0.00  0.00    -0.122 NA
ATOM      4  C   UNL     1      -3.149   0.628  -1.070  0.00  0.00    +0.197 A 
ATOM      5  N   UNL     1      -2.430   1.039   0.019  0.00  0.00    -0.270 N 
ENDROOT
BRANCH   1  10
ATOM      6  C   UNL     1      -1.724   1.397   6.638  0.00  0.00    +0.044 C 
ATOM      7  C   UNL     1      -2.095   1.190   5.192  0.00  0.00    -0.050 A 
ATOM      8  C   UNL     1      -3.379   0.794   4.860  0.00  0.00    +0.004 A 
ATOM      9  C   UNL     1      -3.725   0.603   3.539  0.00  0.00    +0.012 A 
ATOM     10  C   UNL     1      -2.777   0.811   2.535  0.00  0.00    +0.020 A 
ATOM     11  C   UNL     1      -1.483   1.205   2.877  0.00  0.00    +0.012 A 
ATOM     12  C   UNL     1      -1.151   1.397   4.202  0.00  0.00    +0.004 A 
ENDBRANCH   1  10
BRANCH   5  13
ATOM     13  C   UNL     1      -1.224   1.754   0.017  0.00  0.00    +0.054 A 
ATOM     14  C   UNL     1      -0.013   1.076   0.008  0.00  0.00    +0.026 A 
ATOM     15  C   UNL     1       1.173   1.783   0.000  0.00  0.00    +0.002 A 
ATOM     16  C   UNL     1       1.155   3.166   0.008  0.00  0.00    +0.000 A 
ATOM     17  C   UNL     1      -0.049   3.845   0.023  0.00  0.00    +0.006 A 
ATOM     18  C   UNL     1      -1.239   3.142   0.031  0.00  0.00    -0.021 A 
BRANCH  18  19
ATOM     19  C   UNL     1      -2.551   3.882   0.047  0.00  0.00    +0.015 C 
ATOM     20  C   UNL     1      -2.629   4.755   1.301  0.00  0.00    +0.012 C 
ATOM     21  C   UNL     1      -2.653   4.767  -1.197  0.00  0.00    +0.012 C 
ENDBRANCH  18  19
ENDBRANCH   5  13
BRANCH   4  22
ATOM     22  S   UNL     1      -2.734   0.900  -2.761  0.00  0.00    -0.073 S 
BRANCH  22  23
ATOM     23  C   UNL     1      -4.134   0.081  -3.564  0.00  0.00    +0.137 C 
ATOM     24  C   UNL     1      -4.090  -1.418  -3.261  0.00  0.00    +0.029 C 
BRANCH  23  25
ATOM     25  C   UNL     1      -4.054   0.295  -5.053  0.00  0.00    +0.233 C 
ATOM     26  O   UNL     1      -2.983   0.514  -5.578  0.00  0.00    -0.274 OA
ATOM     27  N   UNL     1      -5.173   0.243  -5.803  0.00  0.00    -0.239 N 
ATOM     28  C   UNL     1      -5.101   0.434  -7.135  0.00  0.00    +0.303 C 
ATOM     29  O   UNL     1      -4.027   0.653  -7.661  0.00  0.00    -0.253 OA
ATOM     30  N   UNL     1      -6.220   0.381  -7.885  0.00  0.00    -0.313 N 
ATOM     31  H   UNL     1      -6.030   0.067  -5.383  0.00  0.00    +0.159 HD
ATOM     32  H   UNL     1      -7.077   0.206  -7.465  0.00  0.00    +0.146 HD
ATOM     33  H   UNL     1      -6.169   0.519  -8.843  0.00  0.00    +0.146 HD
ENDBRANCH  23  25
ENDBRANCH  22  23
ENDBRANCH   4  22
TORSDOF 6
