REMARK  Name = ZINC40037255
REMARK  6 active torsions:
REMARK  status: ('A' for Active; 'I' for Inactive)
REMARK    1  A    between atoms: C_1  and  C_2
REMARK    2  A    between atoms: C_6  and  C_32
REMARK    3  A    between atoms: C_7  and  C_11
REMARK    4  A    between atoms: N_16  and  C_19
REMARK    5  A    between atoms: C_19  and  C_20
REMARK    6  A    between atoms: C_19  and  C_26
REMARK                            x       y       z     vdW  Elec       q    Type
REMARK                         _______ _______ _______ _____ _____    ______ ____
ROOT
ATOM      1  C   UNL     1       0.088  -5.494   2.446  0.00  0.00    +0.282 C 
ATOM      2  O   UNL     1      -0.032  -6.569   1.889  0.00  0.00    -0.267 OA
ATOM      3  N   UNL     1       0.195  -5.439   3.788  0.00  0.00    -0.293 N 
ATOM      4  C   UNL     1       0.177  -4.148   4.494  0.00  0.00    +0.123 C 
ATOM      5  C   UNL     1      -0.864  -4.222   5.616  0.00  0.00    +0.104 C 
ATOM      6  N   UNL     1      -0.585  -5.389   6.463  0.00  0.00    -0.289 NA
ATOM      7  C   UNL     1      -0.714  -6.641   5.704  0.00  0.00    +0.104 C 
ATOM      8  C   UNL     1       0.327  -6.667   4.586  0.00  0.00    +0.123 C 
ENDROOT
BRANCH   1  15
ATOM      9  C   UNL     1       0.638   1.461  -0.050  0.00  0.00    +0.044 C 
ATOM     10  C   UNL     1       0.415  -0.030  -0.035  0.00  0.00    -0.047 A 
ATOM     11  C   UNL     1       0.078  -0.685  -1.211  0.00  0.00    +0.004 A 
ATOM     12  C   UNL     1      -0.127  -2.036  -1.217  0.00  0.00    +0.012 A 
ATOM     13  C   UNL     1       0.003  -2.761  -0.030  0.00  0.00    +0.024 A 
ATOM     14  C   UNL     1      -0.140  -4.173   0.323  0.00  0.00    +0.008 A 
ATOM     15  C   UNL     1       0.116  -4.256   1.654  0.00  0.00    +0.194 A 
ATOM     16  O   UNL     1       0.400  -3.030   2.141  0.00  0.00    -0.450 OA
ATOM     17  C   UNL     1       0.344  -2.102   1.166  0.00  0.00    +0.136 A 
ATOM     18  C   UNL     1       0.554  -0.727   1.146  0.00  0.00    +0.050 A 
ATOM     19  C   UNL     1      -0.499  -5.306  -0.603  0.00  0.00    +0.048 C 
ENDBRANCH   1  15
BRANCH   6  20
ATOM     20  C   UNL     1      -1.454  -5.400   7.647  0.00  0.00    +0.117 C 
BRANCH  20  21
ATOM     21  C   UNL     1      -1.139  -6.609   8.490  0.00  0.00    -0.026 A 
ATOM     22  C   UNL     1       0.173  -7.007   8.666  0.00  0.00    +0.005 A 
ATOM     23  C   UNL     1       0.461  -8.116   9.439  0.00  0.00    +0.000 A 
ATOM     24  C   UNL     1      -0.563  -8.828  10.036  0.00  0.00    +0.000 A 
ATOM     25  C   UNL     1      -1.875  -8.430   9.860  0.00  0.00    +0.000 A 
ATOM     26  C   UNL     1      -2.163  -7.318   9.091  0.00  0.00    +0.005 A 
ENDBRANCH  20  21
BRANCH  20  27
ATOM     27  C   UNL     1      -1.217  -4.150   8.455  0.00  0.00    -0.026 A 
ATOM     28  C   UNL     1       0.067  -3.660   8.609  0.00  0.00    +0.005 A 
ATOM     29  C   UNL     1       0.284  -2.513   9.350  0.00  0.00    +0.000 A 
ATOM     30  C   UNL     1      -0.782  -1.856   9.936  0.00  0.00    +0.000 A 
ATOM     31  C   UNL     1      -2.066  -2.346   9.781  0.00  0.00    +0.000 A 
ATOM     32  C   UNL     1      -2.283  -3.490   9.037  0.00  0.00    +0.005 A 
ENDBRANCH  20  27
ENDBRANCH   6  20
TORSDOF 4
