REMARK  Name = ZINC63746992
REMARK  7 active torsions:
REMARK  status: ('A' for Active; 'I' for Inactive)
REMARK    1  A    between atoms: C_1  and  C_2
REMARK    2  A    between atoms: C_2  and  C_3
REMARK    3  A    between atoms: C_2  and  C_4
REMARK    4  A    between atoms: C_4  and  C_5
REMARK    5  A    between atoms: C_5  and  N_6
REMARK    6  A    between atoms: N_9  and  C_10
REMARK    7  A    between atoms: C_15  and  C_16
REMARK                            x       y       z     vdW  Elec       q    Type
REMARK                         _______ _______ _______ _____ _____    ______ ____
ROOT
ATOM      1  C   UNL     1       0.292  -0.490   7.258  0.00  0.00    +0.040 A 
ATOM      2  C   UNL     1      -0.912   0.197   7.351  0.00  0.00    +0.024 A 
ATOM      3  C   UNL     1      -1.421   0.529   8.591  0.00  0.00    +0.002 A 
ATOM      4  C   UNL     1      -0.734   0.180   9.739  0.00  0.00    +0.000 A 
ATOM      5  C   UNL     1       0.465  -0.502   9.650  0.00  0.00    +0.008 A 
ATOM      6  C   UNL     1       0.977  -0.843   8.413  0.00  0.00    -0.000 A 
ENDROOT
BRANCH   6   7
ATOM      7  C   UNL     1       2.281  -1.593   8.317  0.00  0.00    +0.135 C 
ATOM      8  C   UNL     1       3.432  -0.621   8.179  0.00  0.00    +0.012 C 
ATOM      9  C   UNL     1       4.228  -0.828   9.253  0.00  0.00    -0.004 A 
ATOM     10  C   UNL     1       5.485  -0.211   9.693  0.00  0.00    +0.010 A 
ATOM     11  C   UNL     1       6.060  -0.639  10.840  0.00  0.00    +0.001 A 
ATOM     12  C   UNL     1       5.487  -1.655  11.617  0.00  0.00    +0.002 A 
ATOM     13  C   UNL     1       4.334  -2.270  11.278  0.00  0.00    +0.026 A 
ATOM     14  C   UNL     1       3.643  -1.899  10.092  0.00  0.00    +0.043 A 
ATOM     15  N   UNL     1       2.528  -2.339   9.556  0.00  0.00    -0.374 N 
ATOM     16  H   UNL     1       1.962  -3.038   9.918  0.00  0.00    +0.161 HD
ENDBRANCH   6   7
BRANCH   1  20
ATOM     17  N   UNL     1       0.494  -1.176   3.717  0.00  0.00    -0.299 N 
ATOM     18  C   UNL     1      -0.015  -0.961   4.947  0.00  0.00    +0.304 C 
ATOM     19  O   UNL     1      -1.218  -0.888   5.102  0.00  0.00    -0.253 OA
ATOM     20  N   UNL     1       0.811  -0.829   6.004  0.00  0.00    -0.269 N 
ATOM     21  H   UNL     1       1.454  -1.234   3.593  0.00  0.00    +0.150 HD
ATOM     22  H   UNL     1       1.765  -0.968   5.895  0.00  0.00    +0.156 HD
BRANCH  17  23
ATOM     23  C   UNL     1      -0.403  -1.320   2.568  0.00  0.00    +0.106 C 
BRANCH  23  24
ATOM     24  C   UNL     1       0.423  -1.553   1.302  0.00  0.00    +0.022 C 
BRANCH  24  26
ATOM     25  C   UNL     1      -1.255  -0.387  -0.135  0.00  0.00    +0.007 C 
ATOM     26  C   UNL     1      -0.514  -1.704   0.102  0.00  0.00    -0.016 C 
ATOM     27  C   UNL     1       0.303  -2.060  -1.142  0.00  0.00    +0.007 C 
ENDBRANCH  24  26
ENDBRANCH  23  24
ENDBRANCH  17  23
ENDBRANCH   1  20
TORSDOF 5
