REMARK  Name = ZINC19774429
REMARK  5 active torsions:
REMARK  status: ('A' for Active; 'I' for Inactive)
REMARK    1  A    between atoms: C_1  and  C_2
REMARK    2  A    between atoms: C_2  and  N_3
REMARK    3  A    between atoms: C_7  and  C_8
REMARK    4  A    between atoms: C_8  and  N_9
REMARK    5  A    between atoms: C_22  and  C_24
REMARK                            x       y       z     vdW  Elec       q    Type
REMARK                         _______ _______ _______ _____ _____    ______ ____
ROOT
ATOM      1  N   UNL     1      -0.612  -0.180  -1.255  0.00  0.00    -0.283 NA
ATOM      2  C   UNL     1      -0.477  -1.609  -0.941  0.00  0.00    +0.090 C 
ATOM      3  C   UNL     1      -1.038  -1.879   0.463  0.00  0.00    +0.053 C 
ATOM      4  C   UNL     1      -0.445  -0.862   1.405  0.00  0.00    -0.016 A 
ATOM      5  C   UNL     1      -0.404  -0.865   2.850  0.00  0.00    +0.003 A 
ATOM      6  C   UNL     1      -0.861  -1.759   3.819  0.00  0.00    +0.010 A 
ATOM      7  C   UNL     1      -0.635  -1.432   5.133  0.00  0.00    +0.001 A 
ATOM      8  C   UNL     1       0.025  -0.271   5.499  0.00  0.00    +0.002 A 
ATOM      9  C   UNL     1       0.499   0.635   4.566  0.00  0.00    +0.026 A 
ATOM     10  C   UNL     1       0.284   0.329   3.224  0.00  0.00    +0.047 A 
ATOM     11  N   UNL     1       0.612   0.986   2.072  0.00  0.00    -0.356 N 
ATOM     12  H   UNL     1       1.149   1.945   2.120  0.00  0.00    +0.166 HD
ATOM     13  C   UNL     1       0.176   0.270   0.991  0.00  0.00    +0.042 A 
ATOM     14  C   UNL     1       0.327   0.634  -0.467  0.00  0.00    +0.139 C 
ENDROOT
BRANCH  14  15
ATOM     15  C   UNL     1       0.015   2.096  -0.659  0.00  0.00    +0.029 A 
ATOM     16  C   UNL     1       1.040   3.000  -0.879  0.00  0.00    +0.130 A 
ATOM     17  C   UNL     1       0.751   4.343  -1.055  0.00  0.00    +0.039 A 
ATOM     18  C   UNL     1      -0.559   4.780  -1.012  0.00  0.00    +0.004 A 
ATOM     19  C   UNL     1      -1.583   3.877  -0.792  0.00  0.00    +0.020 A 
ATOM     20  C   UNL     1      -1.297   2.534  -0.622  0.00  0.00    +0.049 A 
ATOM     21 CL   UNL     1      -2.583   1.399  -0.354  0.00  0.00    -0.083 Cl
ATOM     22  F   UNL     1       2.321   2.573  -0.921  0.00  0.00    -0.205 F 
ENDBRANCH  14  15
BRANCH   1  23
ATOM     23  C   UNL     1      -0.438   0.061  -2.694  0.00  0.00    +0.157 C 
BRANCH  23  28
ATOM     24  N   UNL     1      -2.599  -0.559  -3.883  0.00  0.00    -0.335 N 
ATOM     25  C   UNL     1      -3.075  -1.655  -4.552  0.00  0.00    +0.104 A 
ATOM     26  C   UNL     1      -2.103  -2.586  -4.517  0.00  0.00    +0.101 A 
ATOM     27  N   UNL     1      -1.059  -2.071  -3.850  0.00  0.00    -0.349 N 
ATOM     28  C   UNL     1      -1.348  -0.856  -3.470  0.00  0.00    +0.101 A 
ATOM     29  H   UNL     1      -0.149  -2.672  -3.704  0.00  0.00    +0.166 HD
BRANCH  24  31
ATOM     30  C   UNL     1      -2.836   1.742  -4.675  0.00  0.00    +0.027 C 
ATOM     31  C   UNL     1      -3.312   0.701  -3.660  0.00  0.00    +0.119 C 
ENDBRANCH  24  31
ENDBRANCH  23  28
ENDBRANCH   1  23
TORSDOF 4
