REMARK  Name = ZINC13525642
REMARK  2 active torsions:
REMARK  status: ('A' for Active; 'I' for Inactive)
REMARK    1  A    between atoms: C_1  and  C_6
REMARK    2  A    between atoms: C_2  and  C_3
REMARK                            x       y       z     vdW  Elec       q    Type
REMARK                         _______ _______ _______ _____ _____    ______ ____
ROOT
ATOM      1  C   UNL     1       1.084   2.142  -0.105  0.00  0.00    +0.123 C 
ATOM      2  C   UNL     1      -0.075   1.470   0.020  0.00  0.00    +0.136 C 
ATOM      3 CL   UNL     1      -1.574   2.338   0.132  0.00  0.00    -0.076 Cl
ENDROOT
BRANCH   2   4
ATOM      4  C   UNL     1      -0.072  -0.007   0.055  0.00  0.00    +0.398 C 
ATOM      5  O   UNL     1       0.015  -0.589   1.118  0.00  0.00    -0.240 OA
ATOM      6  O   UNL     1      -0.165  -0.709  -1.091  0.00  0.00    -0.240 OA
ENDBRANCH   2   4
BRANCH   1   7
ATOM      7  C   UNL     1       2.340   1.408  -0.339  0.00  0.00    +0.381 C 
ATOM      8  O   UNL     1       2.318   0.206  -0.512  0.00  0.00    -0.241 OA
ATOM      9  O   UNL     1       3.513   2.071  -0.361  0.00  0.00    -0.241 OA
ENDBRANCH   1   7
TORSDOF 2
