REMARK  Name = ZINC36316482
REMARK  17 active torsions:
REMARK  status: ('A' for Active; 'I' for Inactive)
REMARK    1  A    between atoms: C_1  and  C_2
REMARK    2  A    between atoms: C_2  and  C_3
REMARK    3  A    between atoms: C_4  and  C_22
REMARK    4  A    between atoms: C_5  and  O_14
REMARK    5  A    between atoms: N_6  and  C_8
REMARK    6  A    between atoms: O_14  and  C_15
REMARK    7  A    between atoms: C_22  and  N_23
REMARK    8  A    between atoms: N_23  and  C_24
REMARK    9  A    between atoms: N_23  and  C_28
REMARK   10  A    between atoms: C_24  and  C_25
REMARK   11  A    between atoms: C_28  and  C_29
REMARK   12  A    between atoms: C_29  and  C_31
REMARK   13  A    between atoms: C_29  and  O_36
REMARK   14  A    between atoms: C_31  and  O_32
REMARK   15  A    between atoms: O_32  and  C_33
REMARK   16  A    between atoms: C_33  and  C_34
REMARK   17  A    between atoms: C_33  and  C_35
REMARK                            x       y       z     vdW  Elec       q    Type
REMARK                         _______ _______ _______ _____ _____    ______ ____
ROOT
ATOM      1  C   UNL     1       1.699  -0.336  -1.685  0.00  0.00    +0.068 A 
ATOM      2  C   UNL     1       0.600  -0.649  -2.490  0.00  0.00    +0.021 A 
ATOM      3  C   UNL     1       1.064  -1.264  -3.611  0.00  0.00    +0.225 A 
ATOM      4  N   UNL     1       2.419  -1.332  -3.508  0.00  0.00    -0.200 N 
ATOM      5  N   UNL     1       2.786  -0.738  -2.293  0.00  0.00    -0.168 NA
ENDROOT
BRANCH   4   6
ATOM      6  C   UNL     1       3.292  -1.892  -4.450  0.00  0.00    +0.069 A 
ATOM      7  C   UNL     1       2.989  -3.111  -5.041  0.00  0.00    +0.028 A 
ATOM      8  C   UNL     1       3.851  -3.660  -5.970  0.00  0.00    +0.002 A 
ATOM      9  C   UNL     1       5.015  -2.997  -6.311  0.00  0.00    +0.000 A 
ATOM     10  C   UNL     1       5.320  -1.783  -5.725  0.00  0.00    +0.002 A 
ATOM     11  C   UNL     1       4.459  -1.226  -4.800  0.00  0.00    +0.028 A 
ENDBRANCH   4   6
BRANCH   1  13
ATOM     12  C   UNL     1       1.717   1.869  -0.550  0.00  0.00    +0.010 C 
ATOM     13  C   UNL     1       1.642   0.354  -0.347  0.00  0.00    +0.054 C 
ENDBRANCH   1  13
BRANCH   3  14
ATOM     14  O   UNL     1       0.314  -1.725  -4.643  0.00  0.00    -0.435 OA
BRANCH  14  15
ATOM     15  C   UNL     1      -0.217  -2.972  -4.539  0.00  0.00    +0.165 A 
ATOM     16  C   UNL     1      -0.080  -3.690  -3.360  0.00  0.00    +0.049 A 
ATOM     17  C   UNL     1      -0.621  -4.957  -3.256  0.00  0.00    +0.004 A 
ATOM     18  C   UNL     1      -1.299  -5.511  -4.326  0.00  0.00    +0.003 A 
ATOM     19  C   UNL     1      -1.439  -4.799  -5.503  0.00  0.00    +0.042 A 
ATOM     20  C   UNL     1      -0.904  -3.528  -5.611  0.00  0.00    +0.165 A 
ATOM     21  F   UNL     1      -1.045  -2.830  -6.759  0.00  0.00    -0.202 F 
ENDBRANCH  14  15
ENDBRANCH   3  14
BRANCH   2  22
ATOM     22  C   UNL     1      -0.844  -0.358  -2.172  0.00  0.00    -0.036 C 
BRANCH  22  23
ATOM     23  N   UNL     1      -1.183   0.997  -2.628  0.00  0.00    +0.384 N 
ATOM     24  H   UNL     1      -0.536   1.658  -2.224  0.00  0.00    -0.081 HD
BRANCH  23  25
ATOM     25  C   UNL     1      -2.550   1.329  -2.205  0.00  0.00    -0.075 C 
BRANCH  25  26
ATOM     26  C   UNL     1      -2.628   1.318  -0.677  0.00  0.00    -0.028 C 
ATOM     27  C   UNL     1      -3.539   0.277  -0.023  0.00  0.00    +0.002 C 
ATOM     28  C   UNL     1      -3.946   1.752  -0.034  0.00  0.00    +0.002 C 
ENDBRANCH  25  26
ENDBRANCH  23  25
BRANCH  23  29
ATOM     29  C   UNL     1      -1.095   1.057  -4.093  0.00  0.00    -0.044 C 
BRANCH  29  30
ATOM     30  C   UNL     1      -1.257   2.507  -4.554  0.00  0.00    +0.124 C 
BRANCH  30  31
ATOM     31  O   UNL     1      -2.596   2.939  -4.307  0.00  0.00    -0.391 OA
ATOM     32  H   UNL     1      -3.269   2.417  -4.765  0.00  0.00    +0.210 HD
ENDBRANCH  30  31
BRANCH  30  33
ATOM     33  C   UNL     1      -0.958   2.602  -6.052  0.00  0.00    +0.189 C 
BRANCH  33  34
ATOM     34  O   UNL     1      -0.995   3.972  -6.459  0.00  0.00    -0.375 OA
BRANCH  34  35
ATOM     35  C   UNL     1      -0.729   4.172  -7.848  0.00  0.00    +0.112 C 
ATOM     36  C   UNL     1      -2.041   4.120  -8.632  0.00  0.00    +0.037 C 
ATOM     37  C   UNL     1      -0.069   5.538  -8.049  0.00  0.00    +0.037 C 
ENDBRANCH  34  35
ENDBRANCH  33  34
ENDBRANCH  30  33
ENDBRANCH  29  30
ENDBRANCH  23  29
ENDBRANCH  22  23
ENDBRANCH   2  22
TORSDOF 14
