REMARK  Name = ZINC40295870
REMARK  4 active torsions:
REMARK  status: ('A' for Active; 'I' for Inactive)
REMARK    1  A    between atoms: C_1  and  C_2
REMARK    2  A    between atoms: C_13  and  C_15
REMARK    3  A    between atoms: C_18  and  N_22
REMARK    4  A    between atoms: C_20  and  N_21
REMARK                            x       y       z     vdW  Elec       q    Type
REMARK                         _______ _______ _______ _____ _____    ______ ____
ROOT
ATOM      1  C   UNL     1      -0.391   1.485   0.406  0.00  0.00    +0.028 C 
ATOM      2  C   UNL     1      -0.090   0.019   0.090  0.00  0.00    +0.079 C 
ATOM      3  C   UNL     1      -1.369  -0.817   0.232  0.00  0.00    +0.027 C 
ATOM      4  C   UNL     1      -1.060  -2.262  -0.156  0.00  0.00    +0.039 C 
ATOM      5  C   UNL     1       0.145  -2.764   0.595  0.00  0.00    -0.026 A 
ATOM      6  C   UNL     1       0.333  -4.130   0.726  0.00  0.00    +0.005 A 
ATOM      7  C   UNL     1       1.430  -4.621   1.406  0.00  0.00    +0.000 A 
ATOM      8  C   UNL     1       2.349  -3.750   1.962  0.00  0.00    +0.002 A 
ATOM      9  C   UNL     1       2.169  -2.387   1.838  0.00  0.00    +0.024 A 
ATOM     10  C   UNL     1       1.065  -1.891   1.155  0.00  0.00    +0.040 A 
ATOM     11  N   UNL     1       0.897  -0.504   1.045  0.00  0.00    -0.264 N 
ATOM     12  C   UNL     1       1.627   0.337   1.805  0.00  0.00    +0.253 C 
ATOM     13  O   UNL     1       1.565   1.537   1.615  0.00  0.00    -0.270 OA
ENDROOT
BRANCH  12  14
ATOM     14  C   UNL     1       2.498  -0.197   2.863  0.00  0.00    +0.058 A 
ATOM     15  C   UNL     1       1.948  -0.911   3.933  0.00  0.00    +0.017 A 
ATOM     16  C   UNL     1       2.756  -1.406   4.914  0.00  0.00    +0.023 A 
ATOM     17  C   UNL     1       4.135  -1.205   4.861  0.00  0.00    +0.026 A 
ATOM     18  C   UNL     1       4.699  -0.498   3.807  0.00  0.00    +0.046 A 
ATOM     19  C   UNL     1       3.889   0.004   2.801  0.00  0.00    +0.039 A 
BRANCH  19  20
ATOM     20  N   UNL     1       4.446   0.707   1.740  0.00  0.00    -0.357 N 
ATOM     21  H   UNL     1       3.887   0.995   1.002  0.00  0.00    +0.142 HD
ATOM     22  H   UNL     1       5.395   0.909   1.738  0.00  0.00    +0.142 HD
ENDBRANCH  19  20
BRANCH  17  23
ATOM     23  N   UNL     1       4.949  -1.714   5.867  0.00  0.00    -0.358 N 
ATOM     24  H   UNL     1       4.557  -2.208   6.604  0.00  0.00    +0.142 HD
ATOM     25  H   UNL     1       5.908  -1.576   5.832  0.00  0.00    +0.142 HD
ENDBRANCH  17  23
ENDBRANCH  12  14
TORSDOF 3
