REMARK  Name = ZINC39466722
REMARK  6 active torsions:
REMARK  status: ('A' for Active; 'I' for Inactive)
REMARK    1  A    between atoms: C_4  and  C_7
REMARK    2  A    between atoms: C_7  and  P_8
REMARK    3  A    between atoms: C_16  and  S_27
REMARK    4  A    between atoms: C_17  and  O_26
REMARK    5  A    between atoms: S_27  and  O_30
REMARK    6  A    between atoms: O_30  and  C_31
REMARK                            x       y       z     vdW  Elec       q    Type
REMARK                         _______ _______ _______ _____ _____    ______ ____
ROOT
ATOM      1  P   UNL     1       2.579  -2.022   2.083  0.00  0.00    +0.262 P 
ATOM      2  O   UNL     1       2.475  -0.872   3.008  0.00  0.00    -0.274 OA
ATOM      3  N   UNL     1       4.057  -2.743   2.223  0.00  0.00    -0.291 NA
ATOM      4  N   UNL     1       4.185  -4.041   1.778  0.00  0.00    +0.397 N 
ATOM      5  C   UNL     1       5.552  -4.459   2.128  0.00  0.00    -0.046 C 
ATOM      6  C   UNL     1       5.822  -5.884   1.666  0.00  0.00    +0.006 C 
ATOM      7  C   UNL     1       5.676  -5.991   0.172  0.00  0.00    +0.009 C 
ATOM      8  C   UNL     1       5.429  -7.176  -0.380  0.00  0.00    +0.165 C 
ATOM      9  C   UNL     1       5.315  -8.368   0.482  0.00  0.00    +0.141 C 
ATOM     10  C   UNL     1       5.027  -8.223   1.777  0.00  0.00    +0.024 C 
ATOM     11  C   UNL     1       4.822  -6.834   2.332  0.00  0.00    +0.019 C 
ATOM     12  C   UNL     1       3.406  -6.363   1.997  0.00  0.00    -0.002 C 
ATOM     13  C   UNL     1       3.204  -4.908   2.435  0.00  0.00    -0.020 C 
ATOM     14  C   UNL     1       1.768  -4.519   2.057  0.00  0.00    +0.156 C 
ATOM     15  O   UNL     1       1.504  -3.174   2.492  0.00  0.00    -0.319 OA
ATOM     16  H   UNL     1       4.811  -2.268   2.606  0.00  0.00    +0.111 HD
ATOM     17  H   UNL     1       4.052  -4.073   0.778  0.00  0.00    -0.055 HD
ENDROOT
BRANCH   8  18
ATOM     18  S   UNL     1       5.240  -7.321  -2.126  0.00  0.00    +0.154 S 
ATOM     19  O   UNL     1       4.391  -8.438  -2.351  0.00  0.00    -0.131 OA
ATOM     20  O   UNL     1       4.932  -6.021  -2.610  0.00  0.00    -0.131 OA
BRANCH  18  21
ATOM     21  O   UNL     1       6.602  -7.686  -2.698  0.00  0.00    -0.342 OA
BRANCH  21  22
ATOM     22  C   UNL     1       6.969  -8.975  -2.471  0.00  0.00    +0.157 A 
ATOM     23  C   UNL     1       7.783  -9.287  -1.392  0.00  0.00    +0.048 A 
ATOM     24  C   UNL     1       8.154 -10.598  -1.164  0.00  0.00    +0.004 A 
ATOM     25  C   UNL     1       7.714 -11.599  -2.010  0.00  0.00    +0.000 A 
ATOM     26  C   UNL     1       6.903 -11.291  -3.087  0.00  0.00    +0.004 A 
ATOM     27  C   UNL     1       6.524  -9.983  -3.316  0.00  0.00    +0.048 A 
ENDBRANCH  21  22
ENDBRANCH  18  21
ENDBRANCH   8  18
BRANCH   9  28
ATOM     28  O   UNL     1       5.502  -9.609  -0.041  0.00  0.00    -0.505 OA
ATOM     29  H   UNL     1       5.406 -10.325   0.602  0.00  0.00    +0.292 HD
ENDBRANCH   9  28
BRANCH   1  30
ATOM     30  C   UNL     1       2.301  -1.479   0.365  0.00  0.00    +0.147 C 
BRANCH  30  34
ATOM     31  C   UNL     1      -1.649   0.106  -0.007  0.00  0.00    +0.000 A 
ATOM     32  C   UNL     1      -0.599   0.939   0.333  0.00  0.00    +0.000 A 
ATOM     33  C   UNL     1       0.679   0.426   0.453  0.00  0.00    +0.004 A 
ATOM     34  C   UNL     1       0.907  -0.920   0.235  0.00  0.00    -0.037 A 
ATOM     35  C   UNL     1      -0.143  -1.753  -0.103  0.00  0.00    +0.004 A 
ATOM     36  C   UNL     1      -1.421  -1.239  -0.226  0.00  0.00    +0.000 A 
ENDBRANCH  30  34
ENDBRANCH   1  30
TORSDOF 6
