REMARK  Name = ZINC39875740
REMARK  4 active torsions:
REMARK  status: ('A' for Active; 'I' for Inactive)
REMARK    1  A    between atoms: C_1  and  C_2
REMARK    2  A    between atoms: C_5  and  C_8
REMARK    3  A    between atoms: N_23  and  C_24
REMARK    4  A    between atoms: C_27  and  C_31
REMARK                            x       y       z     vdW  Elec       q    Type
REMARK                         _______ _______ _______ _____ _____    ______ ____
ROOT
ATOM      1  C   UNL     1       0.059  -4.275  -0.021  0.00  0.00    +0.150 C 
ATOM      2  C   UNL     1       1.436  -4.774   0.271  0.00  0.00    +0.072 A 
ATOM      3  C   UNL     1       2.703  -4.592  -0.446  0.00  0.00    +0.199 A 
ATOM      4  O   UNL     1       2.840  -3.808  -1.368  0.00  0.00    -0.287 OA
ATOM      5  C   UNL     1       3.801  -5.454   0.060  0.00  0.00    +0.067 A 
ATOM      6  C   UNL     1       5.005  -5.544  -0.639  0.00  0.00    +0.053 A 
ATOM      7  C   UNL     1       6.013  -6.353  -0.157  0.00  0.00    +0.124 A 
ATOM      8  C   UNL     1       5.825  -7.074   1.017  0.00  0.00    +0.042 A 
ATOM      9  C   UNL     1       4.642  -6.990   1.714  0.00  0.00    +0.050 A 
ATOM     10  C   UNL     1       3.609  -6.176   1.249  0.00  0.00    +0.140 A 
ATOM     11  O   UNL     1       2.460  -6.105   1.960  0.00  0.00    -0.450 OA
ATOM     12  C   UNL     1       1.376  -5.515   1.418  0.00  0.00    +0.199 A 
ATOM     13  C   UNL     1      -0.019  -5.522   1.890  0.00  0.00    +0.287 C 
ATOM     14  O   UNL     1      -0.413  -6.096   2.886  0.00  0.00    -0.266 OA
ATOM     15  N   UNL     1      -0.796  -4.800   1.055  0.00  0.00    -0.253 N 
ATOM     16  F   UNL     1       7.182  -6.446  -0.828  0.00  0.00    -0.205 F 
ENDROOT
BRANCH  15  17
ATOM     17  C   UNL     1      -2.171  -4.587   1.189  0.00  0.00    +0.039 A 
ATOM     18  C   UNL     1      -2.852  -3.822   0.250  0.00  0.00    +0.024 A 
ATOM     19  C   UNL     1      -4.210  -3.613   0.385  0.00  0.00    +0.006 A 
ATOM     20  C   UNL     1      -4.893  -4.163   1.454  0.00  0.00    -0.032 A 
ATOM     21  C   UNL     1      -4.219  -4.925   2.392  0.00  0.00    +0.046 A 
ATOM     22  C   UNL     1      -2.861  -5.143   2.259  0.00  0.00    +0.043 A 
ATOM     23 CL   UNL     1      -5.081  -5.612   3.733  0.00  0.00    -0.083 Cl
ATOM     24  C   UNL     1      -6.376  -3.932   1.598  0.00  0.00    +0.045 C 
ENDBRANCH  15  17
BRANCH   1  29
ATOM     25  C   UNL     1      -0.018   1.503   0.010  0.00  0.00    +0.044 C 
ATOM     26  C   UNL     1       0.002  -0.004   0.002  0.00  0.00    -0.050 A 
ATOM     27  C   UNL     1       0.006  -0.689  -1.199  0.00  0.00    +0.004 A 
ATOM     28  C   UNL     1       0.025  -2.071  -1.206  0.00  0.00    +0.006 A 
ATOM     29  C   UNL     1       0.040  -2.768  -0.013  0.00  0.00    -0.022 A 
ATOM     30  C   UNL     1       0.037  -2.084   1.188  0.00  0.00    +0.006 A 
ATOM     31  C   UNL     1       0.023  -0.702   1.195  0.00  0.00    +0.004 A 
ENDBRANCH   1  29
TORSDOF 2
