REMARK  Name = ZINC02232852
REMARK  11 active torsions:
REMARK  status: ('A' for Active; 'I' for Inactive)
REMARK    1  A    between atoms: C_1  and  C_2
REMARK    2  A    between atoms: C_2  and  C_3
REMARK    3  A    between atoms: C_3  and  N_4
REMARK    4  A    between atoms: C_5  and  C_16
REMARK    5  A    between atoms: C_19  and  O_32
REMARK    6  A    between atoms: C_20  and  C_22
REMARK    7  A    between atoms: C_22  and  O_23
REMARK    8  A    between atoms: O_23  and  C_24
REMARK    9  A    between atoms: C_28  and  C_31
REMARK   10  A    between atoms: C_29  and  C_30
REMARK   11  A    between atoms: O_32  and  C_33
REMARK                            x       y       z     vdW  Elec       q    Type
REMARK                         _______ _______ _______ _____ _____    ______ ____
ROOT
ATOM      1  C   UNL     1       0.117  -3.073  -1.415  0.00  0.00    -0.009 A 
ATOM      2  C   UNL     1       1.097  -2.205  -0.969  0.00  0.00    +0.010 A 
ATOM      3  C   UNL     1       2.423  -2.447  -1.268  0.00  0.00    +0.046 A 
ATOM      4  C   UNL     1       2.773  -3.562  -2.016  0.00  0.00    +0.126 A 
ATOM      5  C   UNL     1       1.788  -4.431  -2.462  0.00  0.00    +0.032 A 
ATOM      6  C   UNL     1       0.463  -4.188  -2.156  0.00  0.00    +0.017 A 
ENDROOT
BRANCH   1   8
ATOM      7  N   UNL     1      -1.410  -1.981   0.116  0.00  0.00    -0.275 N 
ATOM      8  C   UNL     1      -1.330  -2.806  -1.089  0.00  0.00    +0.193 C 
ATOM      9  N   UNL     1      -2.021  -4.084  -0.877  0.00  0.00    -0.321 N 
ATOM     10  C   UNL     1      -1.809  -4.763   0.318  0.00  0.00    +0.041 A 
ATOM     11  C   UNL     1      -1.879  -6.144   0.399  0.00  0.00    +0.024 A 
ATOM     12  C   UNL     1      -1.657  -6.769   1.610  0.00  0.00    +0.002 A 
ATOM     13  C   UNL     1      -1.365  -6.027   2.744  0.00  0.00    +0.001 A 
ATOM     14  C   UNL     1      -1.293  -4.650   2.681  0.00  0.00    +0.015 A 
ATOM     15  C   UNL     1      -1.516  -4.007   1.466  0.00  0.00    +0.058 A 
ATOM     16  C   UNL     1      -1.454  -2.539   1.344  0.00  0.00    +0.250 C 
ATOM     17  O   UNL     1      -1.448  -1.838   2.338  0.00  0.00    -0.270 OA
ATOM     18  H   UNL     1      -2.611  -4.447  -1.556  0.00  0.00    +0.148 HD
BRANCH   7  19
ATOM     19  C   UNL     1      -1.437  -0.522  -0.012  0.00  0.00    +0.110 C 
BRANCH  19  21
ATOM     20  C   UNL     1      -2.912   1.495  -0.009  0.00  0.00    +0.005 C 
ATOM     21  C   UNL     1      -2.887  -0.035   0.001  0.00  0.00    +0.016 C 
ENDBRANCH  19  21
ENDBRANCH   7  19
ENDBRANCH   1   8
BRANCH   4  22
ATOM     22  O   UNL     1       4.077  -3.802  -2.311  0.00  0.00    -0.495 OA
ATOM     23  C   UNL     1       5.037  -2.865  -1.819  0.00  0.00    +0.277 C 
ENDBRANCH   4  22
BRANCH   5  24
ATOM     24  C   UNL     1       2.164  -5.643  -3.275  0.00  0.00    +0.268 C 
BRANCH  24  25
ATOM     25  O   UNL     1       0.984  -6.375  -3.613  0.00  0.00    -0.487 OA
BRANCH  25  26
ATOM     26  C   UNL     1       1.148  -7.504  -4.351  0.00  0.00    +0.124 A 
ATOM     27  C   UNL     1       2.420  -7.903  -4.737  0.00  0.00    +0.046 A 
ATOM     28  C   UNL     1       2.584  -9.052  -5.486  0.00  0.00    +0.004 A 
ATOM     29  C   UNL     1       1.483  -9.804  -5.851  0.00  0.00    +0.004 A 
ATOM     30  C   UNL     1       0.215  -9.409  -5.468  0.00  0.00    -0.044 A 
ATOM     31  C   UNL     1       0.046  -8.264  -4.714  0.00  0.00    -0.006 A 
ATOM     32  C   UNL     1      -1.337  -7.836  -4.292  0.00  0.00    +0.048 C 
ATOM     33  C   UNL     1      -0.983 -10.230  -5.869  0.00  0.00    +0.044 C 
ENDBRANCH  25  26
ENDBRANCH  24  25
ENDBRANCH   5  24
TORSDOF 7
