REMARK  Name = ZINC48947496
REMARK  5 active torsions:
REMARK  status: ('A' for Active; 'I' for Inactive)
REMARK    1  A    between atoms: C_1  and  N_2
REMARK    2  A    between atoms: N_2  and  C_3
REMARK    3  A    between atoms: N_2  and  C_11
REMARK    4  A    between atoms: C_3  and  C_4
REMARK    5  A    between atoms: C_16  and  N_17
REMARK                            x       y       z     vdW  Elec       q    Type
REMARK                         _______ _______ _______ _____ _____    ______ ____
ROOT
ATOM      1  C   UNL     1       0.000  -0.698  -1.214  0.00  0.00    +0.052 A 
ATOM      2  C   UNL     1       1.199  -1.030  -1.826  0.00  0.00    +0.048 A 
ATOM      3  C   UNL     1       1.194  -1.718  -3.031  0.00  0.00    +0.038 A 
ATOM      4  C   UNL     1      -0.011  -2.073  -3.624  0.00  0.00    -0.024 A 
ATOM      5  C   UNL     1      -1.207  -1.742  -3.017  0.00  0.00    +0.030 A 
ATOM      6  C   UNL     1      -1.208  -1.060  -1.810  0.00  0.00    +0.046 A 
ATOM      7  C   UNL     1      -0.010  -2.821  -4.932  0.00  0.00    +0.046 C 
ATOM      8  C   UNL     1       1.175  -2.363  -5.783  0.00  0.00    +0.101 C 
ATOM      9  C   UNL     1       2.433  -2.377  -4.958  0.00  0.00    +0.218 C 
ATOM     10  O   UNL     1       3.487  -2.681  -5.477  0.00  0.00    -0.275 OA
ATOM     11  N   UNL     1       2.403  -2.056  -3.652  0.00  0.00    -0.285 N 
ATOM     12  H   UNL     1       3.225  -2.059  -3.136  0.00  0.00    +0.155 HD
ENDROOT
BRANCH   6  13
ATOM     13  N   UNL     1      -2.422  -0.730  -1.191  0.00  0.00    -0.357 N 
ATOM     14  H   UNL     1      -2.422  -0.249  -0.348  0.00  0.00    +0.142 HD
ATOM     15  H   UNL     1      -3.262  -0.982  -1.605  0.00  0.00    +0.142 HD
ENDBRANCH   6  13
BRANCH   1  17
ATOM     16  C   UNL     1      -0.018   1.461   0.010  0.00  0.00    +0.129 C 
ATOM     17  N   UNL     1       0.002  -0.004   0.002  0.00  0.00    -0.329 N 
BRANCH  17  18
ATOM     18  C   UNL     1       0.024  -0.743   1.267  0.00  0.00    +0.136 C 
BRANCH  18  19
ATOM     19  C   UNL     1      -1.411  -1.020   1.720  0.00  0.00    +0.135 C 
ATOM     20  C   UNL     1      -1.388  -1.792   3.042  0.00  0.00    +0.033 C 
ATOM     21  C   UNL     1      -2.826  -2.013   3.521  0.00  0.00    +0.005 C 
ATOM     22  C   UNL     1      -3.523  -0.655   3.652  0.00  0.00    +0.028 C 
ATOM     23  C   UNL     1      -3.463   0.073   2.307  0.00  0.00    +0.160 C 
ATOM     24  O   UNL     1      -2.099   0.218   1.905  0.00  0.00    -0.375 OA
ENDBRANCH  18  19
ENDBRANCH  17  18
ENDBRANCH   1  17
TORSDOF 4
