REMARK  Name = ZINC65266444
REMARK  6 active torsions:
REMARK  status: ('A' for Active; 'I' for Inactive)
REMARK    1  A    between atoms: C_1  and  C_2
REMARK    2  A    between atoms: C_5  and  C_9
REMARK    3  A    between atoms: N_25  and  C_26
REMARK    4  A    between atoms: C_26  and  C_27
REMARK    5  A    between atoms: C_26  and  C_28
REMARK    6  A    between atoms: C_26  and  C_29
REMARK                            x       y       z     vdW  Elec       q    Type
REMARK                         _______ _______ _______ _____ _____    ______ ____
ROOT
ATOM      1  C   UNL     1       0.848  -3.820   0.469  0.00  0.00    +0.247 C 
ATOM      2  O   UNL     1       0.785  -4.267  -0.659  0.00  0.00    -0.270 OA
ATOM      3  N   UNL     1       0.770  -4.650   1.528  0.00  0.00    -0.295 N 
ATOM      4  C   UNL     1       0.705  -4.236   2.938  0.00  0.00    +0.111 C 
ATOM      5  C   UNL     1       0.602  -5.521   3.791  0.00  0.00    +0.054 C 
ATOM      6  C   UNL     1       0.074  -6.559   2.782  0.00  0.00    +0.103 C 
ATOM      7  C   UNL     1       0.730  -6.124   1.464  0.00  0.00    +0.141 C 
ATOM      8  C   UNL     1       0.505  -7.948   3.170  0.00  0.00    +0.099 C 
ATOM      9  N   UNL     1      -0.170  -8.531   4.230  0.00  0.00    -0.286 N 
ATOM     10  C   UNL     1      -1.542  -8.274   4.351  0.00  0.00    +0.145 A 
ATOM     11  C   UNL     1      -2.138  -7.263   3.596  0.00  0.00    +0.069 A 
ATOM     12  C   UNL     1      -3.495  -7.016   3.741  0.00  0.00    +0.028 A 
ATOM     13  C   UNL     1      -4.215  -7.798   4.636  0.00  0.00    +0.022 A 
ATOM     14  C   UNL     1      -3.562  -8.786   5.345  0.00  0.00    +0.113 A 
ATOM     15  N   UNL     1      -2.269  -8.996   5.189  0.00  0.00    -0.238 NA
ATOM     16  N   UNL     1      -1.381  -6.508   2.687  0.00  0.00    -0.328 N 
ATOM     17  N   UNL     1       1.454  -8.566   2.545  0.00  0.00    -0.370 N 
ATOM     18  H   UNL     1      -1.815  -5.965   2.010  0.00  0.00    +0.147 HD
ATOM     19  H   UNL     1       1.849  -8.172   1.752  0.00  0.00    +0.161 HD
ATOM     20  H   UNL     1       0.291  -9.099   4.867  0.00  0.00    +0.155 HD
ENDROOT
BRANCH   1  25
ATOM     21  C   UNL     1       1.481   1.841   1.297  0.00  0.00    +0.047 C 
ATOM     22  C   UNL     1       1.315   0.359   1.080  0.00  0.00    -0.015 A 
ATOM     23  C   UNL     1       1.082  -0.473   2.159  0.00  0.00    +0.007 A 
ATOM     24  C   UNL     1       0.929  -1.831   1.968  0.00  0.00    +0.013 A 
ATOM     25  C   UNL     1       1.010  -2.365   0.681  0.00  0.00    +0.040 A 
ATOM     26  C   UNL     1       1.246  -1.522  -0.406  0.00  0.00    +0.051 A 
ATOM     27  C   UNL     1       1.391  -0.163  -0.201  0.00  0.00    +0.127 A 
ATOM     28  F   UNL     1       1.614   0.657  -1.252  0.00  0.00    -0.205 F 
ENDBRANCH   1  25
BRANCH  17  29
ATOM     29  C   UNL     1       1.934  -9.860   3.037  0.00  0.00    +0.031 C 
ATOM     30  C   UNL     1       0.755 -10.828   3.158  0.00  0.00    +0.033 C 
ATOM     31  C   UNL     1       2.962 -10.428   2.057  0.00  0.00    +0.033 C 
ATOM     32  C   UNL     1       2.585  -9.675   4.409  0.00  0.00    +0.033 C 
ENDBRANCH  17  29
TORSDOF 2
