REMARK  Name = ZINC30979652
REMARK  8 active torsions:
REMARK  status: ('A' for Active; 'I' for Inactive)
REMARK    1  A    between atoms: C_1  and  C_2
REMARK    2  A    between atoms: C_5  and  C_8
REMARK    3  A    between atoms: C_8  and  C_10
REMARK    4  A    between atoms: C_8  and  N_11
REMARK    5  A    between atoms: C_12  and  C_14
REMARK    6  A    between atoms: N_17  and  C_20
REMARK    7  A    between atoms: C_20  and  C_21
REMARK    8  A    between atoms: C_23  and  C_26
REMARK                            x       y       z     vdW  Elec       q    Type
REMARK                         _______ _______ _______ _____ _____    ______ ____
ROOT
ATOM      1  C   UNL     1       1.761   1.283   4.160  0.00  0.00    +0.071 C 
ATOM      2  C   UNL     1       0.792   1.219   5.344  0.00  0.00    -0.006 C 
ATOM      3  C   UNL     1       1.551   0.770   6.594  0.00  0.00    -0.077 C 
ATOM      4  N   UNL     1       2.635   1.719   6.877  0.00  0.00    +0.386 N 
ATOM      5  C   UNL     1       3.604   1.762   5.774  0.00  0.00    -0.077 C 
ATOM      6  C   UNL     1       2.906   2.241   4.499  0.00  0.00    -0.006 C 
ATOM      7  H   UNL     1       2.189   2.720   6.971  0.00  0.00    -0.081 HD
ENDROOT
BRANCH   1   9
ATOM      8  N   UNL     1      -0.020   1.094   2.454  0.00  0.00    -0.309 N 
ATOM      9  C   UNL     1       1.032   1.782   2.939  0.00  0.00    +0.216 C 
ATOM     10  O   UNL     1       1.392   2.804   2.393  0.00  0.00    -0.276 OA
ATOM     11  H   UNL     1      -0.347   0.168   2.949  0.00  0.00    +0.149 HD
BRANCH   8  12
ATOM     12  C   UNL     1      -0.729   1.579   1.267  0.00  0.00    +0.100 C 
ATOM     13  C   UNL     1      -0.013   1.086   0.008  0.00  0.00    +0.033 C 
BRANCH  12  18
ATOM     14  C   UNL     1      -6.150  -0.421   1.306  0.00  0.00    +0.044 C 
ATOM     15  C   UNL     1      -4.736   0.100   1.296  0.00  0.00    -0.050 A 
ATOM     16  C   UNL     1      -4.481   1.397   0.892  0.00  0.00    +0.004 A 
ATOM     17  C   UNL     1      -3.184   1.876   0.882  0.00  0.00    +0.006 A 
ATOM     18  C   UNL     1      -2.143   1.058   1.278  0.00  0.00    -0.027 A 
ATOM     19  C   UNL     1      -2.397  -0.241   1.677  0.00  0.00    +0.006 A 
ATOM     20  C   UNL     1      -3.695  -0.718   1.692  0.00  0.00    +0.004 A 
ENDBRANCH  12  18
ENDBRANCH   8  12
ENDBRANCH   1   9
BRANCH   4  21
ATOM     21  C   UNL     1       3.299   1.397   8.148  0.00  0.00    +0.022 C 
BRANCH  21  22
ATOM     22  C   UNL     1       2.331   1.600   9.285  0.00  0.00    +0.211 A 
ATOM     23  N   UNL     1       1.516   0.704   9.783  0.00  0.00    -0.193 NA
ATOM     24  C   UNL     1       0.849   1.332  10.778  0.00  0.00    +0.202 A 
ATOM     25  N   UNL     1       1.294   2.561  10.825  0.00  0.00    -0.056 NA
ATOM     26  O   UNL     1       2.147   2.728   9.979  0.00  0.00    -0.340 OA
BRANCH  24  27
ATOM     27  C   UNL     1      -0.193   0.738  11.652  0.00  0.00    +0.023 A 
ATOM     28  C   UNL     1      -0.573  -0.591  11.482  0.00  0.00    +0.013 A 
ATOM     29  C   UNL     1      -1.539  -1.140  12.301  0.00  0.00    +0.016 A 
ATOM     30  C   UNL     1      -2.137  -0.369  13.282  0.00  0.00    +0.018 A 
ATOM     31  C   UNL     1      -1.766   0.954  13.452  0.00  0.00    +0.016 A 
ATOM     32  C   UNL     1      -0.798   1.510  12.642  0.00  0.00    +0.013 A 
ATOM     33 BR   UNL     1      -3.465  -1.126  14.396  0.00  0.00    -0.050 Br
ENDBRANCH  24  27
ENDBRANCH  21  22
ENDBRANCH   4  21
TORSDOF 6
