REMARK  Name = ZINC12244338
REMARK  10 active torsions:
REMARK  status: ('A' for Active; 'I' for Inactive)
REMARK    1  A    between atoms: C_1  and  N_68
REMARK    2  A    between atoms: C_2  and  N_68
REMARK    3  A    between atoms: C_3  and  C_4
REMARK    4  A    between atoms: C_3  and  N_68
REMARK    5  A    between atoms: C_4  and  N_5
REMARK    6  A    between atoms: C_8  and  C_12
REMARK    7  A    between atoms: C_8  and  C_20
REMARK    8  A    between atoms: C_12  and  C_13
REMARK    9  A    between atoms: C_13  and  C_14
REMARK   10  A    between atoms: C_26  and  C_28
REMARK                            x       y       z     vdW  Elec       q    Type
REMARK                         _______ _______ _______ _____ _____    ______ ____
ROOT
ATOM      1  N   UNL     1       3.532  -2.246   4.560  0.00  0.00    -0.226 N 
ATOM      2  C   UNL     1       2.451  -2.884   4.069  0.00  0.00    +0.247 C 
ATOM      3  O   UNL     1       2.406  -4.011   3.625  0.00  0.00    -0.273 OA
ATOM      4  C   UNL     1       1.305  -1.899   4.187  0.00  0.00    +0.116 C 
ATOM      5  N   UNL     1       1.931  -0.709   4.787  0.00  0.00    -0.285 N 
ATOM      6  C   UNL     1       3.231  -1.007   4.967  0.00  0.00    +0.309 C 
ATOM      7  O   UNL     1       4.040  -0.238   5.447  0.00  0.00    -0.252 OA
ATOM      8  H   UNL     1       1.493   0.128   5.008  0.00  0.00    +0.151 HD
ENDROOT
BRANCH   4   9
ATOM      9  C   UNL     1       0.734  -1.570   2.806  0.00  0.00    +0.024 C 
ATOM     10  C   UNL     1       1.835  -0.969   1.930  0.00  0.00    +0.025 C 
ATOM     11  C   UNL     1       1.269  -0.672   0.537  0.00  0.00    +0.108 C 
ATOM     12  N   UNL     1       0.081   0.179   0.682  0.00  0.00    -0.298 N 
ATOM     13  C   UNL     1      -0.998  -0.260   1.577  0.00  0.00    +0.108 C 
ATOM     14  C   UNL     1      -0.409  -0.564   2.954  0.00  0.00    +0.025 C 
ATOM     15  C   UNL     1      -0.016   1.344   0.009  0.00  0.00    +0.247 C 
ATOM     16  O   UNL     1       0.927   1.750  -0.640  0.00  0.00    -0.270 OA
BRANCH  15  17
ATOM     17  C   UNL     1      -1.272   2.123   0.057  0.00  0.00    +0.040 A 
ATOM     18  C   UNL     1      -2.501   1.466   0.143  0.00  0.00    +0.013 A 
ATOM     19  C   UNL     1      -3.669   2.198   0.193  0.00  0.00    +0.004 A 
ATOM     20  C   UNL     1      -3.627   3.580   0.147  0.00  0.00    +0.038 A 
ATOM     21  C   UNL     1      -2.411   4.239   0.056  0.00  0.00    +0.124 A 
ATOM     22  C   UNL     1      -1.234   3.517   0.011  0.00  0.00    +0.051 A 
ATOM     23  F   UNL     1      -2.377   5.588   0.010  0.00  0.00    -0.205 F 
ENDBRANCH  15  17
ENDBRANCH   4   9
BRANCH   1  24
ATOM     24  C   UNL     1       4.871  -2.835   4.638  0.00  0.00    +0.099 C 
BRANCH  24  25
ATOM     25  C   UNL     1       5.636  -2.535   3.348  0.00  0.00    -0.060 C 
BRANCH  25  28
ATOM     26  C   UNL     1       7.658  -3.066   2.125  0.00  0.00    -0.097 C 
ATOM     27  C   UNL     1       7.782  -2.472   4.470  0.00  0.00    -0.097 C 
ATOM     28  N   UNL     1       6.976  -3.153   3.434  0.00  0.00    +0.377 N 
ATOM     29  H   UNL     1       6.871  -4.142   3.690  0.00  0.00    -0.083 HD
ENDBRANCH  25  28
ENDBRANCH  24  25
ENDBRANCH   1  24
BRANCH   4  30
ATOM     30  C   UNL     1       0.211  -2.454   5.101  0.00  0.00    +0.040 C 
BRANCH  30  31
ATOM     31  C   UNL     1       0.776  -2.658   6.508  0.00  0.00    +0.038 C 
BRANCH  31  32
ATOM     32  C   UNL     1      -0.301  -3.204   7.409  0.00  0.00    -0.047 A 
ATOM     33  C   UNL     1      -1.114  -2.340   8.117  0.00  0.00    +0.003 A 
ATOM     34  C   UNL     1      -2.106  -2.841   8.940  0.00  0.00    +0.000 A 
ATOM     35  C   UNL     1      -2.278  -4.207   9.062  0.00  0.00    +0.000 A 
ATOM     36  C   UNL     1      -1.462  -5.072   8.357  0.00  0.00    +0.000 A 
ATOM     37  C   UNL     1      -0.473  -4.571   7.530  0.00  0.00    +0.003 A 
ENDBRANCH  31  32
ENDBRANCH  30  31
ENDBRANCH   4  30
TORSDOF 8
