REMARK  Name = ZINC06134526
REMARK  13 active torsions:
REMARK  status: ('A' for Active; 'I' for Inactive)
REMARK    1  A    between atoms: C_1  and  C_2
REMARK    2  A    between atoms: C_2  and  C_3
REMARK    3  A    between atoms: C_2  and  C_4
REMARK    4  A    between atoms: C_4  and  C_5
REMARK    5  A    between atoms: C_5  and  N_6
REMARK    6  A    between atoms: C_7  and  C_9
REMARK    7  A    between atoms: C_9  and  C_11
REMARK    8  A    between atoms: C_9  and  N_18
REMARK    9  A    between atoms: C_14  and  O_17
REMARK   10  A    between atoms: N_18  and  C_19
REMARK   11  A    between atoms: C_26  and  C_28
REMARK   12  A    between atoms: C_29  and  N_36
REMARK   13  A    between atoms: C_30  and  C_33
REMARK                            x       y       z     vdW  Elec       q    Type
REMARK                         _______ _______ _______ _____ _____    ______ ____
ROOT
ATOM      1  N   UNL     1       3.280   1.715   0.793  0.00  0.00    -0.251 N 
ATOM      2  C   UNL     1       4.290   1.042   1.379  0.00  0.00    +0.262 C 
ATOM      3  O   UNL     1       4.721   0.025   0.868  0.00  0.00    -0.269 OA
ENDROOT
BRANCH   1   4
ATOM      4  C   UNL     1       2.704   2.814   1.440  0.00  0.00    +0.038 A 
ATOM      5  C   UNL     1       3.083   4.103   1.091  0.00  0.00    +0.025 A 
ATOM      6  C   UNL     1       2.509   5.186   1.727  0.00  0.00    +0.022 A 
ATOM      7  C   UNL     1       1.565   4.987   2.719  0.00  0.00    +0.041 A 
ATOM      8  C   UNL     1       1.188   3.703   3.072  0.00  0.00    +0.022 A 
ATOM      9  C   UNL     1       1.755   2.617   2.435  0.00  0.00    +0.025 A 
ATOM     10 CL   UNL     1       0.850   6.351   3.521  0.00  0.00    -0.084 Cl
ENDBRANCH   1   4
BRANCH   2  11
ATOM     11  C   UNL     1       4.869   1.535   2.630  0.00  0.00    +0.116 A 
ATOM     12  C   UNL     1       5.854   0.961   3.436  0.00  0.00    +0.076 A 
ATOM     13  C   UNL     1       6.146   1.736   4.558  0.00  0.00    +0.155 A 
ATOM     14  N   UNL     1       5.504   2.869   4.741  0.00  0.00    -0.203 NA
ATOM     15  S   UNL     1       4.512   3.031   3.527  0.00  0.00    +0.019 S 
BRANCH  13  16
ATOM     16  C   UNL     1       7.162   1.290   5.528  0.00  0.00    +0.262 C 
ATOM     17  O   UNL     1       7.752   0.242   5.353  0.00  0.00    -0.269 OA
ATOM     18  N   UNL     1       7.438   2.046   6.610  0.00  0.00    -0.324 N 
ATOM     19  H   UNL     1       6.968   2.882   6.750  0.00  0.00    +0.145 HD
ATOM     20  H   UNL     1       8.107   1.752   7.248  0.00  0.00    +0.145 HD
ENDBRANCH  13  16
BRANCH  12  21
ATOM     21  N   UNL     1       6.475  -0.248   3.151  0.00  0.00    -0.355 N 
ATOM     22  H   UNL     1       6.231  -0.744   2.354  0.00  0.00    +0.142 HD
ATOM     23  H   UNL     1       7.154  -0.598   3.750  0.00  0.00    +0.142 HD
ENDBRANCH  12  21
ENDBRANCH   2  11
BRANCH   1  24
ATOM     24  C   UNL     1       2.784   1.295  -0.520  0.00  0.00    +0.197 C 
BRANCH  24  25
ATOM     25  C   UNL     1       1.292   1.096  -0.454  0.00  0.00    -0.018 A 
ATOM     26  C   UNL     1       0.765  -0.182  -0.464  0.00  0.00    +0.009 A 
ATOM     27  C   UNL     1      -0.602  -0.368  -0.409  0.00  0.00    +0.046 A 
ATOM     28  C   UNL     1      -1.447   0.730  -0.333  0.00  0.00    +0.117 A 
ATOM     29  C   UNL     1      -0.916   2.012  -0.324  0.00  0.00    +0.046 A 
ATOM     30  C   UNL     1       0.452   2.192  -0.385  0.00  0.00    +0.009 A 
BRANCH  28  31
ATOM     31  O   UNL     1      -2.793   0.550  -0.274  0.00  0.00    -0.507 OA
ATOM     32  H   UNL     1      -3.224   0.522  -1.139  0.00  0.00    +0.292 HD
ENDBRANCH  28  31
ENDBRANCH  24  25
BRANCH  24  34
ATOM     33  N   UNL     1       2.742   2.187  -2.827  0.00  0.00    -0.313 N 
ATOM     34  C   UNL     1       3.105   2.357  -1.540  0.00  0.00    +0.238 C 
ATOM     35  O   UNL     1       3.689   3.365  -1.204  0.00  0.00    -0.273 OA
ATOM     36  H   UNL     1       2.275   1.380  -3.096  0.00  0.00    +0.149 HD
BRANCH  33  37
ATOM     37  C   UNL     1       3.054   3.219  -3.819  0.00  0.00    +0.104 C 
BRANCH  37  38
ATOM     38  C   UNL     1       2.537   2.780  -5.191  0.00  0.00    +0.022 C 
BRANCH  38  40
ATOM     39  C   UNL     1       4.380   3.973  -6.384  0.00  0.00    +0.007 C 
ATOM     40  C   UNL     1       2.862   3.858  -6.226  0.00  0.00    -0.016 C 
ATOM     41  C   UNL     1       2.237   3.479  -7.571  0.00  0.00    +0.007 C 
ENDBRANCH  38  40
ENDBRANCH  37  38
ENDBRANCH  33  37
ENDBRANCH  24  34
ENDBRANCH   1  24
TORSDOF 11
