REMARK  Name = ZINC12642405
REMARK  15 active torsions:
REMARK  status: ('A' for Active; 'I' for Inactive)
REMARK    1  A    between atoms: C_1  and  C_2
REMARK    2  A    between atoms: C_2  and  C_3
REMARK    3  A    between atoms: C_2  and  C_4
REMARK    4  A    between atoms: C_2  and  C_5
REMARK    5  A    between atoms: C_8  and  C_11
REMARK    6  A    between atoms: C_11  and  N_71
REMARK    7  A    between atoms: C_12  and  C_13
REMARK    8  A    between atoms: C_12  and  N_71
REMARK    9  A    between atoms: C_18  and  C_20
REMARK   10  A    between atoms: C_18  and  C_25
REMARK   11  A    between atoms: C_18  and  N_71
REMARK   12  A    between atoms: N_29  and  C_30
REMARK   13  A    between atoms: C_30  and  C_31
REMARK   14  A    between atoms: C_34  and  O_37
REMARK   15  A    between atoms: O_37  and  C_38
REMARK                            x       y       z     vdW  Elec       q    Type
REMARK                         _______ _______ _______ _____ _____    ______ ____
ROOT
ATOM      1  C   UNL     1       0.216   2.014  -1.218  0.00  0.00    +0.041 C 
ENDROOT
BRANCH   1   2
ATOM      2  C   UNL     1       0.887   0.891  -0.470  0.00  0.00    -0.016 A 
ATOM      3  C   UNL     1       0.916   0.651   0.864  0.00  0.00    +0.010 A 
ATOM      4  C   UNL     1       1.600  -0.456   1.331  0.00  0.00    +0.008 A 
ATOM      5  C   UNL     1       2.229  -1.263   0.443  0.00  0.00    +0.045 A 
ATOM      6  S   UNL     1       1.857  -0.465  -1.110  0.00  0.00    -0.103 S 
ENDBRANCH   1   2
BRANCH   1   7
ATOM      7  C   UNL     1       1.260   2.846  -1.917  0.00  0.00    +0.143 A 
ATOM      8  N   UNL     1       2.023   2.468  -2.913  0.00  0.00    -0.115 NA
ATOM      9  N   UNL     1       2.780   3.460  -3.233  0.00  0.00    -0.023 NA
ATOM     10  N   UNL     1       2.525   4.459  -2.461  0.00  0.00    -0.044 NA
ATOM     11  N   UNL     1       1.593   4.119  -1.636  0.00  0.00    -0.226 N 
BRANCH  11  12
ATOM     12  C   UNL     1       1.008   4.961  -0.590  0.00  0.00    +0.182 C 
BRANCH  12  13
ATOM     13  C   UNL     1       1.878   4.910   0.640  0.00  0.00    -0.026 A 
ATOM     14  C   UNL     1       1.641   3.958   1.614  0.00  0.00    +0.009 A 
ATOM     15  C   UNL     1       2.440   3.906   2.740  0.00  0.00    +0.046 A 
ATOM     16  C   UNL     1       3.474   4.817   2.898  0.00  0.00    +0.120 A 
ATOM     17  C   UNL     1       3.706   5.775   1.922  0.00  0.00    +0.046 A 
ATOM     18  C   UNL     1       2.908   5.820   0.796  0.00  0.00    +0.009 A 
BRANCH  16  19
ATOM     19  O   UNL     1       4.258   4.771   4.007  0.00  0.00    -0.495 OA
ATOM     20  C   UNL     1       3.961   3.758   4.970  0.00  0.00    +0.277 C 
ENDBRANCH  16  19
ENDBRANCH  12  13
ENDBRANCH  11  12
ENDBRANCH   1   7
BRANCH   1  21
ATOM     21  N   UNL     1      -0.719   1.476  -2.229  0.00  0.00    +0.397 N 
ATOM     22  H   UNL     1      -0.981   2.231  -2.874  0.00  0.00    -0.079 HD
BRANCH  21  23
ATOM     23  C   UNL     1      -1.937   0.964  -1.568  0.00  0.00    -0.041 C 
BRANCH  23  27
ATOM     24  C   UNL     1      -4.427   4.276  -0.530  0.00  0.00    -0.042 A 
ATOM     25  C   UNL     1      -4.479   3.745  -1.805  0.00  0.00    +0.004 A 
ATOM     26  C   UNL     1      -3.674   2.673  -2.141  0.00  0.00    +0.002 A 
ATOM     27  C   UNL     1      -2.816   2.133  -1.202  0.00  0.00    -0.064 A 
ATOM     28  C   UNL     1      -2.767   2.660   0.075  0.00  0.00    +0.002 A 
ATOM     29  C   UNL     1      -3.569   3.735   0.409  0.00  0.00    +0.004 A 
BRANCH  24  31
ATOM     30  C   UNL     1      -6.774   5.020  -0.231  0.00  0.00    +0.015 C 
ATOM     31  C   UNL     1      -5.305   5.445  -0.163  0.00  0.00    -0.013 C 
ATOM     32  C   UNL     1      -4.973   5.907   1.256  0.00  0.00    +0.015 C 
ATOM     33  C   UNL     1      -5.061   6.593  -1.144  0.00  0.00    +0.015 C 
ENDBRANCH  24  31
ENDBRANCH  23  27
ENDBRANCH  21  23
BRANCH  21  34
ATOM     34  C   UNL     1      -0.066   0.394  -2.995  0.00  0.00    -0.001 C 
BRANCH  34  35
ATOM     35  C   UNL     1      -0.882   0.116  -4.231  0.00  0.00    +0.089 A 
ATOM     36  C   UNL     1      -0.717   0.703  -5.431  0.00  0.00    +0.042 A 
ATOM     37  C   UNL     1      -1.689   0.149  -6.295  0.00  0.00    +0.041 A 
ATOM     38  C   UNL     1      -2.390  -0.743  -5.572  0.00  0.00    +0.195 A 
ATOM     39  O   UNL     1      -1.893  -0.762  -4.324  0.00  0.00    -0.470 OA
ENDBRANCH  34  35
ENDBRANCH  21  34
ENDBRANCH   1  21
TORSDOF 11
