REMARK  Name = ZINC09383545
REMARK  11 active torsions:
REMARK  status: ('A' for Active; 'I' for Inactive)
REMARK    1  A    between atoms: C_1  and  C_2
REMARK    2  A    between atoms: C_2  and  C_3
REMARK    3  A    between atoms: N_9  and  S_10
REMARK    4  A    between atoms: S_10  and  C_13
REMARK    5  A    between atoms: C_16  and  C_19
REMARK    6  A    between atoms: N_21  and  C_22
REMARK    7  A    between atoms: C_23  and  C_34
REMARK    8  A    between atoms: C_27  and  C_32
REMARK    9  A    between atoms: C_27  and  C_33
REMARK   10  A    between atoms: C_28  and  C_30
REMARK   11  A    between atoms: C_28  and  C_31
REMARK                            x       y       z     vdW  Elec       q    Type
REMARK                         _______ _______ _______ _____ _____    ______ ____
ROOT
ATOM      1  C   UNL     1      -7.311  -0.045   0.393  0.00  0.00    +0.249 C 
ATOM      2  O   UNL     1      -8.227   0.614  -0.058  0.00  0.00    -0.270 OA
ATOM      3  N   UNL     1      -7.533  -0.896   1.414  0.00  0.00    -0.275 N 
ATOM      4  H   UNL     1      -6.802  -1.423   1.774  0.00  0.00    +0.156 HD
ENDROOT
BRANCH   3   5
ATOM      5  C   UNL     1      -8.804  -1.020   1.950  0.00  0.00    +0.085 A 
ATOM      6  C   UNL     1      -9.225  -1.837   2.994  0.00  0.00    +0.068 A 
ATOM      7  C   UNL     1     -10.623  -1.774   3.365  0.00  0.00    -0.026 A 
ATOM      8  C   UNL     1     -11.382  -0.923   2.636  0.00  0.00    -0.016 A 
ATOM      9  S   UNL     1     -10.255  -0.197   1.482  0.00  0.00    -0.079 S 
ATOM     10  C   UNL     1     -12.848  -0.681   2.791  0.00  0.00    -0.041 C 
ATOM     11  C   UNL     1     -12.460  -1.752   5.013  0.00  0.00    -0.069 C 
ATOM     12  C   UNL     1     -11.285  -2.576   4.476  0.00  0.00    +0.024 C 
ATOM     13  C   UNL     1     -13.216  -2.620   6.037  0.00  0.00    -0.010 C 
ATOM     14  C   UNL     1     -11.918  -0.523   5.751  0.00  0.00    -0.010 C 
ATOM     15  C   UNL     1     -13.110   0.828   2.884  0.00  0.00    -0.005 C 
ATOM     16  C   UNL     1     -13.561  -1.209   1.531  0.00  0.00    -0.005 C 
ATOM     17  N   UNL     1     -13.445  -1.378   3.966  0.00  0.00    +0.389 N 
ATOM     18  H   UNL     1     -13.904  -2.235   3.635  0.00  0.00    -0.084 HD
ATOM     19  H   UNL     1     -14.144  -0.756   4.389  0.00  0.00    -0.084 HD
BRANCH   6  20
ATOM     20  C   UNL     1      -8.281  -2.724   3.681  0.00  0.00    +0.244 C 
ATOM     21  O   UNL     1      -7.670  -2.325   4.655  0.00  0.00    -0.270 OA
ATOM     22  N   UNL     1      -8.091  -3.981   3.234  0.00  0.00    -0.325 N 
ATOM     23  H   UNL     1      -8.577  -4.299   2.457  0.00  0.00    +0.145 HD
ATOM     24  H   UNL     1      -7.466  -4.568   3.688  0.00  0.00    +0.145 HD
ENDBRANCH   6  20
ENDBRANCH   3   5
BRANCH   1  28
ATOM     25  C   UNL     1      -3.412   0.333  -1.248  0.00  0.00    +0.106 A 
ATOM     26  C   UNL     1      -3.637  -0.545  -0.203  0.00  0.00    +0.029 A 
ATOM     27  C   UNL     1      -4.900  -0.669   0.338  0.00  0.00    +0.015 A 
ATOM     28  C   UNL     1      -5.955   0.086  -0.178  0.00  0.00    +0.037 A 
ATOM     29  C   UNL     1      -5.722   0.967  -1.236  0.00  0.00    +0.015 A 
ATOM     30  C   UNL     1      -4.453   1.085  -1.765  0.00  0.00    +0.029 A 
BRANCH  25  31
ATOM     31  S   UNL     1      -1.795   0.491  -1.929  0.00  0.00    +0.061 S 
ATOM     32  O   UNL     1      -1.943   1.141  -3.183  0.00  0.00    -0.153 OA
ATOM     33  O   UNL     1      -1.174  -0.781  -1.800  0.00  0.00    -0.153 OA
BRANCH  31  39
ATOM     34  C   UNL     1      -1.115   2.984  -1.091  0.00  0.00    +0.080 C 
ATOM     35  C   UNL     1      -1.475   3.571   0.278  0.00  0.00    +0.021 C 
ATOM     36  C   UNL     1      -0.419   3.151   1.302  0.00  0.00    +0.003 C 
ATOM     37  C   UNL     1      -0.396   1.625   1.422  0.00  0.00    +0.017 C 
ATOM     38  C   UNL     1      -0.027   1.016   0.066  0.00  0.00    +0.110 C 
ATOM     39  N   UNL     1      -0.952   1.530  -0.954  0.00  0.00    -0.174 NA
BRANCH  34  41
ATOM     40  C   UNL     1      -2.484   4.791  -2.141  0.00  0.00    +0.005 C 
ATOM     41  C   UNL     1      -2.234   3.282  -2.091  0.00  0.00    +0.017 C 
ENDBRANCH  34  41
ENDBRANCH  31  39
ENDBRANCH  25  31
ENDBRANCH   1  28
TORSDOF 6
