REMARK  Name = ZINC12869433
REMARK  3 active torsions:
REMARK  status: ('A' for Active; 'I' for Inactive)
REMARK    1  A    between atoms: C_11  and  C_29
REMARK    2  A    between atoms: N_19  and  C_23
REMARK    3  A    between atoms: C_23  and  C_24
REMARK                            x       y       z     vdW  Elec       q    Type
REMARK                         _______ _______ _______ _____ _____    ______ ____
ROOT
ATOM      1  C   UNL     1       1.067   1.312  -0.126  0.00  0.00    +0.001 A 
ATOM      2  C   UNL     1       1.175   2.692  -0.164  0.00  0.00    +0.002 A 
ATOM      3  C   UNL     1       0.067   3.521  -0.147  0.00  0.00    +0.026 A 
ATOM      4  C   UNL     1      -1.181   2.904  -0.086  0.00  0.00    +0.047 A 
ATOM      5  C   UNL     1      -1.287   1.490  -0.050  0.00  0.00    +0.003 A 
ATOM      6  C   UNL     1      -0.149   0.677  -0.066  0.00  0.00    +0.010 A 
ATOM      7  C   UNL     1      -2.704   1.195   0.007  0.00  0.00    -0.015 A 
ATOM      8  C   UNL     1      -3.354   2.379  -0.008  0.00  0.00    +0.046 A 
ATOM      9  N   UNL     1      -2.451   3.407  -0.056  0.00  0.00    -0.356 N 
ATOM     10  H   UNL     1      -2.678   4.349  -0.076  0.00  0.00    +0.166 HD
ATOM     11  C   UNL     1      -4.861   2.504   0.031  0.00  0.00    +0.154 C 
ATOM     12  N   UNL     1      -5.405   1.175   0.381  0.00  0.00    -0.276 N 
ATOM     13  C   UNL     1      -4.853   0.009  -0.307  0.00  0.00    +0.167 C 
ATOM     14  C   UNL     1      -3.376  -0.152   0.077  0.00  0.00    +0.069 C 
ATOM     15  C   UNL     1      -5.598  -1.244   0.026  0.00  0.00    +0.237 C 
ATOM     16  O   UNL     1      -5.289  -2.261  -0.558  0.00  0.00    -0.274 OA
ATOM     17  N   UNL     1      -6.579  -1.315   0.924  0.00  0.00    -0.286 N 
ATOM     18  C   UNL     1      -7.055  -0.176   1.692  0.00  0.00    +0.204 C 
ATOM     19  C   UNL     1      -6.367   1.091   1.302  0.00  0.00    +0.234 C 
ATOM     20  O   UNL     1      -6.705   2.113   1.861  0.00  0.00    -0.274 OA
ENDROOT
BRANCH  11  21
ATOM     21  C   UNL     1      -5.375   2.930  -1.320  0.00  0.00    -0.021 A 
ATOM     22  C   UNL     1      -5.140   4.214  -1.776  0.00  0.00    +0.007 A 
ATOM     23  C   UNL     1      -5.607   4.603  -3.017  0.00  0.00    +0.015 A 
ATOM     24  C   UNL     1      -6.319   3.711  -3.799  0.00  0.00    +0.018 A 
ATOM     25  C   UNL     1      -6.558   2.428  -3.340  0.00  0.00    +0.015 A 
ATOM     26  C   UNL     1      -6.086   2.038  -2.101  0.00  0.00    +0.007 A 
ATOM     27 BR   UNL     1      -6.965   4.245  -5.494  0.00  0.00    -0.050 Br
ENDBRANCH  11  21
BRANCH  17  28
ATOM     28  C   UNL     1      -7.214  -2.615   1.151  0.00  0.00    +0.150 C 
BRANCH  28  29
ATOM     29  C   UNL     1      -6.482  -3.348   2.245  0.00  0.00    +0.007 A 
ATOM     30  C   UNL     1      -6.702  -3.328   3.582  0.00  0.00    +0.013 A 
ATOM     31  C   UNL     1      -5.896  -4.090   4.406  0.00  0.00    +0.008 A 
ATOM     32  C   UNL     1      -4.908  -4.836   3.853  0.00  0.00    +0.045 A 
ATOM     33  S   UNL     1      -5.103  -4.476   2.115  0.00  0.00    -0.100 S 
ENDBRANCH  28  29
ENDBRANCH  17  28
TORSDOF 3
