REMARK  Name = ZINC22034465
REMARK  8 active torsions:
REMARK  status: ('A' for Active; 'I' for Inactive)
REMARK    1  A    between atoms: C_1  and  C_2
REMARK    2  A    between atoms: C_3  and  C_31
REMARK    3  A    between atoms: N_9  and  C_26
REMARK    4  A    between atoms: C_10  and  S_12
REMARK    5  A    between atoms: S_12  and  C_13
REMARK    6  A    between atoms: C_13  and  C_14
REMARK    7  A    between atoms: C_17  and  C_25
REMARK    8  A    between atoms: C_22  and  C_24
REMARK                            x       y       z     vdW  Elec       q    Type
REMARK                         _______ _______ _______ _____ _____    ______ ____
ROOT
ATOM      1  C   UNL     1      -7.209   1.407   3.232  0.00  0.00    +0.045 C 
ATOM      2  C   UNL     1      -6.574   2.773   3.254  0.00  0.00    -0.026 A 
ATOM      3  C   UNL     1      -7.175   3.790   3.890  0.00  0.00    -0.008 A 
ATOM      4  S   UNL     1      -6.058   5.156   3.635  0.00  0.00    -0.073 S 
ATOM      5  C   UNL     1      -4.815   4.321   2.682  0.00  0.00    +0.117 A 
ATOM      6  C   UNL     1      -5.304   3.004   2.589  0.00  0.00    +0.075 A 
ATOM      7  C   UNL     1      -4.485   2.088   1.856  0.00  0.00    +0.263 A 
ATOM      8  O   UNL     1      -4.828   0.926   1.722  0.00  0.00    -0.267 OA
ATOM      9  N   UNL     1      -3.333   2.525   1.317  0.00  0.00    -0.284 N 
ATOM     10  C   UNL     1      -2.930   3.821   1.461  0.00  0.00    +0.173 A 
ATOM     11  N   UNL     1      -3.667   4.688   2.126  0.00  0.00    -0.216 NA
ATOM     12  C   UNL     1      -8.482   3.780   4.640  0.00  0.00    +0.052 C 
ENDROOT
BRANCH   9  13
ATOM     13  C   UNL     1      -2.491   1.591   0.565  0.00  0.00    +0.093 C 
ATOM     14  C   UNL     1      -3.289   0.958  -0.607  0.00  0.00    +0.025 C 
ATOM     15  C   UNL     1      -2.517  -0.359  -0.869  0.00  0.00    +0.002 C 
ATOM     16  C   UNL     1      -2.114  -0.851   0.537  0.00  0.00    +0.002 C 
ATOM     17  C   UNL     1      -2.097   0.389   1.448  0.00  0.00    +0.025 C 
ENDBRANCH   9  13
BRANCH  10  18
ATOM     18  S   UNL     1      -1.409   4.344   0.742  0.00  0.00    -0.078 S 
BRANCH  18  19
ATOM     19  C   UNL     1      -1.407   6.084   1.243  0.00  0.00    +0.173 C 
BRANCH  19  20
ATOM     20  C   UNL     1      -0.160   6.754   0.724  0.00  0.00    +0.226 C 
ATOM     21  O   UNL     1       0.603   6.143   0.007  0.00  0.00    -0.275 OA
ATOM     22  N   UNL     1       0.105   8.033   1.057  0.00  0.00    -0.295 N 
ATOM     23  C   UNL     1       1.256   8.735   0.472  0.00  0.00    +0.073 C 
ATOM     24  C   UNL     1       0.760  10.047  -0.155  0.00  0.00    +0.022 C 
ATOM     25  C   UNL     1       0.002  10.855   0.900  0.00  0.00    +0.004 C 
ATOM     26  C   UNL     1      -1.216  10.059   1.377  0.00  0.00    +0.022 C 
ATOM     27  C   UNL     1      -0.746   8.749   2.017  0.00  0.00    +0.073 C 
ATOM     28  C   UNL     1       0.054   9.052   3.285  0.00  0.00    +0.028 C 
ATOM     29  C   UNL     1       1.897   7.859  -0.606  0.00  0.00    +0.028 C 
ENDBRANCH  19  20
ENDBRANCH  18  19
ENDBRANCH  10  18
TORSDOF 4
