REMARK  Name = ZINC40155716
REMARK  12 active torsions:
REMARK  status: ('A' for Active; 'I' for Inactive)
REMARK    1  A    between atoms: C_1  and  C_2
REMARK    2  A    between atoms: C_2  and  C_4
REMARK    3  A    between atoms: C_2  and  N_11
REMARK    4  A    between atoms: N_11  and  C_12
REMARK    5  A    between atoms: N_11  and  C_29
REMARK    6  A    between atoms: C_12  and  C_13
REMARK    7  A    between atoms: N_15  and  C_16
REMARK    8  A    between atoms: C_21  and  C_22
REMARK    9  A    between atoms: N_24  and  C_25
REMARK   10  A    between atoms: C_25  and  C_26
REMARK   11  A    between atoms: C_26  and  C_27
REMARK   12  A    between atoms: C_26  and  C_28
REMARK                            x       y       z     vdW  Elec       q    Type
REMARK                         _______ _______ _______ _____ _____    ______ ____
ROOT
ATOM      1  C   UNL     1      -3.204   0.293  -1.499  0.00  0.00    +0.201 C 
ATOM      2  O   UNL     1      -3.835  -0.285  -0.640  0.00  0.00    -0.278 OA
ATOM      3  N   UNL     1      -3.842   0.826  -2.560  0.00  0.00    -0.286 N 
ATOM      4  H   UNL     1      -3.332   1.220  -3.285  0.00  0.00    +0.155 HD
ENDROOT
BRANCH   3   5
ATOM      5  C   UNL     1      -5.233   0.810  -2.616  0.00  0.00    +0.045 A 
ATOM      6  C   UNL     1      -5.980   0.949  -1.453  0.00  0.00    +0.024 A 
ATOM      7  C   UNL     1      -7.359   0.933  -1.511  0.00  0.00    +0.002 A 
ATOM      8  C   UNL     1      -8.008   0.780  -2.725  0.00  0.00    +0.001 A 
ATOM      9  C   UNL     1      -7.284   0.642  -3.889  0.00  0.00    +0.015 A 
ATOM     10  C   UNL     1      -5.888   0.661  -3.848  0.00  0.00    +0.058 A 
BRANCH  10  11
ATOM     11  C   UNL     1      -5.106   0.520  -5.091  0.00  0.00    +0.246 C 
ATOM     12  O   UNL     1      -3.895   0.432  -5.041  0.00  0.00    -0.270 OA
ATOM     13  N   UNL     1      -5.735   0.490  -6.282  0.00  0.00    -0.311 N 
ATOM     14  H   UNL     1      -6.702   0.561  -6.323  0.00  0.00    +0.149 HD
BRANCH  13  15
ATOM     15  C   UNL     1      -4.959   0.350  -7.517  0.00  0.00    +0.107 C 
BRANCH  15  16
ATOM     16  C   UNL     1      -5.907   0.344  -8.718  0.00  0.00    -0.000 C 
ATOM     17  C   UNL     1      -6.601   1.703  -8.827  0.00  0.00    +0.009 C 
ATOM     18  C   UNL     1      -5.111   0.073  -9.996  0.00  0.00    +0.009 C 
ENDBRANCH  15  16
ENDBRANCH  13  15
ENDBRANCH  10  11
ENDBRANCH   3   5
BRANCH   1  19
ATOM     19  C   UNL     1      -1.706   0.414  -1.381  0.00  0.00    +0.020 C 
BRANCH  19  20
ATOM     20  N   UNL     1      -1.258  -0.243  -0.147  0.00  0.00    +0.392 N 
ATOM     21  H   UNL     1      -1.786   0.113   0.636  0.00  0.00    -0.080 HD
BRANCH  20  22
ATOM     22  C   UNL     1      -1.467  -1.693  -0.260  0.00  0.00    -0.067 C 
ATOM     23  C   UNL     1      -2.462  -2.340   0.705  0.00  0.00    -0.017 C 
ATOM     24  C   UNL     1      -0.960  -2.571   0.885  0.00  0.00    -0.017 C 
ENDBRANCH  20  22
BRANCH  20  26
ATOM     25  C   UNL     1       0.913  -0.090  -1.270  0.00  0.00    -0.008 C 
ATOM     26  C   UNL     1       0.170   0.030   0.063  0.00  0.00    -0.037 C 
BRANCH  26  27
ATOM     27  C   UNL     1       0.340   1.425   0.608  0.00  0.00    -0.026 A 
ATOM     28  C   UNL     1      -0.707   2.325   0.544  0.00  0.00    +0.005 A 
ATOM     29  C   UNL     1      -0.552   3.604   1.045  0.00  0.00    +0.000 A 
ATOM     30  C   UNL     1       0.651   3.985   1.610  0.00  0.00    +0.003 A 
ATOM     31  C   UNL     1       1.699   3.087   1.675  0.00  0.00    +0.038 A 
ATOM     32  C   UNL     1       1.543   1.804   1.179  0.00  0.00    +0.125 A 
ATOM     33  F   UNL     1       2.566   0.923   1.247  0.00  0.00    -0.205 F 
ENDBRANCH  26  27
ENDBRANCH  20  26
ENDBRANCH  19  20
ENDBRANCH   1  19
TORSDOF 9
