REMARK  Name = ZINC40091533
REMARK  15 active torsions:
REMARK  status: ('A' for Active; 'I' for Inactive)
REMARK    1  A    between atoms: C_1  and  C_2
REMARK    2  A    between atoms: C_2  and  C_3
REMARK    3  A    between atoms: C_3  and  O_4
REMARK    4  A    between atoms: O_4  and  C_5
REMARK    5  A    between atoms: C_8  and  C_12
REMARK    6  A    between atoms: C_10  and  C_11
REMARK    7  A    between atoms: C_12  and  C_14
REMARK    8  A    between atoms: N_18  and  C_27
REMARK    9  A    between atoms: C_19  and  C_21
REMARK   10  A    between atoms: C_24  and  C_26
REMARK   11  A    between atoms: C_27  and  C_28
REMARK   12  A    between atoms: C_28  and  O_29
REMARK   13  A    between atoms: O_29  and  C_30
REMARK   14  A    between atoms: C_30  and  C_31
REMARK   15  A    between atoms: C_31  and  O_32
REMARK                            x       y       z     vdW  Elec       q    Type
REMARK                         _______ _______ _______ _____ _____    ______ ____
ROOT
ATOM      1  C   UNL     1       4.552  -4.244   6.712  0.00  0.00    +0.079 C 
ATOM      2  C   UNL     1       5.395  -4.960   7.492  0.00  0.00    +0.249 C 
ATOM      3  C   UNL     1       6.404  -4.052   8.076  0.00  0.00    +0.288 C 
ATOM      4  O   UNL     1       7.300  -4.394   8.822  0.00  0.00    -0.266 OA
ATOM      5  N   UNL     1       6.184  -2.792   7.661  0.00  0.00    -0.278 N 
ATOM      6  C   UNL     1       5.017  -2.807   6.771  0.00  0.00    +0.180 C 
ATOM      7  O   UNL     1       5.325  -6.294   7.702  0.00  0.00    -0.282 OA
ENDROOT
BRANCH   6   8
ATOM      8  C   UNL     1       5.404  -2.330   5.395  0.00  0.00    +0.130 A 
ATOM      9  C   UNL     1       6.505  -2.698   4.716  0.00  0.00    +0.047 A 
ATOM     10  C   UNL     1       6.469  -2.015   3.478  0.00  0.00    +0.045 A 
ATOM     11  C   UNL     1       5.349  -1.271   3.476  0.00  0.00    +0.102 A 
ATOM     12  O   UNL     1       4.704  -1.470   4.637  0.00  0.00    -0.463 OA
ATOM     13  C   UNL     1       4.891  -0.370   2.357  0.00  0.00    +0.086 C 
ENDBRANCH   6   8
BRANCH   1  14
ATOM     14  C   UNL     1       3.411  -4.763   5.950  0.00  0.00    +0.195 C 
ATOM     15  O   UNL     1       3.226  -5.963   5.874  0.00  0.00    -0.287 OA
BRANCH  14  19
ATOM     16  C   UNL     1       0.752  -2.076   4.014  0.00  0.00    +0.123 A 
ATOM     17  C   UNL     1       1.263  -1.762   5.269  0.00  0.00    +0.046 A 
ATOM     18  C   UNL     1       2.125  -2.630   5.900  0.00  0.00    +0.015 A 
ATOM     19  C   UNL     1       2.487  -3.829   5.278  0.00  0.00    +0.023 A 
ATOM     20  C   UNL     1       1.971  -4.140   4.016  0.00  0.00    +0.018 A 
ATOM     21  C   UNL     1       1.106  -3.269   3.394  0.00  0.00    -0.008 A 
ATOM     22  C   UNL     1       0.545  -3.606   2.036  0.00  0.00    +0.047 C 
BRANCH  16  23
ATOM     23  O   UNL     1      -0.098  -1.218   3.395  0.00  0.00    -0.492 OA
BRANCH  23  24
ATOM     24  C   UNL     1      -0.418  -0.010   4.089  0.00  0.00    +0.229 C 
BRANCH  24  26
ATOM     25  C   UNL     1      -1.725   2.117   3.984  0.00  0.00    +0.007 C 
ATOM     26  C   UNL     1      -1.382   0.824   3.241  0.00  0.00    +0.038 C 
ENDBRANCH  24  26
ENDBRANCH  23  24
ENDBRANCH  16  23
ENDBRANCH  14  19
ENDBRANCH   1  14
BRANCH   5  27
ATOM     27  C   UNL     1       6.974  -1.613   8.026  0.00  0.00    +0.137 C 
BRANCH  27  28
ATOM     28  C   UNL     1       6.394  -0.983   9.293  0.00  0.00    +0.179 C 
BRANCH  28  29
ATOM     29  O   UNL     1       6.376  -1.953  10.343  0.00  0.00    -0.376 OA
BRANCH  29  30
ATOM     30  C   UNL     1       5.751  -1.498  11.544  0.00  0.00    +0.187 C 
BRANCH  30  31
ATOM     31  C   UNL     1       5.895  -2.566  12.630  0.00  0.00    +0.184 C 
BRANCH  31  32
ATOM     32  O   UNL     1       7.281  -2.801  12.886  0.00  0.00    -0.393 OA
ATOM     33  H   UNL     1       7.447  -3.469  13.566  0.00  0.00    +0.209 HD
ENDBRANCH  31  32
ENDBRANCH  30  31
ENDBRANCH  29  30
ENDBRANCH  28  29
ENDBRANCH  27  28
ENDBRANCH   5  27
TORSDOF 12
