REMARK  Name = ZINC40160727
REMARK  12 active torsions:
REMARK  status: ('A' for Active; 'I' for Inactive)
REMARK    1  A    between atoms: C_1  and  O_2
REMARK    2  A    between atoms: O_2  and  C_3
REMARK    3  A    between atoms: C_6  and  C_9
REMARK    4  A    between atoms: C_9  and  C_11
REMARK    5  A    between atoms: C_9  and  N_30
REMARK    6  A    between atoms: C_11  and  N_12
REMARK    7  A    between atoms: N_12  and  C_13
REMARK    8  A    between atoms: C_13  and  C_14
REMARK    9  A    between atoms: C_14  and  C_16
REMARK   10  A    between atoms: C_14  and  O_29
REMARK   11  A    between atoms: C_16  and  O_17
REMARK   12  A    between atoms: O_17  and  C_18
REMARK                            x       y       z     vdW  Elec       q    Type
REMARK                         _______ _______ _______ _____ _____    ______ ____
ROOT
ATOM      1  N   UNL     1      -6.648  -3.921  -1.387  0.00  0.00    +0.380 N 
ATOM      2  H   UNL     1      -6.434  -4.736  -0.832  0.00  0.00    -0.086 HD
ATOM      3  H   UNL     1      -7.375  -3.387  -0.934  0.00  0.00    -0.086 HD
ENDROOT
BRANCH   1   4
ATOM      4  C   UNL     1      -5.443  -3.092  -1.523  0.00  0.00    -0.094 C 
BRANCH   4   5
ATOM      5  C   UNL     1      -4.893  -2.760  -0.135  0.00  0.00    -0.055 C 
BRANCH   5   9
ATOM      6  C   UNL     1      -7.715  -0.342   1.976  0.00  0.00    +0.120 A 
ATOM      7  C   UNL     1      -7.637  -1.704   2.232  0.00  0.00    +0.046 A 
ATOM      8  C   UNL     1      -6.724  -2.483   1.548  0.00  0.00    +0.005 A 
ATOM      9  C   UNL     1      -5.888  -1.907   0.610  0.00  0.00    -0.062 A 
ATOM     10  C   UNL     1      -5.963  -0.551   0.353  0.00  0.00    +0.005 A 
ATOM     11  C   UNL     1      -6.879   0.232   1.030  0.00  0.00    +0.046 A 
BRANCH   6  13
ATOM     12  C   UNL     1      -9.441  -0.232   3.607  0.00  0.00    +0.277 C 
ATOM     13  O   UNL     1      -8.613   0.426   2.647  0.00  0.00    -0.495 OA
ENDBRANCH   6  13
ENDBRANCH   5   9
BRANCH   5  14
ATOM     14  N   UNL     1      -3.627  -2.028  -0.272  0.00  0.00    +0.383 N 
ATOM     15  C   UNL     1      -3.073  -1.707   1.069  0.00  0.00    -0.078 C 
ATOM     16  C   UNL     1      -1.566  -1.481   0.784  0.00  0.00    -0.020 C 
ATOM     17  C   UNL     1      -1.254  -2.544  -0.294  0.00  0.00    -0.020 C 
ATOM     18  C   UNL     1      -2.615  -2.879  -0.934  0.00  0.00    -0.078 C 
ATOM     19  H   UNL     1      -3.770  -1.181  -0.801  0.00  0.00    -0.081 HD
ENDBRANCH   5  14
ENDBRANCH   4   5
ENDBRANCH   1   4
BRANCH   1  20
ATOM     20  C   UNL     1      -7.106  -4.342  -2.718  0.00  0.00    -0.049 C 
BRANCH  20  21
ATOM     21  C   UNL     1      -8.361  -5.206  -2.576  0.00  0.00    +0.123 C 
BRANCH  21  22
ATOM     22  O   UNL     1      -9.425  -4.416  -2.042  0.00  0.00    -0.391 OA
ATOM     23  H   UNL     1      -9.663  -3.655  -2.589  0.00  0.00    +0.210 HD
ENDBRANCH  21  22
BRANCH  21  24
ATOM     24  C   UNL     1      -8.766  -5.746  -3.949  0.00  0.00    +0.190 C 
BRANCH  24  25
ATOM     25  O   UNL     1      -9.867  -6.645  -3.801  0.00  0.00    -0.369 OA
BRANCH  25  26
ATOM     26  C   UNL     1     -10.394  -7.127  -5.039  0.00  0.00    +0.149 C 
ATOM     27  C   UNL     1     -11.421  -6.129  -5.571  0.00  0.00    +0.037 C 
ATOM     28  C   UNL     1     -12.129  -6.760  -6.775  0.00  0.00    +0.007 C 
ATOM     29  C   UNL     1     -13.018  -7.896  -6.271  0.00  0.00    +0.035 C 
ATOM     30  C   UNL     1     -12.233  -8.829  -5.386  0.00  0.00    -0.042 A 
ATOM     31  C   UNL     1     -11.031  -8.474  -4.817  0.00  0.00    -0.016 A 
ATOM     32  C   UNL     1     -10.361  -9.379  -4.005  0.00  0.00    +0.006 A 
ATOM     33  C   UNL     1     -10.890 -10.632  -3.767  0.00  0.00    +0.000 A 
ATOM     34  C   UNL     1     -12.095 -10.988  -4.341  0.00  0.00    +0.000 A 
ATOM     35  C   UNL     1     -12.761 -10.090  -5.147  0.00  0.00    +0.004 A 
ENDBRANCH  25  26
ENDBRANCH  24  25
ENDBRANCH  21  24
ENDBRANCH  20  21
ENDBRANCH   1  20
TORSDOF 11
