REMARK  Name = ZINC40110223
REMARK  12 active torsions:
REMARK  status: ('A' for Active; 'I' for Inactive)
REMARK    1  A    between atoms: C_2  and  C_3
REMARK    2  A    between atoms: C_3  and  O_4
REMARK    3  A    between atoms: O_4  and  C_5
REMARK    4  A    between atoms: C_9  and  C_11
REMARK    5  A    between atoms: C_13  and  C_22
REMARK    6  A    between atoms: N_17  and  C_18
REMARK    7  A    between atoms: C_18  and  C_19
REMARK    8  A    between atoms: C_19  and  O_20
REMARK    9  A    between atoms: C_22  and  C_24
REMARK   10  A    between atoms: C_27  and  O_30
REMARK   11  A    between atoms: O_30  and  C_31
REMARK   12  A    between atoms: C_31  and  C_32
REMARK                            x       y       z     vdW  Elec       q    Type
REMARK                         _______ _______ _______ _____ _____    ______ ____
ROOT
ATOM      1  C   UNL     1      -3.377  -5.257  -2.593  0.00  0.00    +0.145 C 
ATOM      2  C   UNL     1      -3.061  -6.704  -2.292  0.00  0.00    +0.076 C 
ATOM      3  C   UNL     1      -4.125  -7.430  -2.706  0.00  0.00    +0.249 C 
ATOM      4  C   UNL     1      -5.142  -6.521  -3.275  0.00  0.00    +0.288 C 
ATOM      5  O   UNL     1      -6.212  -6.870  -3.732  0.00  0.00    -0.266 OA
ATOM      6  N   UNL     1      -4.707  -5.248  -3.212  0.00  0.00    -0.281 N 
ATOM      7  O   UNL     1      -4.239  -8.775  -2.615  0.00  0.00    -0.282 OA
ENDROOT
BRANCH   1  12
ATOM      8  C   UNL     1      -2.361  -2.858   0.144  0.00  0.00    +0.121 A 
ATOM      9  C   UNL     1      -3.426  -2.981   1.025  0.00  0.00    +0.045 A 
ATOM     10  C   UNL     1      -4.469  -3.838   0.732  0.00  0.00    +0.004 A 
ATOM     11  C   UNL     1      -4.452  -4.573  -0.439  0.00  0.00    +0.006 A 
ATOM     12  C   UNL     1      -3.392  -4.454  -1.318  0.00  0.00    -0.019 A 
ATOM     13  C   UNL     1      -2.349  -3.593  -1.032  0.00  0.00    +0.051 A 
BRANCH   8  14
ATOM     14  O   UNL     1      -1.334  -2.015   0.430  0.00  0.00    -0.488 OA
BRANCH  14  15
ATOM     15  C   UNL     1      -1.413  -1.290   1.659  0.00  0.00    +0.256 C 
BRANCH  15  17
ATOM     16  C   UNL     1      -0.327   0.829   2.196  0.00  0.00    +0.007 C 
ATOM     17  C   UNL     1      -0.196  -0.414   1.805  0.00  0.00    +0.006 C 
ENDBRANCH  15  17
ENDBRANCH  14  15
ENDBRANCH   8  14
ENDBRANCH   1  12
BRANCH   2  18
ATOM     18  C   UNL     1      -1.838  -7.221  -1.669  0.00  0.00    +0.195 C 
ATOM     19  O   UNL     1      -1.893  -7.773  -0.587  0.00  0.00    -0.287 OA
BRANCH  18  20
ATOM     20  C   UNL     1      -0.540  -7.071  -2.357  0.00  0.00    +0.022 A 
ATOM     21  C   UNL     1      -0.488  -6.538  -3.648  0.00  0.00    +0.015 A 
ATOM     22  C   UNL     1       0.724  -6.400  -4.285  0.00  0.00    +0.046 A 
ATOM     23  C   UNL     1       1.896  -6.790  -3.647  0.00  0.00    +0.121 A 
ATOM     24  C   UNL     1       1.849  -7.321  -2.362  0.00  0.00    +0.046 A 
ATOM     25  C   UNL     1       0.641  -7.456  -1.716  0.00  0.00    +0.015 A 
BRANCH  23  26
ATOM     26  O   UNL     1       3.089  -6.652  -4.278  0.00  0.00    -0.487 OA
BRANCH  26  27
ATOM     27  C   UNL     1       4.253  -7.072  -3.564  0.00  0.00    +0.264 C 
BRANCH  27  28
ATOM     28  C   UNL     1       5.475  -6.846  -4.418  0.00  0.00    -0.010 A 
ATOM     29  C   UNL     1       5.915  -7.839  -5.271  0.00  0.00    +0.010 A 
ATOM     30  C   UNL     1       7.035  -7.632  -6.054  0.00  0.00    +0.039 A 
ATOM     31  C   UNL     1       7.715  -6.429  -5.984  0.00  0.00    +0.123 A 
ATOM     32  C   UNL     1       7.274  -5.434  -5.128  0.00  0.00    +0.039 A 
ATOM     33  C   UNL     1       6.151  -5.641  -4.350  0.00  0.00    +0.010 A 
ATOM     34  F   UNL     1       8.810  -6.225  -6.748  0.00  0.00    -0.205 F 
ENDBRANCH  27  28
ENDBRANCH  26  27
ENDBRANCH  23  26
ENDBRANCH  18  20
ENDBRANCH   2  18
BRANCH   6  35
ATOM     35  C   UNL     1      -5.434  -4.063  -3.676  0.00  0.00    +0.137 C 
BRANCH  35  36
ATOM     36  C   UNL     1      -5.082  -3.791  -5.140  0.00  0.00    +0.175 C 
BRANCH  36  37
ATOM     37  O   UNL     1      -5.556  -4.868  -5.952  0.00  0.00    -0.393 OA
ATOM     38  H   UNL     1      -5.368  -4.763  -6.894  0.00  0.00    +0.209 HD
ENDBRANCH  36  37
ENDBRANCH  35  36
ENDBRANCH   6  35
TORSDOF 12
