REMARK  Name = ZINC35938569
REMARK  5 active torsions:
REMARK  status: ('A' for Active; 'I' for Inactive)
REMARK    1  A    between atoms: C_4  and  C_7
REMARK    2  A    between atoms: N_16  and  C_17
REMARK    3  A    between atoms: C_17  and  C_18
REMARK    4  A    between atoms: C_18  and  C_19
REMARK    5  A    between atoms: C_28  and  C_30
REMARK                            x       y       z     vdW  Elec       q    Type
REMARK                         _______ _______ _______ _____ _____    ______ ____
ROOT
ATOM      1  C   UNL     1       2.555  -2.132  -4.335  0.00  0.00    +0.214 C 
ATOM      2  O   UNL     1       2.491  -0.935  -4.522  0.00  0.00    -0.276 OA
ATOM      3  N   UNL     1       2.439  -2.983  -5.374  0.00  0.00    -0.300 N 
ATOM      4  C   UNL     1       2.248  -2.512  -6.701  0.00  0.00    +0.109 C 
ATOM      5  C   UNL     1       0.763  -2.193  -7.072  0.00  0.00    +0.038 C 
ATOM      6  C   UNL     1      -0.130  -3.281  -6.390  0.00  0.00    +0.109 C 
ATOM      7  N   UNL     1       0.427  -4.588  -6.387  0.00  0.00    -0.296 N 
ATOM      8  C   UNL     1       1.157  -5.009  -5.163  0.00  0.00    +0.127 C 
ATOM      9  C   UNL     1       2.512  -4.454  -5.183  0.00  0.00    +0.126 C 
ATOM     10  C   UNL     1       0.299  -5.410  -7.447  0.00  0.00    +0.247 C 
ATOM     11  O   UNL     1      -0.298  -5.036  -8.438  0.00  0.00    -0.270 OA
ENDROOT
BRANCH  10  12
ATOM     12  C   UNL     1       0.885  -6.766  -7.406  0.00  0.00    +0.037 A 
ATOM     13  C   UNL     1       0.270  -7.814  -8.114  0.00  0.00    +0.013 A 
ATOM     14  C   UNL     1       0.788  -9.068  -8.092  0.00  0.00    +0.009 A 
ATOM     15  C   UNL     1       1.956  -9.334  -7.353  0.00  0.00    -0.018 A 
ATOM     16  C   UNL     1       2.512 -10.623  -7.315  0.00  0.00    +0.008 A 
ATOM     17  C   UNL     1       3.643 -10.850  -6.592  0.00  0.00    +0.001 A 
ATOM     18  C   UNL     1       4.262  -9.820  -5.886  0.00  0.00    +0.001 A 
ATOM     19  C   UNL     1       3.753  -8.558  -5.899  0.00  0.00    +0.008 A 
ATOM     20  C   UNL     1       2.586  -8.286  -6.635  0.00  0.00    -0.017 A 
ATOM     21  C   UNL     1       2.039  -6.994  -6.675  0.00  0.00    +0.021 A 
ENDBRANCH  10  12
BRANCH   1  22
ATOM     22  C   UNL     1       2.763  -2.667  -2.942  0.00  0.00    +0.077 C 
BRANCH  22  23
ATOM     23  C   UNL     1       2.861  -1.500  -1.957  0.00  0.00    -0.068 C 
BRANCH  23  32
ATOM     24  C   UNL     1       3.038  -0.907   0.356  0.00  0.00    -0.006 C 
ATOM     25  C   UNL     1       3.352  -1.443   1.749  0.00  0.00    -0.047 A 
ATOM     26  C   UNL     1       3.041  -0.774   2.930  0.00  0.00    +0.010 A 
ATOM     27  C   UNL     1       3.356  -1.327   4.125  0.00  0.00    +0.045 A 
ATOM     28  S   UNL     1       4.127  -2.861   3.629  0.00  0.00    -0.101 S 
ATOM     29  C   UNL     1       3.974  -2.649   1.879  0.00  0.00    -0.010 A 
ATOM     30  C   UNL     1       4.410  -3.546   0.767  0.00  0.00    +0.024 C 
ATOM     31  C   UNL     1       4.350  -2.731  -0.537  0.00  0.00    -0.072 C 
ATOM     32  N   UNL     1       3.064  -2.022  -0.599  0.00  0.00    +0.388 N 
ATOM     33  H   UNL     1       2.320  -2.667  -0.377  0.00  0.00    -0.080 HD
BRANCH  24  37
ATOM     34  C   UNL     1      -0.837   0.891   0.350  0.00  0.00    +0.000 A 
ATOM     35  C   UNL     1       0.293   1.683   0.434  0.00  0.00    +0.000 A 
ATOM     36  C   UNL     1       1.546   1.101   0.437  0.00  0.00    +0.002 A 
ATOM     37  C   UNL     1       1.671  -0.273   0.354  0.00  0.00    -0.057 A 
ATOM     38  C   UNL     1       0.541  -1.065   0.271  0.00  0.00    +0.002 A 
ATOM     39  C   UNL     1      -0.712  -0.484   0.267  0.00  0.00    +0.000 A 
ENDBRANCH  24  37
ENDBRANCH  23  32
ENDBRANCH  22  23
ENDBRANCH   1  22
TORSDOF 5
