REMARK  Name = ZINC39896777
REMARK  11 active torsions:
REMARK  status: ('A' for Active; 'I' for Inactive)
REMARK    1  A    between atoms: C_1  and  C_2
REMARK    2  A    between atoms: C_5  and  C_8
REMARK    3  A    between atoms: C_8  and  C_9
REMARK    4  A    between atoms: N_13  and  C_31
REMARK    5  A    between atoms: C_15  and  C_16
REMARK    6  A    between atoms: C_15  and  C_18
REMARK    7  A    between atoms: N_20  and  C_21
REMARK    8  A    between atoms: C_21  and  C_23
REMARK    9  A    between atoms: C_21  and  C_24
REMARK   10  A    between atoms: C_34  and  C_38
REMARK   11  A    between atoms: C_35  and  C_37
REMARK                            x       y       z     vdW  Elec       q    Type
REMARK                         _______ _______ _______ _____ _____    ______ ____
ROOT
ATOM      1  C   UNL     1       2.255  -4.768   0.096  0.00  0.00    +0.143 C 
ATOM      2  C   UNL     1       2.131  -6.283   0.098  0.00  0.00    +0.238 C 
ATOM      3  O   UNL     1       2.184  -6.934   1.119  0.00  0.00    -0.274 OA
ATOM      4  N   UNL     1       1.960  -6.846  -1.086  0.00  0.00    -0.232 N 
ATOM      5  C   UNL     1       1.899  -6.119  -2.250  0.00  0.00    +0.098 C 
ATOM      6  C   UNL     1       1.724  -6.590  -3.552  0.00  0.00    +0.141 C 
ATOM      7  S   UNL     1       2.095  -4.427  -1.706  0.00  0.00    -0.095 S 
ENDROOT
BRANCH   4   8
ATOM      8  C   UNL     1       1.839  -8.240  -1.157  0.00  0.00    +0.042 A 
ATOM      9  C   UNL     1       2.971  -9.032  -1.295  0.00  0.00    +0.024 A 
ATOM     10  C   UNL     1       2.848 -10.405  -1.364  0.00  0.00    +0.005 A 
ATOM     11  C   UNL     1       1.598 -10.993  -1.296  0.00  0.00    -0.047 A 
ATOM     12  C   UNL     1       0.468 -10.208  -1.159  0.00  0.00    -0.046 A 
ATOM     13  C   UNL     1       0.586  -8.834  -1.083  0.00  0.00    +0.027 A 
ATOM     14  C   UNL     1      -0.892 -10.852  -1.085  0.00  0.00    +0.044 C 
ATOM     15  C   UNL     1       1.466 -12.492  -1.373  0.00  0.00    +0.044 C 
ENDBRANCH   4   8
BRANCH   6  16
ATOM     16  C   UNL     1       1.576  -5.645  -4.658  0.00  0.00    +0.257 C 
ATOM     17  O   UNL     1       1.606  -4.447  -4.443  0.00  0.00    -0.269 OA
ATOM     18  N   UNL     1       1.408  -6.100  -5.915  0.00  0.00    -0.304 N 
ATOM     19  H   UNL     1       1.385  -7.054  -6.087  0.00  0.00    +0.150 HD
BRANCH  18  20
ATOM     20  C   UNL     1       1.260  -5.153  -7.024  0.00  0.00    +0.100 C 
ATOM     21  C   UNL     1      -0.205  -4.727  -7.138  0.00  0.00    +0.033 C 
BRANCH  20  22
ATOM     22  C   UNL     1       1.693  -5.811  -8.308  0.00  0.00    -0.027 A 
ATOM     23  C   UNL     1       1.360  -7.129  -8.556  0.00  0.00    +0.005 A 
ATOM     24  C   UNL     1       1.757  -7.733  -9.735  0.00  0.00    +0.000 A 
ATOM     25  C   UNL     1       2.488  -7.018 -10.665  0.00  0.00    +0.000 A 
ATOM     26  C   UNL     1       2.821  -5.699 -10.417  0.00  0.00    +0.000 A 
ATOM     27  C   UNL     1       2.420  -5.094  -9.241  0.00  0.00    +0.005 A 
ENDBRANCH  20  22
ENDBRANCH  18  20
ENDBRANCH   6  16
BRANCH   6  28
ATOM     28  C   UNL     1       1.690  -7.999  -3.805  0.00  0.00    +0.107 C 
ATOM     29  N   UNL     1       1.663  -9.117  -4.006  0.00  0.00    -0.191 NA
ENDBRANCH   6  28
BRANCH   1  30
ATOM     30  C   UNL     1       1.119  -4.117   0.887  0.00  0.00    +0.059 C 
BRANCH  30  35
ATOM     31  C   UNL     1       1.798   1.622   0.873  0.00  0.00    +0.044 C 
ATOM     32  C   UNL     1       1.621   0.125   0.877  0.00  0.00    -0.050 A 
ATOM     33  C   UNL     1       0.887  -0.486  -0.123  0.00  0.00    +0.003 A 
ATOM     34  C   UNL     1       0.725  -1.859  -0.119  0.00  0.00    +0.004 A 
ATOM     35  C   UNL     1       1.296  -2.620   0.883  0.00  0.00    -0.046 A 
ATOM     36  C   UNL     1       2.031  -2.009   1.882  0.00  0.00    +0.004 A 
ATOM     37  C   UNL     1       2.197  -0.636   1.876  0.00  0.00    +0.003 A 
ENDBRANCH  30  35
ENDBRANCH   1  30
TORSDOF 7
