REMARK  Name = ZINC38188164
REMARK  7 active torsions:
REMARK  status: ('A' for Active; 'I' for Inactive)
REMARK    1  A    between atoms: C_1  and  C_2
REMARK    2  A    between atoms: N_5  and  C_8
REMARK    3  A    between atoms: C_8  and  C_9
REMARK    4  A    between atoms: C_10  and  O_32
REMARK    5  A    between atoms: C_16  and  C_28
REMARK    6  A    between atoms: C_17  and  O_20
REMARK    7  A    between atoms: O_20  and  C_21
REMARK                            x       y       z     vdW  Elec       q    Type
REMARK                         _______ _______ _______ _____ _____    ______ ____
ROOT
ATOM      1  C   UNL     1      -0.550  -4.585   2.312  0.00  0.00    +0.020 A 
ATOM      2  C   UNL     1       0.790  -4.902   2.172  0.00  0.00    +0.122 A 
ATOM      3  C   UNL     1       1.538  -5.321   3.270  0.00  0.00    +0.046 A 
ATOM      4  C   UNL     1       0.958  -5.425   4.502  0.00  0.00    +0.019 A 
ATOM      5  C   UNL     1      -0.392  -5.108   4.660  0.00  0.00    +0.068 A 
ATOM      6  C   UNL     1      -1.154  -4.680   3.558  0.00  0.00    +0.144 A 
ATOM      7  O   UNL     1      -2.456  -4.373   3.723  0.00  0.00    -0.447 OA
ATOM      8  C   UNL     1      -3.068  -4.454   4.912  0.00  0.00    +0.254 A 
ATOM      9  C   UNL     1      -2.432  -4.848   6.033  0.00  0.00    +0.222 A 
ATOM     10  C   UNL     1      -1.056  -5.207   5.971  0.00  0.00    +0.235 A 
ATOM     11  O   UNL     1      -0.448  -5.569   6.965  0.00  0.00    -0.283 OA
ENDROOT
BRANCH   8  12
ATOM     12  C   UNL     1      -4.527  -4.090   4.999  0.00  0.00    +0.454 C 
ATOM     13  F   UNL     1      -5.002  -4.369   6.285  0.00  0.00    -0.163 F 
ATOM     14  F   UNL     1      -4.684  -2.726   4.730  0.00  0.00    -0.163 F 
ATOM     15  F   UNL     1      -5.251  -4.836   4.063  0.00  0.00    -0.163 F 
ENDBRANCH   8  12
BRANCH   2  16
ATOM     16  O   UNL     1       1.381  -4.804   0.954  0.00  0.00    -0.506 OA
ATOM     17  H   UNL     1       1.769  -3.937   0.773  0.00  0.00    +0.292 HD
ENDBRANCH   2  16
BRANCH   1  18
ATOM     18  C   UNL     1      -1.349  -4.133   1.117  0.00  0.00    -0.036 C 
BRANCH  18  23
ATOM     19  C   UNL     1      -0.639   1.308  -0.438  0.00  0.00    +0.007 C 
ATOM     20  C   UNL     1      -0.682  -0.222  -0.437  0.00  0.00    -0.018 C 
ATOM     21  C   UNL     1      -2.115  -0.693  -0.173  0.00  0.00    -0.016 C 
ATOM     22  C   UNL     1      -2.138  -2.221  -0.095  0.00  0.00    -0.078 C 
ATOM     23  N   UNL     1      -1.264  -2.671   0.995  0.00  0.00    +0.383 N 
ATOM     24  C   UNL     1       0.123  -2.285   0.714  0.00  0.00    -0.078 C 
ATOM     25  C   UNL     1       0.233  -0.760   0.666  0.00  0.00    -0.016 C 
ATOM     26  H   UNL     1      -1.562  -2.246   1.861  0.00  0.00    -0.081 HD
ENDBRANCH  18  23
ENDBRANCH   1  18
BRANCH   9  27
ATOM     27  O   UNL     1      -3.105  -4.912   7.215  0.00  0.00    -0.447 OA
BRANCH  27  28
ATOM     28  C   UNL     1      -2.751  -4.043   8.198  0.00  0.00    +0.143 A 
ATOM     29  C   UNL     1      -1.814  -3.051   7.945  0.00  0.00    +0.047 A 
ATOM     30  C   UNL     1      -1.456  -2.169   8.945  0.00  0.00    +0.004 A 
ATOM     31  C   UNL     1      -2.031  -2.272  10.199  0.00  0.00    +0.001 A 
ATOM     32  C   UNL     1      -2.965  -3.259  10.455  0.00  0.00    +0.019 A 
ATOM     33  C   UNL     1      -3.330  -4.142   9.456  0.00  0.00    +0.060 A 
ATOM     34 BR   UNL     1      -4.613  -5.487   9.803  0.00  0.00    -0.046 Br
ENDBRANCH  27  28
ENDBRANCH   9  27
TORSDOF 6
