REMARK  Name = ZINC02267552
REMARK  3 active torsions:
REMARK  status: ('A' for Active; 'I' for Inactive)
REMARK    1  A    between atoms: C_3  and  C_9
REMARK    2  A    between atoms: C_6  and  P_7
REMARK    3  A    between atoms: C_6  and  N_19
REMARK                            x       y       z     vdW  Elec       q    Type
REMARK                         _______ _______ _______ _____ _____    ______ ____
ROOT
ATOM      1  C   UNL     1      -0.080   0.392  -0.112  0.00  0.00    -0.020 C 
ATOM      2  C   UNL     1       0.038   1.919  -0.326  0.00  0.00    -0.006 C 
ATOM      3  C   UNL     1       1.569   2.156  -0.299  0.00  0.00    +0.048 C 
ATOM      4  C   UNL     1       1.286  -0.180  -0.538  0.00  0.00    -0.077 C 
ATOM      5  N   UNL     1       2.083   0.962  -0.989  0.00  0.00    +0.396 N 
ATOM      6  H   UNL     1       1.981   1.077  -2.004  0.00  0.00    -0.080 HD
ENDROOT
BRANCH   3   7
ATOM      7  C   UNL     1       1.925   3.414  -1.049  0.00  0.00    +0.343 C 
ATOM      8  O   UNL     1       2.640   3.356  -2.021  0.00  0.00    -0.248 OA
ATOM      9  O   UNL     1       1.448   4.599  -0.636  0.00  0.00    -0.248 OA
ENDBRANCH   3   7
BRANCH   5  10
ATOM     10  C   UNL     1       3.526   0.753  -0.661  0.00  0.00    +0.057 C 
BRANCH  10  11
ATOM     11  P   UNL     1       4.170  -0.668  -1.603  0.00  0.00    +0.371 P 
ATOM     12  O   UNL     1       3.917  -0.459  -3.047  0.00  0.00    -0.256 OA
ATOM     13  O   UNL     1       5.755  -0.805  -1.351  0.00  0.00    -0.140 OA
ATOM     14  O   UNL     1       3.431  -2.014  -1.119  0.00  0.00    -0.140 OA
ENDBRANCH  10  11
ENDBRANCH   5  10
TORSDOF 3
