REMARK  Name = ZINC33783167
REMARK  6 active torsions:
REMARK  status: ('A' for Active; 'I' for Inactive)
REMARK    1  A    between atoms: C_1  and  C_2
REMARK    2  A    between atoms: C_2  and  C_10
REMARK    3  A    between atoms: C_3  and  C_4
REMARK    4  A    between atoms: C_16  and  S_18
REMARK    5  A    between atoms: S_18  and  C_21
REMARK    6  A    between atoms: C_24  and  N_27
REMARK                            x       y       z     vdW  Elec       q    Type
REMARK                         _______ _______ _______ _____ _____    ______ ____
ROOT
ATOM      1  C   UNL     1      -0.853  -0.582  -1.148  0.00  0.00    +0.245 C 
ATOM      2  O   UNL     1      -1.218  -1.742  -1.109  0.00  0.00    -0.270 OA
ATOM      3  N   UNL     1      -1.023   0.141  -2.273  0.00  0.00    -0.261 N 
ATOM      4  C   UNL     1      -1.613  -0.440  -3.388  0.00  0.00    +0.166 A 
ATOM      5  N   UNL     1      -2.069  -1.666  -3.527  0.00  0.00    -0.231 NA
ATOM      6  C   UNL     1      -2.607  -2.069  -4.663  0.00  0.00    +0.148 A 
ATOM      7  C   UNL     1      -2.667  -1.165  -5.671  0.00  0.00    +0.152 A 
ATOM      8  S   UNL     1      -1.925   0.258  -4.888  0.00  0.00    -0.033 S 
ATOM      9  H   UNL     1      -0.732   1.065  -2.304  0.00  0.00    +0.157 HD
ENDROOT
BRANCH   1  11
ATOM     10  C   UNL     1       0.068   1.507   0.040  0.00  0.00    +0.049 C 
ATOM     11  C   UNL     1      -0.231   0.030   0.028  0.00  0.00    +0.012 C 
ATOM     12  C   UNL     1       0.074  -0.729   1.100  0.00  0.00    +0.016 C 
BRANCH  12  13
ATOM     13  C   UNL     1       0.006  -2.196   1.007  0.00  0.00    -0.025 A 
ATOM     14  C   UNL     1       0.581  -2.859  -0.082  0.00  0.00    +0.008 A 
ATOM     15  C   UNL     1       0.514  -4.234  -0.162  0.00  0.00    +0.001 A 
ATOM     16  C   UNL     1      -0.121  -4.958   0.833  0.00  0.00    +0.000 A 
ATOM     17  C   UNL     1      -0.692  -4.309   1.914  0.00  0.00    +0.001 A 
ATOM     18  C   UNL     1      -0.628  -2.935   2.010  0.00  0.00    +0.008 A 
ENDBRANCH  12  13
ENDBRANCH   1  11
BRANCH   7  19
ATOM     19  S   UNL     1      -3.308  -1.342  -7.303  0.00  0.00    +0.033 S 
ATOM     20  O   UNL     1      -2.657  -0.365  -8.103  0.00  0.00    -0.164 OA
ATOM     21  O   UNL     1      -3.264  -2.729  -7.608  0.00  0.00    -0.164 OA
BRANCH  19  22
ATOM     22  C   UNL     1      -5.011  -0.893  -7.245  0.00  0.00    +0.094 A 
ATOM     23  C   UNL     1      -5.970  -1.852  -6.979  0.00  0.00    +0.029 A 
ATOM     24  C   UNL     1      -7.306  -1.500  -6.934  0.00  0.00    +0.034 A 
ATOM     25  C   UNL     1      -7.683  -0.188  -7.155  0.00  0.00    +0.126 A 
ATOM     26  C   UNL     1      -6.724   0.771  -7.420  0.00  0.00    +0.034 A 
ATOM     27  C   UNL     1      -5.387   0.420  -7.461  0.00  0.00    +0.029 A 
BRANCH  25  28
ATOM     28  N   UNL     1      -9.113   0.189  -7.108  0.00  0.00    +0.056 N 
ATOM     29  O   UNL     1      -9.953  -0.650  -6.876  0.00  0.00    -0.126 OA
ATOM     30  O   UNL     1      -9.443   1.336  -7.301  0.00  0.00    -0.126 OA
ENDBRANCH  25  28
ENDBRANCH  19  22
ENDBRANCH   7  19
TORSDOF 5
