REMARK  Name = ZINC40935759
REMARK  9 active torsions:
REMARK  status: ('A' for Active; 'I' for Inactive)
REMARK    1  A    between atoms: N_9  and  C_12
REMARK    2  A    between atoms: C_15  and  C_18
REMARK    3  A    between atoms: C_18  and  O_20
REMARK    4  A    between atoms: O_20  and  C_21
REMARK    5  A    between atoms: C_24  and  C_27
REMARK    6  A    between atoms: C_28  and  C_29
REMARK    7  A    between atoms: C_28  and  C_31
REMARK    8  A    between atoms: N_33  and  C_34
REMARK    9  A    between atoms: C_34  and  C_35
REMARK                            x       y       z     vdW  Elec       q    Type
REMARK                         _______ _______ _______ _____ _____    ______ ____
ROOT
ATOM      1  O   UNL     1       6.770  -7.374   0.771  0.00  0.00    -0.422 OA
ENDROOT
BRANCH   1   2
ATOM      2  C   UNL     1       7.627  -8.408   0.580  0.00  0.00    +0.132 A 
ATOM      3  C   UNL     1       7.143  -9.712   0.542  0.00  0.00    +0.047 A 
ATOM      4  C   UNL     1       8.004 -10.761   0.350  0.00  0.00    +0.011 A 
ATOM      5  C   UNL     1       9.376 -10.518   0.191  0.00  0.00    -0.023 A 
ATOM      6  C   UNL     1       9.858  -9.202   0.229  0.00  0.00    +0.011 A 
ATOM      7  C   UNL     1       8.986  -8.161   0.417  0.00  0.00    +0.047 A 
BRANCH   5   8
ATOM      8  C   UNL     1      10.302 -11.634  -0.014  0.00  0.00    +0.032 C 
ATOM      9  C   UNL     1       9.901 -12.738  -0.734  0.00  0.00    +0.114 C 
BRANCH   9  10
ATOM     10  C   UNL     1      10.765 -13.928  -0.800  0.00  0.00    +0.255 C 
ATOM     11  O   UNL     1      11.833 -13.936  -0.218  0.00  0.00    -0.269 OA
ATOM     12  N   UNL     1      10.372 -15.008  -1.504  0.00  0.00    -0.304 N 
ATOM     13  H   UNL     1       9.520 -15.001  -1.968  0.00  0.00    +0.149 HD
BRANCH  12  14
ATOM     14  C   UNL     1      11.233 -16.192  -1.569  0.00  0.00    +0.179 C 
BRANCH  14  15
ATOM     15  C   UNL     1      10.568 -17.249  -2.413  0.00  0.00    +0.122 A 
ATOM     16  C   UNL     1      10.713 -17.402  -3.741  0.00  0.00    +0.046 A 
ATOM     17  C   UNL     1       9.916 -18.508  -4.116  0.00  0.00    +0.041 A 
ATOM     18  C   UNL     1       9.333 -18.966  -2.993  0.00  0.00    +0.195 A 
ATOM     19  O   UNL     1       9.736 -18.203  -1.964  0.00  0.00    -0.466 OA
ENDBRANCH  14  15
ENDBRANCH  12  14
ENDBRANCH   9  10
BRANCH   9  20
ATOM     20  C   UNL     1       8.643 -12.728  -1.419  0.00  0.00    +0.104 C 
ATOM     21  N   UNL     1       7.645 -12.720  -1.962  0.00  0.00    -0.191 NA
ENDBRANCH   9  20
ENDBRANCH   5   8
ENDBRANCH   1   2
BRANCH   1  22
ATOM     22  C   UNL     1       6.310  -7.155   2.019  0.00  0.00    +0.344 C 
ATOM     23  O   UNL     1       6.593  -7.926   2.914  0.00  0.00    -0.245 OA
BRANCH  22  27
ATOM     24  C   UNL     1       3.875  -3.771   2.821  0.00  0.00    +0.045 A 
ATOM     25  C   UNL     1       4.197  -4.652   3.848  0.00  0.00    +0.025 A 
ATOM     26  C   UNL     1       4.987  -5.751   3.591  0.00  0.00    +0.017 A 
ATOM     27  C   UNL     1       5.464  -5.980   2.297  0.00  0.00    +0.060 A 
ATOM     28  C   UNL     1       5.138  -5.092   1.268  0.00  0.00    +0.017 A 
ATOM     29  C   UNL     1       4.343  -3.998   1.531  0.00  0.00    +0.025 A 
BRANCH  24  38
ATOM     30  C   UNL     1       0.407   0.807   4.615  0.00  0.00    +0.001 A 
ATOM     31  C   UNL     1       0.488   1.180   3.286  0.00  0.00    +0.001 A 
ATOM     32  C   UNL     1       1.215   0.418   2.385  0.00  0.00    +0.014 A 
ATOM     33  C   UNL     1       1.864  -0.727   2.820  0.00  0.00    +0.050 A 
ATOM     34  C   UNL     1       1.782  -1.107   4.175  0.00  0.00    +0.050 A 
ATOM     35  C   UNL     1       1.051  -0.336   5.064  0.00  0.00    +0.014 A 
ATOM     36  C   UNL     1       2.573  -2.350   4.295  0.00  0.00    +0.258 C 
ATOM     37  O   UNL     1       2.742  -2.987   5.315  0.00  0.00    -0.269 OA
ATOM     38  N   UNL     1       3.074  -2.657   3.085  0.00  0.00    -0.202 N 
ATOM     39  C   UNL     1       2.703  -1.751   2.163  0.00  0.00    +0.258 C 
ATOM     40  O   UNL     1       3.006  -1.771   0.987  0.00  0.00    -0.269 OA
ENDBRANCH  24  38
ENDBRANCH  22  27
ENDBRANCH   1  22
TORSDOF 9
