REMARK  Name = ZINC40033221
REMARK  5 active torsions:
REMARK  status: ('A' for Active; 'I' for Inactive)
REMARK    1  A    between atoms: C_1  and  C_2
REMARK    2  A    between atoms: C_2  and  C_33
REMARK    3  A    between atoms: N_14  and  C_27
REMARK    4  A    between atoms: N_17  and  N_18
REMARK    5  A    between atoms: C_19  and  C_20
REMARK                            x       y       z     vdW  Elec       q    Type
REMARK                         _______ _______ _______ _____ _____    ______ ____
ROOT
ATOM      1  C   UNL     1      -0.530   0.613  -0.386  0.00  0.00    +0.016 C 
ATOM      2  C   UNL     1      -0.395  -0.871  -0.038  0.00  0.00    +0.001 C 
ATOM      3  C   UNL     1      -1.783  -1.457   0.211  0.00  0.00    +0.047 C 
ATOM      4  C   UNL     1      -2.367  -0.907   1.484  0.00  0.00    -0.037 A 
ATOM      5  C   UNL     1      -3.721  -0.662   1.583  0.00  0.00    +0.004 A 
ATOM      6  C   UNL     1      -4.252  -0.160   2.758  0.00  0.00    +0.000 A 
ATOM      7  C   UNL     1      -3.431   0.099   3.842  0.00  0.00    +0.001 A 
ATOM      8  C   UNL     1      -2.075  -0.142   3.756  0.00  0.00    +0.010 A 
ATOM      9  C   UNL     1      -1.537  -0.644   2.575  0.00  0.00    +0.004 A 
ATOM     10  C   UNL     1      -0.085  -0.902   2.449  0.00  0.00    +0.084 A 
ATOM     11  C   UNL     1       0.469  -1.017   1.182  0.00  0.00    +0.049 A 
ATOM     12  C   UNL     1       1.841  -1.269   1.065  0.00  0.00    +0.264 A 
ATOM     13  O   UNL     1       2.364  -1.378  -0.033  0.00  0.00    -0.267 OA
ATOM     14  N   UNL     1       2.575  -1.390   2.193  0.00  0.00    -0.248 N 
ATOM     15  C   UNL     1       1.982  -1.263   3.414  0.00  0.00    +0.223 A 
ATOM     16  N   UNL     1       0.692  -1.026   3.531  0.00  0.00    -0.214 NA
ATOM     17  N   UNL     1       2.747  -1.385   4.546  0.00  0.00    -0.206 N 
ATOM     18  C   UNL     1       0.259  -1.606  -1.210  0.00  0.00    +0.016 C 
ATOM     19  H   UNL     1       3.683  -1.627   4.475  0.00  0.00    +0.177 HD
ENDROOT
BRANCH  14  20
ATOM     20  C   UNL     1       3.949  -1.645   2.107  0.00  0.00    +0.053 A 
ATOM     21  C   UNL     1       4.415  -2.954   2.106  0.00  0.00    +0.026 A 
ATOM     22  C   UNL     1       5.771  -3.203   2.022  0.00  0.00    +0.002 A 
ATOM     23  C   UNL     1       6.664  -2.151   1.938  0.00  0.00    +0.000 A 
ATOM     24  C   UNL     1       6.204  -0.847   1.938  0.00  0.00    +0.002 A 
ATOM     25  C   UNL     1       4.849  -0.592   2.017  0.00  0.00    +0.026 A 
ENDBRANCH  14  20
BRANCH  17  26
ATOM     26  N   UNL     1       2.175  -1.159   5.805  0.00  0.00    -0.188 NA
ATOM     27  C   UNL     1       2.898  -1.274   6.877  0.00  0.00    +0.138 C 
BRANCH  27  28
ATOM     28  C   UNL     1       2.296  -1.036   8.202  0.00  0.00    -0.005 A 
ATOM     29  C   UNL     1       0.947  -0.692   8.308  0.00  0.00    +0.010 A 
ATOM     30  C   UNL     1       0.390  -0.471   9.550  0.00  0.00    +0.016 A 
ATOM     31  C   UNL     1       1.166  -0.589  10.691  0.00  0.00    +0.018 A 
ATOM     32  C   UNL     1       2.505  -0.928  10.592  0.00  0.00    +0.016 A 
ATOM     33  C   UNL     1       3.072  -1.159   9.357  0.00  0.00    +0.010 A 
ATOM     34 BR   UNL     1       0.395  -0.283  12.390  0.00  0.00    -0.050 Br
ENDBRANCH  27  28
ENDBRANCH  17  26
TORSDOF 3
