REMARK  Name = ZINC36120572
REMARK  9 active torsions:
REMARK  status: ('A' for Active; 'I' for Inactive)
REMARK    1  A    between atoms: C_1  and  C_2
REMARK    2  A    between atoms: C_5  and  C_8
REMARK    3  A    between atoms: N_10  and  C_11
REMARK    4  A    between atoms: N_10  and  C_18
REMARK    5  A    between atoms: C_11  and  C_12
REMARK    6  A    between atoms: C_18  and  C_19
REMARK    7  A    between atoms: C_29  and  C_31
REMARK    8  A    between atoms: C_31  and  O_32
REMARK    9  A    between atoms: O_32  and  C_33
REMARK                            x       y       z     vdW  Elec       q    Type
REMARK                         _______ _______ _______ _____ _____    ______ ____
ROOT
ATOM      1  C   UNL     1       1.414  -6.881   1.118  0.00  0.00    +0.234 C 
ATOM      2  O   UNL     1       2.327  -6.083   1.118  0.00  0.00    -0.274 OA
ATOM      3  N   UNL     1       1.674  -8.203   1.107  0.00  0.00    -0.289 N 
ATOM      4  C   UNL     1       0.575  -9.180   1.101  0.00  0.00    +0.114 C 
ATOM      5  C   UNL     1       0.625  -9.954  -0.225  0.00  0.00    +0.061 C 
ATOM      6  C   UNL     1       2.047 -10.304  -0.521  0.00  0.00    -0.004 A 
ATOM      7  C   UNL     1       3.171  -9.773   0.030  0.00  0.00    -0.014 A 
ATOM      8  C   UNL     1       4.389 -10.271  -0.429  0.00  0.00    +0.013 A 
ATOM      9  C   UNL     1       4.412 -11.238  -1.374  0.00  0.00    +0.046 A 
ATOM     10  S   UNL     1       2.670 -11.502  -1.671  0.00  0.00    -0.101 S 
ATOM     11  C   UNL     1       3.061  -8.689   1.096  0.00  0.00    +0.144 C 
ENDROOT
BRANCH   1  12
ATOM     12  C   UNL     1      -0.012  -6.394   1.130  0.00  0.00    +0.204 C 
BRANCH  12  15
ATOM     13  C   UNL     1      -0.170  -4.248  -0.014  0.00  0.00    +0.247 C 
ATOM     14  O   UNL     1      -0.093  -3.035  -0.018  0.00  0.00    -0.270 OA
ATOM     15  N   UNL     1      -0.028  -4.929   1.140  0.00  0.00    -0.286 N 
BRANCH  13  20
ATOM     16  C   UNL     1      -1.139  -7.087  -4.926  0.00  0.00    +0.044 C 
ATOM     17  C   UNL     1      -0.885  -6.343  -3.639  0.00  0.00    -0.050 A 
ATOM     18  C   UNL     1       0.161  -6.725  -2.818  0.00  0.00    +0.004 A 
ATOM     19  C   UNL     1       0.399  -6.049  -1.640  0.00  0.00    +0.013 A 
ATOM     20  C   UNL     1      -0.418  -4.977  -1.276  0.00  0.00    +0.037 A 
ATOM     21  C   UNL     1      -1.472  -4.598  -2.109  0.00  0.00    +0.013 A 
ATOM     22  C   UNL     1      -1.696  -5.279  -3.288  0.00  0.00    +0.004 A 
ENDBRANCH  13  20
BRANCH  15  23
ATOM     23  C   UNL     1       0.111  -4.204   2.406  0.00  0.00    +0.140 C 
BRANCH  23  24
ATOM     24  C   UNL     1      -1.260  -4.078   3.074  0.00  0.00    +0.136 C 
ATOM     25  C   UNL     1      -1.141  -3.283   4.399  0.00  0.00    +0.035 C 
ATOM     26  C   UNL     1      -2.587  -2.732   4.542  0.00  0.00    +0.031 C 
ATOM     27  C   UNL     1      -2.993  -2.491   3.072  0.00  0.00    +0.160 C 
ATOM     28  O   UNL     1      -2.148  -3.307   2.250  0.00  0.00    -0.375 OA
ENDBRANCH  23  24
ENDBRANCH  15  23
ENDBRANCH  12  15
ENDBRANCH   1  12
BRANCH  11  29
ATOM     29  C   UNL     1       3.415  -9.276   2.464  0.00  0.00    +0.256 C 
BRANCH  29  30
ATOM     30  O   UNL     1       2.615 -10.434   2.708  0.00  0.00    -0.487 OA
BRANCH  30  31
ATOM     31  C   UNL     1       2.807 -11.079   3.889  0.00  0.00    +0.156 A 
ATOM     32  C   UNL     1       3.742 -10.605   4.796  0.00  0.00    +0.048 A 
ATOM     33  C   UNL     1       3.936 -11.263   5.995  0.00  0.00    +0.004 A 
ATOM     34  C   UNL     1       3.199 -12.394   6.293  0.00  0.00    +0.003 A 
ATOM     35  C   UNL     1       2.265 -12.871   5.391  0.00  0.00    +0.042 A 
ATOM     36  C   UNL     1       2.062 -12.213   4.191  0.00  0.00    +0.165 A 
ATOM     37  F   UNL     1       1.146 -12.675   3.313  0.00  0.00    -0.202 F 
ENDBRANCH  30  31
ENDBRANCH  29  30
ENDBRANCH  11  29
TORSDOF 8
