REMARK  Name = ZINC40978831
REMARK  12 active torsions:
REMARK  status: ('A' for Active; 'I' for Inactive)
REMARK    1  A    between atoms: C_1  and  C_2
REMARK    2  A    between atoms: C_2  and  O_3
REMARK    3  A    between atoms: O_3  and  C_4
REMARK    4  A    between atoms: C_6  and  C_19
REMARK    5  A    between atoms: C_9  and  O_10
REMARK    6  A    between atoms: O_10  and  C_11
REMARK    7  A    between atoms: C_11  and  C_12
REMARK    8  A    between atoms: C_21  and  C_30
REMARK    9  A    between atoms: C_22  and  C_29
REMARK   10  A    between atoms: C_30  and  O_32
REMARK   11  A    between atoms: O_32  and  C_33
REMARK   12  A    between atoms: C_33  and  C_34
REMARK                            x       y       z     vdW  Elec       q    Type
REMARK                         _______ _______ _______ _____ _____    ______ ____
ROOT
ATOM      1  C   UNL     1       0.614  -1.744   1.153  0.00  0.00    +0.162 A 
ATOM      2  C   UNL     1       0.204  -2.642   0.181  0.00  0.00    +0.055 A 
ATOM      3  C   UNL     1       0.280  -4.002   0.420  0.00  0.00    -0.015 A 
ATOM      4  C   UNL     1       0.766  -4.468   1.628  0.00  0.00    +0.010 A 
ATOM      5  C   UNL     1       1.176  -3.577   2.602  0.00  0.00    +0.050 A 
ATOM      6  C   UNL     1       1.108  -2.213   2.366  0.00  0.00    +0.162 A 
ENDROOT
BRANCH   3   7
ATOM      7  C   UNL     1      -0.166  -4.977  -0.638  0.00  0.00    +0.181 C 
ATOM      8  C   UNL     1      -1.286  -5.827  -0.097  0.00  0.00    +0.082 C 
ATOM      9  C   UNL     1      -1.136  -7.122   0.221  0.00  0.00    +0.020 C 
ATOM     10  N   UNL     1       0.058  -7.782   0.065  0.00  0.00    -0.286 N 
ATOM     11  C   UNL     1       1.046  -7.146  -0.673  0.00  0.00    +0.240 A 
ATOM     12  N   UNL     1       0.953  -5.833  -1.014  0.00  0.00    -0.201 N 
ATOM     13  N   UNL     1       2.105  -5.553  -1.746  0.00  0.00    -0.042 NA
ATOM     14  N   UNL     1       2.786  -6.653  -1.793  0.00  0.00    -0.021 NA
ATOM     15  N   UNL     1       2.167  -7.593  -1.161  0.00  0.00    -0.092 NA
ATOM     16  C   UNL     1      -2.319  -7.879   0.768  0.00  0.00    +0.061 C 
ATOM     17  H   UNL     1       0.205  -8.657   0.455  0.00  0.00    +0.155 HD
BRANCH   8  18
ATOM     18  C   UNL     1      -2.555  -5.232   0.085  0.00  0.00    +0.339 C 
ATOM     19  O   UNL     1      -3.306  -5.100  -0.863  0.00  0.00    -0.245 OA
BRANCH  18  20
ATOM     20  O   UNL     1      -2.933  -4.810   1.310  0.00  0.00    -0.457 OA
BRANCH  20  21
ATOM     21  C   UNL     1      -4.229  -4.218   1.421  0.00  0.00    +0.259 C 
BRANCH  21  22
ATOM     22  C   UNL     1      -4.474  -3.812   2.851  0.00  0.00    +0.006 C 
ATOM     23  C   UNL     1      -4.990  -2.638   3.119  0.00  0.00    +0.007 C 
ENDBRANCH  21  22
ENDBRANCH  20  21
ENDBRANCH  18  20
ENDBRANCH   8  18
ENDBRANCH   3   7
BRANCH   1  24
ATOM     24  O   UNL     1       0.539  -0.406   0.919  0.00  0.00    -0.489 OA
BRANCH  24  26
ATOM     25  C   UNL     1       0.015   1.531  -0.427  0.00  0.00    +0.048 C 
ATOM     26  C   UNL     1       0.022   0.003  -0.348  0.00  0.00    +0.226 C 
ENDBRANCH  24  26
ENDBRANCH   1  24
BRANCH   6  27
ATOM     27  O   UNL     1       1.517  -1.335   3.321  0.00  0.00    -0.484 OA
BRANCH  27  28
ATOM     28  C   UNL     1       2.013  -1.889   4.542  0.00  0.00    +0.264 C 
BRANCH  28  29
ATOM     29  C   UNL     1       2.415  -0.773   5.472  0.00  0.00    -0.010 A 
ATOM     30  C   UNL     1       3.705  -0.277   5.437  0.00  0.00    +0.008 A 
ATOM     31  C   UNL     1       4.075   0.746   6.290  0.00  0.00    +0.020 A 
ATOM     32  C   UNL     1       3.155   1.273   7.178  0.00  0.00    +0.041 A 
ATOM     33  C   UNL     1       1.864   0.775   7.213  0.00  0.00    +0.020 A 
ATOM     34  C   UNL     1       1.494  -0.244   6.356  0.00  0.00    +0.008 A 
ATOM     35 CL   UNL     1       3.619   2.557   8.250  0.00  0.00    -0.084 Cl
ENDBRANCH  28  29
ENDBRANCH  27  28
ENDBRANCH   6  27
TORSDOF 10
