REMARK  Name = ZINC13095557
REMARK  13 active torsions:
REMARK  status: ('A' for Active; 'I' for Inactive)
REMARK    1  A    between atoms: C_1  and  C_2
REMARK    2  A    between atoms: C_2  and  C_4
REMARK    3  A    between atoms: C_2  and  O_15
REMARK    4  A    between atoms: N_6  and  C_7
REMARK    5  A    between atoms: C_7  and  C_13
REMARK    6  A    between atoms: O_15  and  C_16
REMARK    7  A    between atoms: C_16  and  C_18
REMARK    8  A    between atoms: C_23  and  S_24
REMARK    9  A    between atoms: S_24  and  C_25
REMARK   10  A    between atoms: C_25  and  C_27
REMARK   11  A    between atoms: C_25  and  C_28
REMARK   12  A    between atoms: N_30  and  C_31
REMARK   13  A    between atoms: C_31  and  C_37
REMARK                            x       y       z     vdW  Elec       q    Type
REMARK                         _______ _______ _______ _____ _____    ______ ____
ROOT
ATOM      1  C   UNL     1      -5.648   1.065   5.316  0.00  0.00    +0.091 A 
ATOM      2  C   UNL     1      -6.052   1.638   6.528  0.00  0.00    +0.019 A 
ATOM      3  C   UNL     1      -5.383   2.762   6.979  0.00  0.00    +0.021 A 
ATOM      4  C   UNL     1      -4.340   3.280   6.232  0.00  0.00    +0.112 A 
ATOM      5  N   UNL     1      -3.970   2.724   5.096  0.00  0.00    -0.248 NA
ATOM      6  C   UNL     1      -4.575   1.647   4.617  0.00  0.00    +0.112 A 
ENDROOT
BRANCH   1   7
ATOM      7  C   UNL     1      -6.329  -0.129   4.787  0.00  0.00    +0.342 C 
ATOM      8  O   UNL     1      -5.965  -0.620   3.737  0.00  0.00    -0.245 OA
BRANCH   7   9
ATOM      9  O   UNL     1      -7.355  -0.676   5.468  0.00  0.00    -0.449 OA
BRANCH   9  11
ATOM     10  C   UNL     1      -7.273  -3.109   5.398  0.00  0.00    +0.062 C 
ATOM     11  C   UNL     1      -7.979  -1.851   4.887  0.00  0.00    +0.259 C 
BRANCH  11  12
ATOM     12  C   UNL     1      -9.433  -1.895   5.282  0.00  0.00    +0.255 C 
ATOM     13  O   UNL     1      -9.897  -1.022   5.984  0.00  0.00    -0.272 OA
ATOM     14  N   UNL     1     -10.217  -2.905   4.855  0.00  0.00    -0.294 N 
ATOM     15  H   UNL     1      -9.845  -3.603   4.293  0.00  0.00    +0.150 HD
BRANCH  14  16
ATOM     16  C   UNL     1     -11.630  -2.948   5.239  0.00  0.00    +0.121 C 
ATOM     17  C   UNL     1     -11.742  -3.012   6.763  0.00  0.00    +0.041 C 
ATOM     18  C   UNL     1     -13.218  -3.057   7.164  0.00  0.00    +0.003 C 
ATOM     19  C   UNL     1     -13.876  -4.295   6.552  0.00  0.00    +0.000 C 
ATOM     20  C   UNL     1     -13.763  -4.231   5.027  0.00  0.00    +0.003 C 
ATOM     21  C   UNL     1     -12.287  -4.186   4.626  0.00  0.00    +0.041 C 
BRANCH  16  22
ATOM     22  C   UNL     1     -12.309  -1.738   4.747  0.00  0.00    +0.088 C 
ATOM     23  N   UNL     1     -12.833  -0.804   4.367  0.00  0.00    -0.194 NA
ENDBRANCH  16  22
ENDBRANCH  14  16
ENDBRANCH  11  12
ENDBRANCH   9  11
ENDBRANCH   7   9
ENDBRANCH   1   7
BRANCH   6  24
ATOM     24  S   UNL     1      -4.038   0.945   3.092  0.00  0.00    -0.093 S 
BRANCH  24  25
ATOM     25  C   UNL     1      -2.693   2.082   2.679  0.00  0.00    +0.135 C 
ATOM     26  C   UNL     1      -3.265   3.478   2.426  0.00  0.00    +0.029 C 
BRANCH  25  27
ATOM     27  C   UNL     1      -1.987   1.596   1.439  0.00  0.00    +0.227 C 
ATOM     28  O   UNL     1      -2.575   0.895   0.643  0.00  0.00    -0.275 OA
ATOM     29  N   UNL     1      -0.704   1.940   1.215  0.00  0.00    -0.296 N 
ATOM     30  H   UNL     1      -0.234   2.501   1.853  0.00  0.00    +0.150 HD
BRANCH  29  31
ATOM     31  C   UNL     1      -0.018   1.468   0.010  0.00  0.00    +0.121 C 
ATOM     32  C   UNL     1      -0.758   1.975  -1.229  0.00  0.00    +0.041 C 
ATOM     33  C   UNL     1      -0.042   1.481  -2.488  0.00  0.00    +0.003 C 
ATOM     34  C   UNL     1       1.394   2.011  -2.499  0.00  0.00    +0.000 C 
ATOM     35  C   UNL     1       2.134   1.504  -1.260  0.00  0.00    +0.003 C 
ATOM     36  C   UNL     1       1.417   1.997  -0.001  0.00  0.00    +0.041 C 
BRANCH  31  37
ATOM     37  C   UNL     1       0.002  -0.004   0.002  0.00  0.00    +0.088 C 
ATOM     38  N   UNL     1       0.018  -1.140  -0.004  0.00  0.00    -0.194 NA
ENDBRANCH  31  37
ENDBRANCH  29  31
ENDBRANCH  25  27
ENDBRANCH  24  25
ENDBRANCH   6  24
TORSDOF 11
