REMARK  Name = ZINC11882180
REMARK  10 active torsions:
REMARK  status: ('A' for Active; 'I' for Inactive)
REMARK    1  A    between atoms: C_1  and  C_2
REMARK    2  A    between atoms: C_3  and  O_30
REMARK    3  A    between atoms: C_6  and  C_10
REMARK    4  A    between atoms: C_7  and  O_8
REMARK    5  A    between atoms: O_8  and  C_9
REMARK    6  A    between atoms: C_10  and  N_63
REMARK    7  A    between atoms: C_16  and  C_19
REMARK    8  A    between atoms: C_19  and  N_20
REMARK    9  A    between atoms: C_21  and  C_23
REMARK   10  A    between atoms: O_30  and  C_31
REMARK                            x       y       z     vdW  Elec       q    Type
REMARK                         _______ _______ _______ _____ _____    ______ ____
ROOT
ATOM      1  C   UNL     1       3.031  -2.840  -1.659  0.00  0.00    -0.076 C 
ATOM      2  C   UNL     1       3.920  -1.889  -0.852  0.00  0.00    +0.016 C 
ATOM      3  C   UNL     1       3.799  -0.477  -1.425  0.00  0.00    +0.067 C 
ATOM      4  C   UNL     1       4.732   0.476  -0.659  0.00  0.00    +0.037 C 
ATOM      5  C   UNL     1       3.771   1.504  -0.011  0.00  0.00    +0.036 C 
ATOM      6  C   UNL     1       2.424   0.737  -0.017  0.00  0.00    +0.136 C 
ATOM      7  O   UNL     1       2.458   0.004  -1.261  0.00  0.00    -0.369 OA
ATOM      8  C   UNL     1       4.172  -0.483  -2.908  0.00  0.00    +0.016 C 
ATOM      9  C   UNL     1       3.276  -1.478  -3.650  0.00  0.00    -0.076 C 
ATOM     10  N   UNL     1       3.472  -2.825  -3.071  0.00  0.00    +0.383 N 
ATOM     11  H   UNL     1       4.470  -3.062  -3.111  0.00  0.00    -0.081 HD
ENDROOT
BRANCH  10  12
ATOM     12  C   UNL     1       2.709  -3.824  -3.847  0.00  0.00    -0.039 C 
BRANCH  12  18
ATOM     13  C   UNL     1       5.662  -4.385  -7.859  0.00  0.00    +0.051 C 
ATOM     14  C   UNL     1       4.386  -3.880  -7.238  0.00  0.00    +0.033 A 
ATOM     15  C   UNL     1       3.448  -3.218  -8.016  0.00  0.00    +0.126 A 
ATOM     16  C   UNL     1       2.274  -2.754  -7.441  0.00  0.00    +0.046 A 
ATOM     17  C   UNL     1       2.038  -2.951  -6.094  0.00  0.00    +0.009 A 
ATOM     18  C   UNL     1       2.970  -3.610  -5.316  0.00  0.00    -0.022 A 
ATOM     19  C   UNL     1       4.149  -4.071  -5.885  0.00  0.00    +0.128 A 
BRANCH  19  20
ATOM     20  O   UNL     1       5.069  -4.713  -5.118  0.00  0.00    -0.495 OA
ATOM     21  C   UNL     1       4.947  -6.133  -5.013  0.00  0.00    +0.277 C 
ENDBRANCH  19  20
BRANCH  15  22
ATOM     22  O   UNL     1       3.679  -3.025  -9.341  0.00  0.00    -0.495 OA
ATOM     23  C   UNL     1       2.670  -2.336 -10.082  0.00  0.00    +0.277 C 
ENDBRANCH  15  22
ENDBRANCH  12  18
ENDBRANCH  10  12
BRANCH   6  24
ATOM     24  C   UNL     1       1.248   1.716  -0.001  0.00  0.00    +0.136 C 
BRANCH  24  25
ATOM     25  N   UNL     1      -0.011   0.966   0.007  0.00  0.00    -0.306 N 
ATOM     26  C   UNL     1      -1.187   1.624   0.017  0.00  0.00    +0.279 C 
ATOM     27  O   UNL     1      -1.204   2.841   0.023  0.00  0.00    -0.267 OA
ATOM     28  H   UNL     1       0.002  -0.004   0.002  0.00  0.00    +0.149 HD
BRANCH  26  29
ATOM     29  C   UNL     1      -2.447   0.873   0.018  0.00  0.00    +0.189 A 
ATOM     30  C   UNL     1      -3.702   1.412   0.033  0.00  0.00    +0.054 A 
ATOM     31  C   UNL     1      -4.603   0.336   0.027  0.00  0.00    +0.042 A 
ATOM     32  C   UNL     1      -3.868  -0.798   0.017  0.00  0.00    +0.196 A 
ATOM     33  O   UNL     1      -2.570  -0.470   0.012  0.00  0.00    -0.458 OA
ENDBRANCH  26  29
ENDBRANCH  24  25
ENDBRANCH   6  24
TORSDOF 7
