REMARK  Name = ZINC14752717
REMARK  9 active torsions:
REMARK  status: ('A' for Active; 'I' for Inactive)
REMARK    1  A    between atoms: C_1  and  O_2
REMARK    2  A    between atoms: O_2  and  C_3
REMARK    3  A    between atoms: C_3  and  C_4
REMARK    4  A    between atoms: C_4  and  C_5
REMARK    5  A    between atoms: C_5  and  N_6
REMARK    6  A    between atoms: N_9  and  C_28
REMARK    7  A    between atoms: C_17  and  C_18
REMARK    8  A    between atoms: C_17  and  N_72
REMARK    9  A    between atoms: C_28  and  C_29
REMARK                            x       y       z     vdW  Elec       q    Type
REMARK                         _______ _______ _______ _____ _____    ______ ____
ROOT
ATOM      1  N   UNL     1       6.103   4.043  -3.556  0.00  0.00    -0.271 N 
ATOM      2  C   UNL     1       5.832   3.780  -2.263  0.00  0.00    +0.312 C 
ATOM      3  O   UNL     1       6.357   2.884  -1.631  0.00  0.00    -0.252 OA
ATOM      4  N   UNL     1       4.918   4.614  -1.752  0.00  0.00    -0.220 N 
ATOM      5  C   UNL     1       4.505   5.518  -2.665  0.00  0.00    +0.247 C 
ATOM      6  O   UNL     1       3.692   6.403  -2.506  0.00  0.00    -0.273 OA
ATOM      7  C   UNL     1       5.270   5.194  -3.927  0.00  0.00    +0.112 C 
ATOM      8  C   UNL     1       6.142   6.374  -4.341  0.00  0.00    +0.017 C 
ATOM      9  C   UNL     1       6.883   6.028  -5.636  0.00  0.00    -0.076 C 
ATOM     10  C   UNL     1       5.111   4.522  -6.324  0.00  0.00    -0.076 C 
ATOM     11  C   UNL     1       4.310   4.819  -5.052  0.00  0.00    +0.017 C 
ATOM     12  N   UNL     1       5.890   5.725  -6.689  0.00  0.00    +0.383 N 
ATOM     13  H   UNL     1       5.249   6.522  -6.780  0.00  0.00    -0.081 HD
ENDROOT
BRANCH   1  14
ATOM     14  C   UNL     1       7.046   3.327  -4.418  0.00  0.00    +0.112 C 
BRANCH  14  15
ATOM     15  C   UNL     1       6.537   1.904  -4.659  0.00  0.00    +0.047 C 
BRANCH  15  16
ATOM     16  C   UNL     1       7.453   1.198  -5.662  0.00  0.00    +0.161 C 
BRANCH  16  18
ATOM     17  C   UNL     1       7.767  -0.880  -6.812  0.00  0.00    +0.193 C 
ATOM     18  O   UNL     1       6.978  -0.130  -5.887  0.00  0.00    -0.383 OA
ENDBRANCH  16  18
ENDBRANCH  15  16
ENDBRANCH  14  15
ENDBRANCH   1  14
BRANCH  12  19
ATOM     19  C   UNL     1       6.574   5.510  -7.980  0.00  0.00    -0.041 C 
BRANCH  19  20
ATOM     20  C   UNL     1       7.177   6.814  -8.433  0.00  0.00    -0.039 A 
ATOM     21  C   UNL     1       6.659   7.664  -9.333  0.00  0.00    +0.085 A 
ATOM     22  N   UNL     1       7.485   8.744  -9.487  0.00  0.00    -0.360 N 
ATOM     23  H   UNL     1       7.321   9.492 -10.082  0.00  0.00    +0.165 HD
ATOM     24  C   UNL     1       8.589   8.607  -8.674  0.00  0.00    +0.047 A 
ATOM     25  C   UNL     1       8.444   7.393  -7.979  0.00  0.00    +0.001 A 
ATOM     26  C   UNL     1       9.425   6.989  -7.071  0.00  0.00    +0.010 A 
ATOM     27  C   UNL     1      10.523   7.776  -6.864  0.00  0.00    +0.001 A 
ATOM     28  C   UNL     1      10.670   8.975  -7.548  0.00  0.00    +0.002 A 
ATOM     29  C   UNL     1       9.714   9.393  -8.447  0.00  0.00    +0.026 A 
ENDBRANCH  19  20
ENDBRANCH  12  19
BRANCH   4  30
ATOM     30  C   UNL     1       4.431   4.557  -0.372  0.00  0.00    +0.153 C 
BRANCH  30  31
ATOM     31  C   UNL     1       3.225   3.655  -0.301  0.00  0.00    -0.029 A 
ATOM     32  C   UNL     1       3.399   2.295  -0.054  0.00  0.00    +0.006 A 
ATOM     33  C   UNL     1       2.331   1.454   0.016  0.00  0.00    +0.009 A 
ATOM     34  C   UNL     1       1.033   1.961  -0.164  0.00  0.00    -0.018 A 
ATOM     35  C   UNL     1      -0.094   1.123  -0.100  0.00  0.00    +0.008 A 
ATOM     36  C   UNL     1      -1.335   1.649  -0.285  0.00  0.00    +0.001 A 
ATOM     37  C   UNL     1      -1.509   3.010  -0.526  0.00  0.00    +0.001 A 
ATOM     38  C   UNL     1      -0.442   3.852  -0.596  0.00  0.00    +0.008 A 
ATOM     39  C   UNL     1       0.857   3.344  -0.416  0.00  0.00    -0.018 A 
ATOM     40  C   UNL     1       1.983   4.182  -0.481  0.00  0.00    +0.013 A 
ENDBRANCH  30  31
ENDBRANCH   4  30
TORSDOF 8
