REMARK  Name = ZINC20834490
REMARK  14 active torsions:
REMARK  status: ('A' for Active; 'I' for Inactive)
REMARK    1  A    between atoms: C_1  and  C_2
REMARK    2  A    between atoms: C_2  and  C_3
REMARK    3  A    between atoms: C_3  and  C_5
REMARK    4  A    between atoms: C_3  and  C_6
REMARK    5  A    between atoms: C_9  and  N_12
REMARK    6  A    between atoms: C_13  and  C_15
REMARK    7  A    between atoms: C_15  and  C_16
REMARK    8  A    between atoms: C_16  and  S_17
REMARK    9  A    between atoms: S_17  and  C_18
REMARK   10  A    between atoms: N_23  and  N_24
REMARK   11  A    between atoms: C_25  and  C_26
REMARK   12  A    between atoms: C_30  and  O_33
REMARK   13  A    between atoms: C_31  and  O_32
REMARK   14  A    between atoms: O_33  and  C_34
REMARK                            x       y       z     vdW  Elec       q    Type
REMARK                         _______ _______ _______ _____ _____    ______ ____
ROOT
ATOM      1  C   UNL     1       6.176   3.071  -0.506  0.00  0.00    +0.210 A 
ATOM      2  N   UNL     1       7.542   3.070  -0.523  0.00  0.00    -0.186 NA
ATOM      3  C   UNL     1       7.962   4.342  -0.793  0.00  0.00    +0.232 A 
ATOM      4  N   UNL     1       6.901   5.098  -0.938  0.00  0.00    -0.245 N 
ATOM      5  N   UNL     1       5.769   4.292  -0.761  0.00  0.00    -0.144 NA
ATOM      6  N   UNL     1       9.281   4.760  -0.896  0.00  0.00    -0.205 N 
ATOM      7  H   UNL     1      10.100   4.039  -0.756  0.00  0.00    +0.177 HD
ATOM      8  H   UNL     1       7.014   6.170  -1.159  0.00  0.00    +0.192 HD
ENDROOT
BRANCH   6   9
ATOM      9  N   UNL     1       9.571   6.102  -1.179  0.00  0.00    -0.187 NA
ATOM     10  C   UNL     1      10.805   6.493  -1.276  0.00  0.00    +0.142 C 
BRANCH  10  11
ATOM     11  C   UNL     1      11.110   7.904  -1.574  0.00  0.00    +0.040 A 
ATOM     12  C   UNL     1      12.437   8.329  -1.679  0.00  0.00    +0.013 A 
ATOM     13  C   UNL     1      12.718   9.650  -1.958  0.00  0.00    +0.004 A 
ATOM     14  C   UNL     1      11.691  10.560  -2.136  0.00  0.00    +0.049 A 
ATOM     15  C   UNL     1      10.369  10.153  -2.034  0.00  0.00    +0.162 A 
ATOM     16  C   UNL     1      10.071   8.824  -1.759  0.00  0.00    +0.167 A 
BRANCH  16  17
ATOM     17  O   UNL     1       8.776   8.420  -1.664  0.00  0.00    -0.503 OA
ATOM     18  H   UNL     1       7.962   9.145  -1.810  0.00  0.00    +0.292 HD
ENDBRANCH  16  17
BRANCH  15  19
ATOM     19  O   UNL     1       9.365  11.053  -2.210  0.00  0.00    -0.491 OA
ATOM     20  C   UNL     1       9.744  12.400  -2.497  0.00  0.00    +0.277 C 
ENDBRANCH  15  19
ENDBRANCH  10  11
ENDBRANCH   6   9
BRANCH   1  21
ATOM     21  S   UNL     1       5.142   1.677  -0.203  0.00  0.00    -0.084 S 
BRANCH  21  22
ATOM     22  C   UNL     1       3.459   2.344  -0.322  0.00  0.00    +0.086 C 
BRANCH  22  23
ATOM     23  C   UNL     1       2.448   1.223  -0.076  0.00  0.00    +0.107 C 
BRANCH  23  25
ATOM     24  N   UNL     1      -0.011   0.966   0.007  0.00  0.00    -0.285 N 
ATOM     25  C   UNL     1       1.050   1.777  -0.174  0.00  0.00    +0.218 C 
ATOM     26  O   UNL     1       0.879   2.953  -0.417  0.00  0.00    -0.275 OA
ATOM     27  H   UNL     1       0.140  -0.115   0.144  0.00  0.00    +0.155 HD
BRANCH  24  31
ATOM     28  C   UNL     1      -3.863   2.553   0.051  0.00  0.00    -0.044 A 
ATOM     29  C   UNL     1      -3.645   1.284  -0.456  0.00  0.00    +0.006 A 
ATOM     30  C   UNL     1      -2.369   0.756  -0.472  0.00  0.00    +0.023 A 
ATOM     31  C   UNL     1      -1.305   1.499   0.022  0.00  0.00    +0.033 A 
ATOM     32  C   UNL     1      -1.528   2.769   0.536  0.00  0.00    +0.023 A 
ATOM     33  C   UNL     1      -2.805   3.295   0.543  0.00  0.00    +0.006 A 
BRANCH  28  34
ATOM     34  C   UNL     1      -5.256   3.126   0.067  0.00  0.00    +0.016 C 
ATOM     35  C   UNL     1      -5.288   4.412  -0.763  0.00  0.00    +0.012 C 
BRANCH  34  37
ATOM     36  C   UNL     1      -7.120   3.904   1.538  0.00  0.00    +0.004 C 
ATOM     37  C   UNL     1      -5.663   3.439   1.508  0.00  0.00    +0.004 C 
ENDBRANCH  34  37
ENDBRANCH  28  34
ENDBRANCH  24  31
ENDBRANCH  23  25
ENDBRANCH  22  23
ENDBRANCH  21  22
ENDBRANCH   1  21
TORSDOF 11
