REMARK  Name = ZINC05446914
REMARK  1 active torsions:
REMARK  status: ('A' for Active; 'I' for Inactive)
REMARK    1  A    between atoms: C_3  and  C_6
REMARK                            x       y       z     vdW  Elec       q    Type
REMARK                         _______ _______ _______ _____ _____    ______ ____
ROOT
ATOM      1  C   UNL     1      -2.511   3.763   0.058  0.00  0.00    +0.099 C 
ATOM      2  C   UNL     1      -1.205   3.025   0.031  0.00  0.00    +0.067 A 
ATOM      3  C   UNL     1      -0.021   3.698   0.019  0.00  0.00    +0.113 A 
ATOM      4  N   UNL     1       1.159   2.994   0.005  0.00  0.00    -0.295 N 
ATOM      5  H   UNL     1       2.031   3.485  -0.002  0.00  0.00    +0.172 HD
ATOM      6  C   UNL     1       1.148   1.649  -0.000  0.00  0.00    +0.328 A 
ATOM      7  O   UNL     1       2.201   1.041  -0.012  0.00  0.00    -0.247 OA
ATOM      8  N   UNL     1      -0.011   0.966   0.007  0.00  0.00    -0.275 N 
ATOM      9  H   UNL     1       0.003  -0.034   0.006  0.00  0.00    +0.173 HD
ATOM     10  C   UNL     1      -1.190   1.618   0.017  0.00  0.00    +0.260 A 
ATOM     11  O   UNL     1      -2.237   0.993   0.017  0.00  0.00    -0.267 OA
ATOM     12  N   UNL     1      -0.008   5.070   0.018  0.00  0.00    -0.303 N 
ATOM     13  C   UNL     1      -1.116   5.778  -0.364  0.00  0.00    +0.017 C 
ATOM     14  C   UNL     1      -2.335   5.200  -0.363  0.00  0.00    +0.024 C 
ATOM     15  C   UNL     1      -3.479   5.919  -0.754  0.00  0.00    +0.162 C 
ATOM     16  O   UNL     1      -4.560   5.364  -0.759  0.00  0.00    -0.292 OA
ATOM     17  C   UNL     1      -3.389   7.363  -1.166  0.00  0.00    +0.080 C 
ATOM     18  C   UNL     1      -2.200   8.011  -0.449  0.00  0.00    +0.014 C 
ATOM     19  C   UNL     1      -0.937   7.215  -0.787  0.00  0.00    +0.051 C 
ATOM     20  H   UNL     1       0.794   5.543   0.290  0.00  0.00    +0.153 HD
ENDROOT
BRANCH   1  23
ATOM     21  C   UNL     1      -4.557   3.285   3.236  0.00  0.00    +0.008 A 
ATOM     22  C   UNL     1      -4.247   3.208   1.891  0.00  0.00    +0.012 A 
ATOM     23  C   UNL     1      -3.071   3.724   1.457  0.00  0.00    +0.002 A 
ATOM     24  S   UNL     1      -2.356   4.339   2.972  0.00  0.00    -0.101 S 
ATOM     25  C   UNL     1      -3.676   3.875   4.081  0.00  0.00    +0.045 A 
ENDBRANCH   1  23
TORSDOF 1
