REMARK  Name = ZINC63428501
REMARK  5 active torsions:
REMARK  status: ('A' for Active; 'I' for Inactive)
REMARK    1  A    between atoms: C_7  and  C_10
REMARK    2  A    between atoms: N_11  and  N_12
REMARK    3  A    between atoms: C_13  and  C_15
REMARK    4  A    between atoms: C_20  and  N_21
REMARK    5  A    between atoms: C_22  and  C_24
REMARK                            x       y       z     vdW  Elec       q    Type
REMARK                         _______ _______ _______ _____ _____    ______ ____
ROOT
ATOM      1  C   UNL     1       4.456  -6.058  -0.459  0.00  0.00    +0.060 A 
ATOM      2  C   UNL     1       5.350  -4.990  -0.343  0.00  0.00    +0.015 A 
ATOM      3  C   UNL     1       6.704  -5.232  -0.264  0.00  0.00    +0.001 A 
ATOM      4  C   UNL     1       7.186  -6.531  -0.298  0.00  0.00    +0.002 A 
ATOM      5  C   UNL     1       6.316  -7.596  -0.413  0.00  0.00    +0.024 A 
ATOM      6  C   UNL     1       4.948  -7.373  -0.488  0.00  0.00    +0.046 A 
ENDROOT
BRANCH   1   8
ATOM      7  N   UNL     1       2.529  -4.556  -0.384  0.00  0.00    -0.203 N 
ATOM      8  C   UNL     1       3.006  -5.807  -0.543  0.00  0.00    +0.265 C 
ATOM      9  O   UNL     1       2.241  -6.727  -0.757  0.00  0.00    -0.268 OA
ATOM     10  H   UNL     1       3.139  -3.822  -0.214  0.00  0.00    +0.178 HD
BRANCH   7  12
ATOM     11  C   UNL     1       0.696  -3.090  -0.431  0.00  0.00    +0.136 C 
ATOM     12  N   UNL     1       1.151  -4.317  -0.465  0.00  0.00    -0.188 NA
BRANCH  11  19
ATOM     13  C   UNL     1       0.016   1.382  -0.741  0.00  0.00    +0.001 A 
ATOM     14  C   UNL     1       1.199   2.125  -0.803  0.00  0.00    +0.002 A 
ATOM     15  C   UNL     1       2.417   1.533  -0.771  0.00  0.00    +0.026 A 
ATOM     16  C   UNL     1       2.513   0.120  -0.672  0.00  0.00    +0.043 A 
ATOM     17  N   UNL     1       3.557  -0.681  -0.624  0.00  0.00    -0.380 N 
ATOM     18  C   UNL     1       3.098  -2.070  -0.522  0.00  0.00    +0.150 C 
ATOM     19  C   UNL     1       1.586  -2.010  -0.514  0.00  0.00    +0.000 C 
ATOM     20  C   UNL     1       1.264  -0.658  -0.607  0.00  0.00    +0.004 A 
ATOM     21  C   UNL     1       0.030   0.029  -0.645  0.00  0.00    +0.010 A 
ATOM     22  H   UNL     1       4.484  -0.397  -0.652  0.00  0.00    +0.160 HD
ENDBRANCH  11  19
ENDBRANCH   7  12
ENDBRANCH   1   8
BRANCH   6  23
ATOM     23  N   UNL     1       4.069  -8.446  -0.597  0.00  0.00    -0.281 N 
ATOM     24  C   UNL     1       4.466  -9.584  -1.200  0.00  0.00    +0.249 C 
ATOM     25  O   UNL     1       5.617  -9.705  -1.572  0.00  0.00    -0.270 OA
ATOM     26  H   UNL     1       3.170  -8.375  -0.238  0.00  0.00    +0.155 HD
BRANCH  24  27
ATOM     27  C   UNL     1       3.503 -10.685  -1.408  0.00  0.00    +0.051 A 
ATOM     28  C   UNL     1       2.179 -10.547  -0.987  0.00  0.00    +0.014 A 
ATOM     29  C   UNL     1       1.285 -11.579  -1.184  0.00  0.00    +0.001 A 
ATOM     30  C   UNL     1       1.697 -12.748  -1.799  0.00  0.00    +0.001 A 
ATOM     31  C   UNL     1       3.006 -12.892  -2.219  0.00  0.00    +0.016 A 
ATOM     32  C   UNL     1       3.911 -11.865  -2.033  0.00  0.00    +0.030 A 
ATOM     33 BR   UNL     1       5.699 -12.060  -2.615  0.00  0.00    -0.050 Br
ENDBRANCH  24  27
ENDBRANCH   6  23
TORSDOF 5
