REMARK  Name = ZINC02209132
REMARK  7 active torsions:
REMARK  status: ('A' for Active; 'I' for Inactive)
REMARK    1  A    between atoms: C_1  and  C_2
REMARK    2  A    between atoms: C_5  and  C_8
REMARK    3  A    between atoms: C_14  and  C_31
REMARK    4  A    between atoms: C_19  and  C_21
REMARK    5  A    between atoms: C_24  and  C_27
REMARK    6  A    between atoms: C_27  and  O_29
REMARK    7  A    between atoms: O_29  and  C_30
REMARK                            x       y       z     vdW  Elec       q    Type
REMARK                         _______ _______ _______ _____ _____    ______ ____
ROOT
ATOM      1  C   UNL     1       0.059  -4.275  -0.021  0.00  0.00    +0.163 C 
ATOM      2  C   UNL     1      -1.360  -4.766   0.156  0.00  0.00    +0.028 C 
ATOM      3  C   UNL     1      -1.625  -5.571   1.206  0.00  0.00    +0.083 C 
ATOM      4  C   UNL     1      -3.020  -6.054   1.364  0.00  0.00    +0.043 A 
ATOM      5  C   UNL     1      -3.465  -6.609   2.556  0.00  0.00    +0.017 A 
ATOM      6  C   UNL     1      -4.772  -7.045   2.660  0.00  0.00    -0.050 A 
ATOM      7  C   UNL     1      -5.633  -6.927   1.583  0.00  0.00    +0.007 A 
ATOM      8  C   UNL     1      -5.198  -6.376   0.392  0.00  0.00    +0.046 A 
ATOM      9  C   UNL     1      -3.890  -5.938   0.273  0.00  0.00    +0.131 A 
ATOM     10  O   UNL     1      -3.434  -5.400  -0.887  0.00  0.00    -0.479 OA
ATOM     11  C   UNL     1      -2.449  -4.369  -0.797  0.00  0.00    +0.234 C 
ATOM     12  C   UNL     1      -5.262  -7.649   3.951  0.00  0.00    +0.044 C 
ATOM     13  N   UNL     1      -0.655  -5.926   2.084  0.00  0.00    -0.216 NA
ATOM     14  C   UNL     1       0.598  -5.539   1.996  0.00  0.00    +0.209 C 
ATOM     15  N   UNL     1       1.026  -4.727   0.990  0.00  0.00    -0.182 N 
ATOM     16  N   UNL     1       2.391  -4.505   1.181  0.00  0.00    -0.169 NA
ATOM     17  C   UNL     1       2.764  -5.143   2.243  0.00  0.00    +0.208 C 
ATOM     18  N   UNL     1       1.693  -5.797   2.778  0.00  0.00    -0.275 N 
ATOM     19  H   UNL     1       1.705  -6.346   3.577  0.00  0.00    +0.156 HD
ENDROOT
BRANCH   1  24
ATOM     20  C   UNL     1      -0.018   1.503   0.010  0.00  0.00    +0.044 C 
ATOM     21  C   UNL     1       0.002  -0.004   0.002  0.00  0.00    -0.050 A 
ATOM     22  C   UNL     1       0.006  -0.689  -1.199  0.00  0.00    +0.004 A 
ATOM     23  C   UNL     1       0.025  -2.071  -1.206  0.00  0.00    +0.006 A 
ATOM     24  C   UNL     1       0.040  -2.768  -0.013  0.00  0.00    -0.021 A 
ATOM     25  C   UNL     1       0.037  -2.084   1.188  0.00  0.00    +0.006 A 
ATOM     26  C   UNL     1       0.023  -0.702   1.195  0.00  0.00    +0.004 A 
ENDBRANCH   1  24
BRANCH  11  27
ATOM     27  C   UNL     1      -3.099  -3.100  -0.308  0.00  0.00    -0.003 A 
ATOM     28  C   UNL     1      -4.040  -3.154   0.705  0.00  0.00    +0.008 A 
ATOM     29  C   UNL     1      -4.639  -1.996   1.156  0.00  0.00    +0.015 A 
ATOM     30  C   UNL     1      -4.294  -0.768   0.589  0.00  0.00    +0.059 A 
ATOM     31  C   UNL     1      -3.344  -0.721  -0.433  0.00  0.00    +0.015 A 
ATOM     32  C   UNL     1      -2.748  -1.885  -0.872  0.00  0.00    +0.008 A 
BRANCH  30  33
ATOM     33  C   UNL     1      -4.932   0.476   1.067  0.00  0.00    +0.339 C 
ATOM     34  O   UNL     1      -5.758   0.432   1.956  0.00  0.00    -0.245 OA
BRANCH  33  35
ATOM     35  O   UNL     1      -4.596   1.659   0.517  0.00  0.00    -0.464 OA
ATOM     36  C   UNL     1      -5.253   2.821   1.028  0.00  0.00    +0.280 C 
ENDBRANCH  33  35
ENDBRANCH  30  33
ENDBRANCH  11  27
TORSDOF 4
