REMARK  Name = ZINC32961244
REMARK  6 active torsions:
REMARK  status: ('A' for Active; 'I' for Inactive)
REMARK    1  A    between atoms: C_1  and  C_2
REMARK    2  A    between atoms: C_2  and  C_3
REMARK    3  A    between atoms: C_2  and  S_4
REMARK    4  A    between atoms: S_4  and  C_7
REMARK    5  A    between atoms: C_15  and  C_16
REMARK    6  A    between atoms: C_19  and  C_21
REMARK                            x       y       z     vdW  Elec       q    Type
REMARK                         _______ _______ _______ _____ _____    ______ ____
ROOT
ATOM      1  C   UNL     1       0.111  -2.487   0.305  0.00  0.00    +0.257 C 
ATOM      2  N   UNL     1       0.384  -3.134   1.395  0.00  0.00    -0.174 NA
ATOM      3  S   UNL     1       0.116  -4.741   0.999  0.00  0.00    +0.049 S 
ATOM      4  C   UNL     1      -0.300  -4.559  -0.605  0.00  0.00    +0.183 C 
ATOM      5  N   UNL     1      -0.584  -5.462  -1.516  0.00  0.00    -0.152 NA
ATOM      6  C   UNL     1      -0.832  -5.071  -2.780  0.00  0.00    +0.273 C 
ATOM      7  O   UNL     1      -1.226  -5.870  -3.615  0.00  0.00    -0.268 OA
ATOM      8  C   UNL     1      -0.614  -3.650  -3.134  0.00  0.00    +0.082 C 
ATOM      9  C   UNL     1      -0.333  -3.254  -4.433  0.00  0.00    +0.062 C 
ATOM     10  C   UNL     1      -0.714  -2.669  -2.019  0.00  0.00    +0.138 C 
ATOM     11  N   UNL     1      -1.152  -1.447  -2.172  0.00  0.00    -0.284 NA
ATOM     12  N   UNL     1      -0.294  -3.190  -0.778  0.00  0.00    -0.201 N 
ATOM     13  H   UNL     1      -1.432  -1.139  -3.048  0.00  0.00    +0.188 HD
ENDROOT
BRANCH   9  14
ATOM     14  C   UNL     1       0.146  -4.190  -5.365  0.00  0.00    +0.129 A 
ATOM     15  C   UNL     1       0.304  -3.975  -6.726  0.00  0.00    +0.050 A 
ATOM     16  C   UNL     1       0.803  -5.160  -7.266  0.00  0.00    +0.050 A 
ATOM     17  C   UNL     1       0.933  -6.055  -6.224  0.00  0.00    +0.136 A 
ATOM     18  O   UNL     1       0.538  -5.452  -5.089  0.00  0.00    -0.455 OA
BRANCH  17  19
ATOM     19  C   UNL     1       1.428  -7.440  -6.336  0.00  0.00    +0.019 A 
ATOM     20  C   UNL     1       1.819  -7.948  -7.578  0.00  0.00    +0.011 A 
ATOM     21  C   UNL     1       2.281  -9.243  -7.676  0.00  0.00    +0.002 A 
ATOM     22  C   UNL     1       2.356 -10.042  -6.548  0.00  0.00    +0.020 A 
ATOM     23  C   UNL     1       1.970  -9.547  -5.314  0.00  0.00    +0.042 A 
ATOM     24  C   UNL     1       1.512  -8.249  -5.200  0.00  0.00    +0.031 A 
ATOM     25 CL   UNL     1       2.068 -10.557  -3.905  0.00  0.00    -0.084 Cl
ENDBRANCH  17  19
ENDBRANCH   9  14
BRANCH   1  26
ATOM     26  S   UNL     1       0.256  -0.732   0.238  0.00  0.00    +0.031 S 
ATOM     27  O   UNL     1      -1.083  -0.260   0.177  0.00  0.00    -0.166 OA
ATOM     28  O   UNL     1       1.162  -0.484  -0.828  0.00  0.00    -0.166 OA
BRANCH  26  30
ATOM     29  C   UNL     1       1.073   1.259   1.927  0.00  0.00    +0.032 C 
ATOM     30  C   UNL     1       1.012  -0.266   1.820  0.00  0.00    +0.133 C 
ATOM     31  C   UNL     1       0.171  -0.824   2.971  0.00  0.00    +0.032 C 
ENDBRANCH  26  30
ENDBRANCH   1  26
TORSDOF 4
