REMARK  Name = ZINC26399691
REMARK  6 active torsions:
REMARK  status: ('A' for Active; 'I' for Inactive)
REMARK    1  A    between atoms: C_1  and  C_2
REMARK    2  A    between atoms: C_10  and  C_11
REMARK    3  A    between atoms: C_14  and  O_17
REMARK    4  A    between atoms: C_19  and  C_22
REMARK    5  A    between atoms: C_22  and  C_23
REMARK    6  A    between atoms: C_23  and  N_24
REMARK                            x       y       z     vdW  Elec       q    Type
REMARK                         _______ _______ _______ _____ _____    ______ ____
ROOT
ATOM      1  C   UNL     1      -0.018   1.503   0.010  0.00  0.00    +0.046 C 
ATOM      2  C   UNL     1       0.002  -0.004   0.002  0.00  0.00    -0.017 A 
ATOM      3  C   UNL     1       0.025  -0.875   1.174  0.00  0.00    +0.007 A 
ATOM      4  C   UNL     1       0.037  -0.738   2.568  0.00  0.00    +0.010 A 
ATOM      5  C   UNL     1       0.060  -1.859   3.354  0.00  0.00    +0.004 A 
ATOM      6  C   UNL     1       0.071  -3.147   2.819  0.00  0.00    +0.048 A 
ATOM      7  C   UNL     1       0.059  -3.311   1.457  0.00  0.00    +0.145 A 
ATOM      8  C   UNL     1       0.036  -2.164   0.660  0.00  0.00    +0.092 A 
ATOM      9  N   UNL     1       0.024  -2.113  -0.728  0.00  0.00    -0.333 N 
ATOM     10  C   UNL     1      -0.003  -0.808  -1.106  0.00  0.00    +0.053 A 
ATOM     11  C   UNL     1       0.035  -3.388  -1.458  0.00  0.00    +0.167 C 
ATOM     12  C   UNL     1       0.657  -4.452  -0.541  0.00  0.00    +0.194 C 
ATOM     13  O   UNL     1       0.065  -4.479   0.763  0.00  0.00    -0.485 OA
ENDROOT
BRANCH  10  14
ATOM     14  C   UNL     1      -0.029  -0.329  -2.504  0.00  0.00    -0.001 A 
ATOM     15  C   UNL     1       0.823  -0.894  -3.454  0.00  0.00    +0.013 A 
ATOM     16  C   UNL     1       0.791  -0.448  -4.758  0.00  0.00    +0.046 A 
ATOM     17  C   UNL     1      -0.079   0.571  -5.124  0.00  0.00    +0.117 A 
ATOM     18  C   UNL     1      -0.924   1.140  -4.181  0.00  0.00    +0.046 A 
ATOM     19  C   UNL     1      -0.902   0.695  -2.876  0.00  0.00    +0.013 A 
BRANCH  17  20
ATOM     20  O   UNL     1      -0.103   1.011  -6.409  0.00  0.00    -0.507 OA
ATOM     21  H   UNL     1      -0.792   1.818  -6.701  0.00  0.00    +0.292 HD
ENDBRANCH  17  20
ENDBRANCH  10  14
BRANCH  12  22
ATOM     22  C   UNL     1       0.481  -5.826  -1.191  0.00  0.00    +0.061 C 
BRANCH  22  23
ATOM     23  C   UNL     1       1.203  -6.883  -0.353  0.00  0.00    +0.088 C 
BRANCH  23  24
ATOM     24  N   UNL     1       1.034  -8.202  -0.977  0.00  0.00    -0.299 NA
ATOM     25  C   UNL     1      -0.372  -8.628  -0.935  0.00  0.00    +0.103 C 
ATOM     26  C   UNL     1      -0.519  -9.966  -1.664  0.00  0.00    +0.122 C 
ATOM     27  N   UNL     1       0.350 -10.965  -1.026  0.00  0.00    -0.314 N 
ATOM     28  C   UNL     1       1.756 -10.539  -1.068  0.00  0.00    +0.122 C 
ATOM     29  C   UNL     1       1.903  -9.201  -0.340  0.00  0.00    +0.103 C 
ATOM     30  C   UNL     1       0.191 -12.214  -1.617  0.00  0.00    +0.099 A 
ATOM     31  C   UNL     1      -1.074 -12.791  -1.676  0.00  0.00    +0.042 A 
ATOM     32  C   UNL     1      -1.218 -14.034  -2.266  0.00  0.00    +0.005 A 
ATOM     33  C   UNL     1      -0.089 -14.659  -2.780  0.00  0.00    +0.018 A 
ATOM     34  C   UNL     1       1.134 -14.028  -2.687  0.00  0.00    +0.084 A 
ATOM     35  N   UNL     1       1.242 -12.840  -2.123  0.00  0.00    -0.350 N 
ATOM     36  H   UNL     1       2.236 -12.370  -2.079  0.00  0.00    +0.166 HD
ENDBRANCH  23  24
ENDBRANCH  22  23
ENDBRANCH  12  22
TORSDOF 5
