REMARK  Name = ZINC41894494
REMARK  3 active torsions:
REMARK  status: ('A' for Active; 'I' for Inactive)
REMARK    1  A    between atoms: C_1  and  C_2
REMARK    2  A    between atoms: C_8  and  C_9
REMARK    3  A    between atoms: C_8  and  N_12
REMARK                            x       y       z     vdW  Elec       q    Type
REMARK                         _______ _______ _______ _____ _____    ______ ____
ROOT
ATOM      1  C   UNL     1      -0.019   1.526   0.010  0.00  0.00    +0.010 C 
ATOM      2  C   UNL     1       0.002  -0.004   0.002  0.00  0.00    +0.025 C 
ATOM      3  C   UNL     1       0.718  -0.497  -1.257  0.00  0.00    +0.006 C 
ATOM      4  C   UNL     1       2.154   0.032  -1.268  0.00  0.00    +0.000 C 
ATOM      5  C   UNL     1       2.894  -0.475  -0.028  0.00  0.00    +0.003 C 
ATOM      6  C   UNL     1       2.178   0.019   1.231  0.00  0.00    +0.042 C 
ATOM      7  C   UNL     1       0.742  -0.511   1.242  0.00  0.00    +0.170 C 
ENDROOT
BRANCH   7   8
ATOM      8  N   UNL     1       0.762  -1.976   1.234  0.00  0.00    -0.208 N 
ATOM      9  C   UNL     1       1.360  -2.645   2.239  0.00  0.00    +0.268 A 
ATOM     10  O   UNL     1       1.886  -2.035   3.157  0.00  0.00    -0.266 OA
ATOM     11  C   UNL     1       1.374  -4.055   2.224  0.00  0.00    +0.077 A 
ATOM     12  C   UNL     1       0.783  -4.715   1.192  0.00  0.00    +0.079 A 
ATOM     13  C   UNL     1       0.167  -3.985   0.158  0.00  0.00    +0.287 A 
ATOM     14  O   UNL     1      -0.424  -4.644  -0.872  0.00  0.00    -0.264 OA
ATOM     15  N   UNL     1       0.155  -2.676   0.185  0.00  0.00    -0.125 NA
ENDBRANCH   7   8
BRANCH   7  16
ATOM     16  C   UNL     1       0.037  -0.025   2.481  0.00  0.00    +0.383 C 
ATOM     17  O   UNL     1      -0.408  -0.828   3.284  0.00  0.00    -0.244 OA
ATOM     18  O   UNL     1      -0.089   1.171   2.682  0.00  0.00    -0.244 OA
ENDBRANCH   7  16
TORSDOF 2
