REMARK  Name = ZINC03769870
REMARK  8 active torsions:
REMARK  status: ('A' for Active; 'I' for Inactive)
REMARK    1  A    between atoms: C_1  and  N_2
REMARK    2  A    between atoms: C_3  and  C_5
REMARK    3  A    between atoms: C_11  and  C_12
REMARK    4  A    between atoms: C_12  and  O_14
REMARK    5  A    between atoms: O_14  and  C_15
REMARK    6  A    between atoms: C_17  and  N_30
REMARK    7  A    between atoms: C_18  and  C_28
REMARK    8  A    between atoms: C_19  and  C_21
REMARK                            x       y       z     vdW  Elec       q    Type
REMARK                         _______ _______ _______ _____ _____    ______ ____
ROOT
ATOM      1  C   UNL     1      -6.341  -3.801   0.034  0.00  0.00    +0.057 C 
ATOM      2  C   UNL     1      -5.007  -3.570  -0.039  0.00  0.00    +0.099 A 
ATOM      3  N   UNL     1      -4.045  -4.561  -0.052  0.00  0.00    -0.257 N 
ATOM      4  C   UNL     1      -2.754  -4.181  -0.128  0.00  0.00    +0.272 A 
ATOM      5  O   UNL     1      -1.860  -5.004  -0.143  0.00  0.00    -0.266 OA
ATOM      6  C   UNL     1      -2.456  -2.731  -0.192  0.00  0.00    +0.086 A 
ATOM      7  C   UNL     1      -1.256  -2.099  -0.272  0.00  0.00    +0.112 C 
ATOM      8  S   UNL     1      -4.101  -2.039  -0.127  0.00  0.00    -0.065 S 
ATOM      9  C   UNL     1      -4.446  -5.901   0.012  0.00  0.00    +0.118 C 
ATOM     10  C   UNL     1      -5.735  -6.295   0.090  0.00  0.00    +0.079 C 
ATOM     11  C   UNL     1      -6.821  -5.237   0.107  0.00  0.00    +0.100 C 
ENDROOT
BRANCH  11  12
ATOM     12  C   UNL     1      -7.621  -5.404   1.373  0.00  0.00    -0.034 A 
ATOM     13  C   UNL     1      -7.029  -5.172   2.600  0.00  0.00    +0.007 A 
ATOM     14  C   UNL     1      -7.764  -5.319   3.761  0.00  0.00    +0.038 A 
ATOM     15  C   UNL     1      -9.091  -5.708   3.695  0.00  0.00    +0.123 A 
ATOM     16  C   UNL     1      -9.681  -5.946   2.466  0.00  0.00    +0.038 A 
ATOM     17  C   UNL     1      -8.946  -5.793   1.306  0.00  0.00    +0.007 A 
ATOM     18  F   UNL     1      -9.809  -5.858   4.830  0.00  0.00    -0.205 F 
ENDBRANCH  11  12
BRANCH   1  21
ATOM     19  C   UNL     1      -9.537  -1.871   0.123  0.00  0.00    +0.128 C 
ATOM     20  N   UNL     1      -8.582  -2.982   0.115  0.00  0.00    -0.315 N 
ATOM     21  C   UNL     1      -7.259  -2.733   0.042  0.00  0.00    +0.243 C 
ATOM     22  O   UNL     1      -6.858  -1.584  -0.017  0.00  0.00    -0.270 OA
ATOM     23  H   UNL     1      -8.902  -3.896   0.163  0.00  0.00    +0.149 HD
ENDBRANCH   1  21
BRANCH   9  24
ATOM     24  N   UNL     1      -3.472  -6.870  -0.003  0.00  0.00    -0.343 N 
ATOM     25  H   UNL     1      -2.587  -6.674   0.345  0.00  0.00    +0.144 HD
ATOM     26  H   UNL     1      -3.668  -7.749  -0.361  0.00  0.00    +0.144 HD
ENDBRANCH   9  24
BRANCH   7  27
ATOM     27  C   UNL     1      -1.201  -0.638  -0.324  0.00  0.00    +0.333 C 
ATOM     28  O   UNL     1      -2.230   0.011  -0.296  0.00  0.00    -0.246 OA
BRANCH  27  29
ATOM     29  O   UNL     1      -0.010  -0.010  -0.403  0.00  0.00    -0.465 OA
ATOM     30  C   UNL     1      -0.031   1.418  -0.451  0.00  0.00    +0.280 C 
ENDBRANCH  27  29
ENDBRANCH   7  27
BRANCH  10  31
ATOM     31  C   UNL     1      -6.071  -7.685   0.154  0.00  0.00    +0.099 C 
ATOM     32  N   UNL     1      -6.337  -8.789   0.204  0.00  0.00    -0.191 NA
ENDBRANCH  10  31
TORSDOF 6
