REMARK  Name = ZINC10386119
REMARK  13 active torsions:
REMARK  status: ('A' for Active; 'I' for Inactive)
REMARK    1  A    between atoms: C_1  and  C_2
REMARK    2  A    between atoms: C_5  and  C_34
REMARK    3  A    between atoms: C_6  and  O_8
REMARK    4  A    between atoms: O_8  and  C_9
REMARK    5  A    between atoms: C_9  and  C_10
REMARK    6  A    between atoms: C_10  and  C_12
REMARK    7  A    between atoms: C_10  and  O_33
REMARK    8  A    between atoms: C_12  and  N_13
REMARK    9  A    between atoms: C_21  and  C_24
REMARK   10  A    between atoms: N_25  and  C_32
REMARK   11  A    between atoms: N_28  and  C_31
REMARK   12  A    between atoms: C_34  and  C_35
REMARK   13  A    between atoms: C_34  and  C_36
REMARK                            x       y       z     vdW  Elec       q    Type
REMARK                         _______ _______ _______ _____ _____    ______ ____
ROOT
ATOM      1  N   UNL     1      -0.133  -0.077  -2.384  0.00  0.00    -0.304 N 
ATOM      2  C   UNL     1      -0.044   1.123  -3.075  0.00  0.00    +0.153 A 
ATOM      3  C   UNL     1      -0.849   0.987  -4.201  0.00  0.00    +0.170 A 
ATOM      4  N   UNL     1      -1.382  -0.235  -4.169  0.00  0.00    -0.196 NA
ATOM      5  C   UNL     1      -0.963  -0.881  -3.100  0.00  0.00    +0.201 A 
ATOM      6  N   UNL     1      -1.313  -2.167  -2.760  0.00  0.00    -0.301 N 
ATOM      7  C   UNL     1      -0.826  -3.127  -3.759  0.00  0.00    +0.108 C 
ATOM      8  C   UNL     1      -1.106  -4.553  -3.277  0.00  0.00    +0.022 C 
ATOM      9  C   UNL     1      -2.612  -4.729  -3.065  0.00  0.00    -0.011 C 
ATOM     10  C   UNL     1      -3.102  -3.686  -2.057  0.00  0.00    +0.022 C 
ATOM     11  C   UNL     1      -2.765  -2.285  -2.574  0.00  0.00    +0.108 C 
ATOM     12  C   UNL     1      -2.892  -6.133  -2.525  0.00  0.00    +0.007 C 
ATOM     13  N   UNL     1      -0.948   2.051  -5.083  0.00  0.00    -0.280 N 
ATOM     14  C   UNL     1      -0.273   3.191  -4.843  0.00  0.00    +0.333 A 
ATOM     15  O   UNL     1      -0.371   4.115  -5.628  0.00  0.00    -0.246 OA
ATOM     16  N   UNL     1       0.507   3.333  -3.758  0.00  0.00    -0.262 N 
ATOM     17  C   UNL     1       0.642   2.332  -2.864  0.00  0.00    +0.282 A 
ATOM     18  O   UNL     1       1.353   2.474  -1.884  0.00  0.00    -0.265 OA
ATOM     19  C   UNL     1       1.221   4.594  -3.542  0.00  0.00    +0.157 C 
ATOM     20  C   UNL     1      -1.788   1.935  -6.278  0.00  0.00    +0.155 C 
ENDROOT
BRANCH   1  21
ATOM     21  C   UNL     1       0.542  -0.416  -1.128  0.00  0.00    +0.160 C 
BRANCH  21  22
ATOM     22  C   UNL     1      -0.400  -0.147   0.046  0.00  0.00    +0.172 C 
BRANCH  22  23
ATOM     23  O   UNL     1      -0.672   1.253   0.129  0.00  0.00    -0.387 OA
ATOM     24  H   UNL     1       0.114   1.800   0.264  0.00  0.00    +0.210 HD
ENDBRANCH  22  23
BRANCH  22  25
ATOM     25  C   UNL     1       0.257  -0.616   1.346  0.00  0.00    +0.262 C 
BRANCH  25  26
ATOM     26  O   UNL     1      -0.667  -0.473   2.426  0.00  0.00    -0.489 OA
BRANCH  26  32
ATOM     27  C   UNL     1       2.879  -2.261   5.264  0.00  0.00    +0.044 C 
ATOM     28  C   UNL     1       1.483  -1.723   5.082  0.00  0.00    -0.047 A 
ATOM     29  C   UNL     1       0.638  -1.610   6.171  0.00  0.00    +0.004 A 
ATOM     30  C   UNL     1      -0.643  -1.118   6.007  0.00  0.00    +0.008 A 
ATOM     31  C   UNL     1      -1.081  -0.731   4.755  0.00  0.00    -0.003 A 
ATOM     32  C   UNL     1      -0.237  -0.848   3.660  0.00  0.00    +0.124 A 
ATOM     33  C   UNL     1       1.048  -1.343   3.827  0.00  0.00    +0.049 A 
BRANCH  31  34
ATOM     34  C   UNL     1      -2.475  -0.187   4.578  0.00  0.00    +0.016 C 
ATOM     35  C   UNL     1      -3.493  -1.240   5.021  0.00  0.00    +0.012 C 
ATOM     36  C   UNL     1      -2.643   1.074   5.428  0.00  0.00    +0.012 C 
ENDBRANCH  31  34
ENDBRANCH  26  32
ENDBRANCH  25  26
ENDBRANCH  22  25
ENDBRANCH  21  22
ENDBRANCH   1  21
TORSDOF 7
