REMARK  Name = ZINC16612436
REMARK  14 active torsions:
REMARK  status: ('A' for Active; 'I' for Inactive)
REMARK    1  A    between atoms: C_1  and  C_2
REMARK    2  A    between atoms: C_2  and  O_3
REMARK    3  A    between atoms: O_3  and  C_4
REMARK    4  A    between atoms: C_4  and  C_6
REMARK    5  A    between atoms: C_13  and  C_15
REMARK    6  A    between atoms: C_15  and  S_16
REMARK    7  A    between atoms: S_16  and  C_17
REMARK    8  A    between atoms: N_24  and  C_25
REMARK    9  A    between atoms: N_24  and  C_29
REMARK   10  A    between atoms: C_25  and  C_26
REMARK   11  A    between atoms: C_26  and  N_69
REMARK   12  A    between atoms: C_27  and  N_69
REMARK   13  A    between atoms: C_28  and  N_69
REMARK   14  A    between atoms: C_29  and  C_30
REMARK                            x       y       z     vdW  Elec       q    Type
REMARK                         _______ _______ _______ _____ _____    ______ ____
ROOT
ATOM      1  C   UNL     1       0.859  -0.290  -1.510  0.00  0.00    +0.192 A 
ATOM      2  N   UNL     1       1.095  -1.537  -1.894  0.00  0.00    -0.207 NA
ATOM      3  C   UNL     1       1.735  -1.786  -3.032  0.00  0.00    +0.127 A 
ATOM      4  C   UNL     1       2.167  -0.715  -3.816  0.00  0.00    +0.084 A 
ATOM      5  C   UNL     1       1.905   0.571  -3.377  0.00  0.00    +0.135 A 
ATOM      6  N   UNL     1       1.257   0.747  -2.234  0.00  0.00    -0.210 NA
ATOM      7 CL   UNL     1       2.420   1.939  -4.313  0.00  0.00    -0.062 Cl
ATOM      8  N   UNL     1       1.975  -3.091  -3.432  0.00  0.00    -0.312 N 
ENDROOT
BRANCH   1   9
ATOM      9  S   UNL     1       0.002  -0.004   0.002  0.00  0.00    -0.077 S 
BRANCH   9  10
ATOM     10  C   UNL     1      -0.022   1.806   0.012  0.00  0.00    +0.173 C 
BRANCH  10  17
ATOM     11  C   UNL     1      -0.632   5.090   3.403  0.00  0.00    +0.115 C 
ATOM     12  C   UNL     1      -0.205   6.192   2.431  0.00  0.00    +0.018 C 
ATOM     13  C   UNL     1       0.571   5.574   1.265  0.00  0.00    +0.020 C 
ATOM     14  C   UNL     1      -0.336   4.593   0.516  0.00  0.00    +0.108 C 
ATOM     15  N   UNL     1      -0.867   3.614   1.474  0.00  0.00    -0.300 N 
ATOM     16  C   UNL     1      -1.558   4.103   2.675  0.00  0.00    +0.122 C 
ATOM     17  C   UNL     1      -0.728   2.292   1.252  0.00  0.00    +0.226 C 
ATOM     18  O   UNL     1      -1.170   1.493   2.050  0.00  0.00    -0.275 OA
BRANCH  11  19
ATOM     19  C   UNL     1      -1.368   5.702   4.566  0.00  0.00    +0.312 C 
ATOM     20  O   UNL     1      -1.535   6.898   4.614  0.00  0.00    -0.250 OA
BRANCH  19  21
ATOM     21  O   UNL     1      -1.839   4.919   5.550  0.00  0.00    -0.465 OA
BRANCH  21  23
ATOM     22  C   UNL     1      -2.997   4.531   7.657  0.00  0.00    +0.048 C 
ATOM     23  C   UNL     1      -2.538   5.578   6.639  0.00  0.00    +0.229 C 
ENDBRANCH  21  23
ENDBRANCH  19  21
ENDBRANCH  11  19
ENDBRANCH  10  17
ENDBRANCH   9  10
ENDBRANCH   1   9
BRANCH   8  24
ATOM     24  C   UNL     1       2.780  -3.354  -4.627  0.00  0.00    +0.088 C 
BRANCH  24  25
ATOM     25  C   UNL     1       4.253  -3.475  -4.233  0.00  0.00    -0.060 C 
BRANCH  25  28
ATOM     26  C   UNL     1       6.495  -3.627  -5.136  0.00  0.00    -0.097 C 
ATOM     27  C   UNL     1       4.742  -5.055  -6.002  0.00  0.00    -0.097 C 
ATOM     28  N   UNL     1       5.054  -3.719  -5.452  0.00  0.00    +0.377 N 
ATOM     29  H   UNL     1       4.820  -3.007  -6.153  0.00  0.00    -0.083 HD
ENDBRANCH  25  28
ENDBRANCH  24  25
ENDBRANCH   8  24
BRANCH   8  30
ATOM     30  C   UNL     1       1.423  -4.207  -2.660  0.00  0.00    +0.141 C 
BRANCH  30  31
ATOM     31  C   UNL     1       0.059  -4.561  -3.193  0.00  0.00    -0.030 A 
ATOM     32  C   UNL     1      -1.067  -3.952  -2.670  0.00  0.00    +0.005 A 
ATOM     33  C   UNL     1      -2.318  -4.273  -3.162  0.00  0.00    +0.000 A 
ATOM     34  C   UNL     1      -2.444  -5.210  -4.170  0.00  0.00    +0.000 A 
ATOM     35  C   UNL     1      -1.319  -5.823  -4.689  0.00  0.00    +0.000 A 
ATOM     36  C   UNL     1      -0.068  -5.498  -4.201  0.00  0.00    +0.005 A 
ENDBRANCH  30  31
ENDBRANCH   8  30
TORSDOF 11
