REMARK  Name = ZINC43608355
REMARK  8 active torsions:
REMARK  status: ('A' for Active; 'I' for Inactive)
REMARK    1  A    between atoms: C_1  and  C_2
REMARK    2  A    between atoms: C_2  and  C_4
REMARK    3  A    between atoms: C_2  and  N_17
REMARK    4  A    between atoms: N_9  and  C_10
REMARK    5  A    between atoms: C_10  and  C_11
REMARK    6  A    between atoms: N_17  and  C_18
REMARK    7  A    between atoms: N_17  and  C_19
REMARK    8  A    between atoms: C_19  and  C_20
REMARK                            x       y       z     vdW  Elec       q    Type
REMARK                         _______ _______ _______ _____ _____    ______ ____
ROOT
ATOM      1  C   UNL     1       0.775   1.179  -0.297  0.00  0.00    -0.004 C 
ATOM      2  C   UNL     1       0.494  -0.214   0.269  0.00  0.00    +0.016 C 
ENDROOT
BRANCH   2   3
ATOM      3  C   UNL     1       1.727  -0.733   0.963  0.00  0.00    +0.207 C 
ATOM      4  O   UNL     1       2.537  -1.393   0.347  0.00  0.00    -0.277 OA
ATOM      5  N   UNL     1       1.930  -0.464   2.268  0.00  0.00    -0.242 N 
ATOM      6  C   UNL     1       3.033  -0.927   2.888  0.00  0.00    +0.306 C 
ATOM      7  O   UNL     1       3.845  -1.589   2.270  0.00  0.00    -0.252 OA
ATOM      8  N   UNL     1       3.236  -0.658   4.193  0.00  0.00    -0.297 N 
ATOM      9  H   UNL     1       1.282   0.064   2.760  0.00  0.00    +0.159 HD
ATOM     10  H   UNL     1       2.588  -0.130   4.685  0.00  0.00    +0.150 HD
BRANCH   8  11
ATOM     11  C   UNL     1       4.435  -1.163   4.867  0.00  0.00    +0.137 C 
BRANCH  11  12
ATOM     12  C   UNL     1       4.421  -0.719   6.331  0.00  0.00    +0.135 C 
ATOM     13  C   UNL     1       5.699  -1.213   7.054  0.00  0.00    +0.035 C 
ATOM     14  C   UNL     1       5.805  -0.176   8.207  0.00  0.00    +0.031 C 
ATOM     15  C   UNL     1       5.267   1.109   7.541  0.00  0.00    +0.160 C 
ATOM     16  O   UNL     1       4.469   0.715   6.418  0.00  0.00    -0.375 OA
ENDBRANCH  11  12
ENDBRANCH   8  11
ENDBRANCH   2   3
BRANCH   2  17
ATOM     17  N   UNL     1       0.129  -1.123  -0.826  0.00  0.00    +0.386 N 
ATOM     18  C   UNL     1      -1.021  -0.573  -1.556  0.00  0.00    -0.095 C 
ATOM     19  H   UNL     1       0.911  -1.222  -1.456  0.00  0.00    -0.081 HD
BRANCH  17  20
ATOM     20  C   UNL     1      -0.225  -2.437  -0.273  0.00  0.00    -0.071 C 
BRANCH  20  21
ATOM     21  C   UNL     1       0.059  -3.522  -1.315  0.00  0.00    -0.043 C 
ATOM     22  C   UNL     1       1.567  -3.605  -1.565  0.00  0.00    +0.008 C 
ATOM     23  C   UNL     1       1.851  -4.689  -2.607  0.00  0.00    -0.010 C 
ATOM     24  C   UNL     1       1.344  -6.038  -2.091  0.00  0.00    +0.007 C 
ATOM     25  C   UNL     1      -0.163  -5.954  -1.840  0.00  0.00    -0.010 C 
ATOM     26  C   UNL     1      -0.447  -4.870  -0.799  0.00  0.00    +0.008 C 
ATOM     27  C   UNL     1      -0.879  -5.606  -3.147  0.00  0.00    +0.007 C 
ATOM     28  C   UNL     1      -0.372  -4.258  -3.663  0.00  0.00    -0.010 C 
ATOM     29  C   UNL     1       1.135  -4.341  -3.914  0.00  0.00    +0.007 C 
ATOM     30  C   UNL     1      -0.656  -3.174  -2.622  0.00  0.00    +0.008 C 
ENDBRANCH  20  21
ENDBRANCH  17  20
ENDBRANCH   2  17
TORSDOF 6
