REMARK  Name = ZINC19223454
REMARK  4 active torsions:
REMARK  status: ('A' for Active; 'I' for Inactive)
REMARK    1  A    between atoms: C_1  and  C_2
REMARK    2  A    between atoms: C_3  and  C_14
REMARK    3  A    between atoms: C_5  and  C_8
REMARK    4  A    between atoms: C_29  and  C_31
REMARK                            x       y       z     vdW  Elec       q    Type
REMARK                         _______ _______ _______ _____ _____    ______ ____
ROOT
ATOM      1  C   UNL     1      -4.890   2.334   0.037  0.00  0.00    +0.268 C 
ATOM      2  O   UNL     1      -3.691   2.497  -0.084  0.00  0.00    -0.268 OA
ATOM      3  N   UNL     1      -5.395   1.088   0.134  0.00  0.00    -0.282 N 
ATOM      4  C   UNL     1      -4.506  -0.080   0.229  0.00  0.00    +0.114 C 
ATOM      5  C   UNL     1      -4.696  -0.959  -1.007  0.00  0.00    +0.056 C 
ATOM      6  C   UNL     1      -6.171  -1.109  -1.280  0.00  0.00    -0.015 A 
ATOM      7  C   UNL     1      -6.834  -2.099  -2.106  0.00  0.00    +0.003 A 
ATOM      8  C   UNL     1      -6.359  -3.174  -2.863  0.00  0.00    +0.010 A 
ATOM      9  C   UNL     1      -7.294  -3.919  -3.538  0.00  0.00    +0.001 A 
ATOM     10  C   UNL     1      -8.648  -3.629  -3.479  0.00  0.00    +0.002 A 
ATOM     11  C   UNL     1      -9.146  -2.572  -2.737  0.00  0.00    +0.026 A 
ATOM     12  C   UNL     1      -8.219  -1.799  -2.041  0.00  0.00    +0.047 A 
ATOM     13  N   UNL     1      -8.361  -0.709  -1.231  0.00  0.00    -0.356 N 
ATOM     14  H   UNL     1      -9.362  -0.295  -1.036  0.00  0.00    +0.166 HD
ATOM     15  C   UNL     1      -7.133  -0.305  -0.780  0.00  0.00    +0.047 A 
ATOM     16  C   UNL     1      -6.850   0.861   0.142  0.00  0.00    +0.172 C 
ENDROOT
BRANCH   1  19
ATOM     17  C   UNL     1      -4.049   5.311  -0.438  0.00  0.00    +0.066 C 
ATOM     18  C   UNL     1      -5.433   4.801  -0.129  0.00  0.00    +0.045 A 
ATOM     19  C   UNL     1      -5.792   3.499   0.077  0.00  0.00    +0.147 A 
ATOM     20  N   UNL     1      -7.117   3.470   0.329  0.00  0.00    -0.223 NA
ATOM     21  C   UNL     1      -7.587   4.693   0.278  0.00  0.00    +0.139 A 
ATOM     22  N   UNL     1      -6.556   5.546  -0.003  0.00  0.00    -0.341 N 
ATOM     23  H   UNL     1      -6.509   6.638  -0.130  0.00  0.00    +0.167 HD
BRANCH  21  24
ATOM     24  C   UNL     1      -8.996   5.085   0.495  0.00  0.00    +0.017 A 
ATOM     25  C   UNL     1      -9.368   6.428   0.425  0.00  0.00    +0.011 A 
ATOM     26  C   UNL     1     -10.684   6.788   0.635  0.00  0.00    +0.001 A 
ATOM     27  C   UNL     1     -11.633   5.821   0.913  0.00  0.00    +0.000 A 
ATOM     28  C   UNL     1     -11.270   4.488   0.984  0.00  0.00    +0.001 A 
ATOM     29  C   UNL     1      -9.958   4.115   0.777  0.00  0.00    +0.011 A 
ENDBRANCH  21  24
ENDBRANCH   1  19
BRANCH  16  30
ATOM     30  C   UNL     1      -7.309   0.532   1.539  0.00  0.00    +0.068 A 
ATOM     31  C   UNL     1      -6.406   0.581   2.584  0.00  0.00    +0.025 A 
ATOM     32  C   UNL     1      -6.841   0.283   3.866  0.00  0.00    +0.003 A 
ATOM     33  C   UNL     1      -8.170  -0.067   4.048  0.00  0.00    +0.020 A 
ATOM     34  C   UNL     1      -9.013  -0.100   2.954  0.00  0.00    +0.111 A 
ATOM     35  N   UNL     1      -8.567   0.196   1.749  0.00  0.00    -0.258 NA
ENDBRANCH  16  30
TORSDOF 3
