REMARK  Name = ZINC06979309
REMARK  8 active torsions:
REMARK  status: ('A' for Active; 'I' for Inactive)
REMARK    1  A    between atoms: C_1  and  C_2
REMARK    2  A    between atoms: C_5  and  N_9
REMARK    3  A    between atoms: C_7  and  C_8
REMARK    4  A    between atoms: C_13  and  S_14
REMARK    5  A    between atoms: S_14  and  C_15
REMARK    6  A    between atoms: C_15  and  C_17
REMARK    7  A    between atoms: C_15  and  C_18
REMARK    8  A    between atoms: N_20  and  C_21
REMARK                            x       y       z     vdW  Elec       q    Type
REMARK                         _______ _______ _______ _____ _____    ______ ____
ROOT
ATOM      1  C   UNL     1       4.953  -2.739   0.143  0.00  0.00    +0.137 C 
ATOM      2  C   UNL     1       5.412  -2.778   1.602  0.00  0.00    +0.029 C 
ENDROOT
BRANCH   1   3
ATOM      3  C   UNL     1       3.639  -2.007   0.050  0.00  0.00    +0.230 C 
ATOM      4  O   UNL     1       2.597  -2.628   0.058  0.00  0.00    -0.274 OA
ATOM      5  N   UNL     1       3.621  -0.663  -0.044  0.00  0.00    -0.284 N 
ATOM      6  H   UNL     1       4.454  -0.171  -0.119  0.00  0.00    +0.155 HD
BRANCH   5   7
ATOM      7  C   UNL     1       2.400   0.024  -0.034  0.00  0.00    +0.037 A 
ATOM      8  C   UNL     1       2.308   1.268   0.577  0.00  0.00    +0.027 A 
ATOM      9  C   UNL     1       1.105   1.945   0.588  0.00  0.00    +0.051 A 
ATOM     10  C   UNL     1      -0.015   1.387  -0.010  0.00  0.00    +0.162 A 
ATOM     11  C   UNL     1       0.074   0.143  -0.624  0.00  0.00    +0.164 A 
ATOM     12  C   UNL     1       1.282  -0.537  -0.634  0.00  0.00    +0.072 A 
ATOM     13  O   UNL     1      -1.011  -0.418  -1.224  0.00  0.00    -0.485 OA
ATOM     14  C   UNL     1      -2.291   0.119  -0.871  0.00  0.00    +0.270 C 
ATOM     15  C   UNL     1      -2.198   1.651  -0.916  0.00  0.00    +0.270 C 
ATOM     16  O   UNL     1      -1.195   2.066   0.018  0.00  0.00    -0.485 OA
ENDBRANCH   5   7
ENDBRANCH   1   3
BRANCH   1  17
ATOM     17  S   UNL     1       4.747  -4.430  -0.470  0.00  0.00    -0.075 S 
BRANCH  17  22
ATOM     18  N   UNL     1       6.859  -6.231  -0.740  0.00  0.00    -0.295 N 
ATOM     19  C   UNL     1       8.221  -6.245  -0.530  0.00  0.00    +0.113 A 
ATOM     20  C   UNL     1       8.557  -5.032  -0.059  0.00  0.00    +0.131 A 
ATOM     21  N   UNL     1       7.444  -4.283   0.017  0.00  0.00    -0.230 NA
ATOM     22  C   UNL     1       6.416  -4.989  -0.392  0.00  0.00    +0.174 A 
BRANCH  18  27
ATOM     23  C   UNL     1       3.698 -10.520  -2.696  0.00  0.00    +0.044 C 
ATOM     24  C   UNL     1       4.537  -9.381  -2.177  0.00  0.00    -0.047 A 
ATOM     25  C   UNL     1       4.154  -8.708  -1.031  0.00  0.00    +0.005 A 
ATOM     26  C   UNL     1       4.924  -7.668  -0.549  0.00  0.00    +0.026 A 
ATOM     27  C   UNL     1       6.078  -7.290  -1.223  0.00  0.00    +0.049 A 
ATOM     28  C   UNL     1       6.460  -7.968  -2.373  0.00  0.00    +0.029 A 
ATOM     29  C   UNL     1       5.688  -9.011  -2.847  0.00  0.00    -0.046 A 
ATOM     30  C   UNL     1       6.101  -9.746  -4.096  0.00  0.00    +0.044 C 
ENDBRANCH  18  27
ENDBRANCH  17  22
ENDBRANCH   1  17
TORSDOF 5
