REMARK  Name = ZINC15690750
REMARK  14 active torsions:
REMARK  status: ('A' for Active; 'I' for Inactive)
REMARK    1  A    between atoms: C_1  and  N_2
REMARK    2  A    between atoms: N_2  and  C_3
REMARK    3  A    between atoms: N_2  and  C_4
REMARK    4  A    between atoms: C_4  and  C_6
REMARK    5  A    between atoms: C_4  and  C_28
REMARK    6  A    between atoms: C_6  and  N_7
REMARK    7  A    between atoms: C_8  and  C_10
REMARK    8  A    between atoms: C_13  and  S_16
REMARK    9  A    between atoms: S_16  and  N_19
REMARK   10  A    between atoms: N_19  and  C_20
REMARK   11  A    between atoms: C_25  and  O_26
REMARK   12  A    between atoms: O_26  and  C_27
REMARK   13  A    between atoms: C_33  and  O_34
REMARK   14  A    between atoms: O_34  and  C_35
REMARK                            x       y       z     vdW  Elec       q    Type
REMARK                         _______ _______ _______ _____ _____    ______ ____
ROOT
ATOM      1  C   UNL     1      -0.035  -5.532   1.052  0.00  0.00    +0.037 A 
ATOM      2  C   UNL     1       0.514  -4.610   1.944  0.00  0.00    +0.015 A 
ATOM      3  C   UNL     1       1.199  -5.055   3.057  0.00  0.00    +0.029 A 
ATOM      4  C   UNL     1       1.341  -6.412   3.288  0.00  0.00    +0.109 A 
ATOM      5  C   UNL     1       0.799  -7.331   2.407  0.00  0.00    +0.029 A 
ATOM      6  C   UNL     1       0.107  -6.899   1.294  0.00  0.00    +0.015 A 
ENDROOT
BRANCH   1   8
ATOM      7  N   UNL     1      -0.906  -3.741  -0.373  0.00  0.00    -0.313 N 
ATOM      8  C   UNL     1      -0.770  -5.062  -0.142  0.00  0.00    +0.244 C 
ATOM      9  O   UNL     1      -1.252  -5.867  -0.915  0.00  0.00    -0.270 OA
ATOM     10  H   UNL     1      -0.521  -3.099   0.244  0.00  0.00    +0.149 HD
BRANCH   7  11
ATOM     11  C   UNL     1      -1.634  -3.275  -1.556  0.00  0.00    +0.094 C 
BRANCH  11  12
ATOM     12  C   UNL     1      -1.750  -1.750  -1.515  0.00  0.00    -0.017 C 
BRANCH  12  13
ATOM     13  C   UNL     1      -0.376  -1.139  -1.611  0.00  0.00    -0.018 A 
ATOM     14  C   UNL     1       0.308  -0.793  -0.461  0.00  0.00    +0.005 A 
ATOM     15  C   UNL     1       1.569  -0.232  -0.548  0.00  0.00    +0.000 A 
ATOM     16  C   UNL     1       2.148  -0.016  -1.785  0.00  0.00    +0.004 A 
ATOM     17  C   UNL     1       1.469  -0.361  -2.937  0.00  0.00    +0.046 A 
ATOM     18  C   UNL     1       0.205  -0.929  -2.852  0.00  0.00    +0.122 A 
BRANCH  18  19
ATOM     19  O   UNL     1      -0.463  -1.274  -3.984  0.00  0.00    -0.495 OA
ATOM     20  C   UNL     1       0.197  -1.029  -5.228  0.00  0.00    +0.277 C 
ENDBRANCH  18  19
ENDBRANCH  12  13
BRANCH  12  22
ATOM     21  C   UNL     1      -2.532   0.121  -0.234  0.00  0.00    -0.096 C 
ATOM     22  N   UNL     1      -2.382  -1.340  -0.254  0.00  0.00    +0.382 N 
ATOM     23  C   UNL     1      -3.704  -1.970  -0.141  0.00  0.00    -0.096 C 
ATOM     24  H   UNL     1      -1.804  -1.630   0.521  0.00  0.00    -0.082 HD
ENDBRANCH  12  22
ENDBRANCH  11  12
ENDBRANCH   7  11
ENDBRANCH   1   8
BRANCH   4  25
ATOM     25  S   UNL     1       2.217  -6.972   4.710  0.00  0.00    +0.072 S 
ATOM     26  O   UNL     1       2.680  -8.282   4.412  0.00  0.00    -0.150 OA
ATOM     27  O   UNL     1       3.095  -5.921   5.087  0.00  0.00    -0.150 OA
BRANCH  25  28
ATOM     28  N   UNL     1       1.113  -7.128   5.935  0.00  0.00    -0.213 N 
ATOM     29  H   UNL     1       1.213  -6.607   6.747  0.00  0.00    +0.174 HD
BRANCH  28  30
ATOM     30  C   UNL     1       0.036  -8.011   5.799  0.00  0.00    +0.090 A 
ATOM     31  C   UNL     1       0.202  -9.211   5.122  0.00  0.00    +0.028 A 
ATOM     32  C   UNL     1      -0.863 -10.082   4.988  0.00  0.00    +0.002 A 
ATOM     33  C   UNL     1      -2.094  -9.761   5.529  0.00  0.00    +0.004 A 
ATOM     34  C   UNL     1      -2.267  -8.567   6.205  0.00  0.00    +0.047 A 
ATOM     35  C   UNL     1      -1.204  -7.691   6.348  0.00  0.00    +0.142 A 
BRANCH  35  36
ATOM     36  O   UNL     1      -1.371  -6.519   7.017  0.00  0.00    -0.493 OA
ATOM     37  C   UNL     1      -2.669  -6.258   7.553  0.00  0.00    +0.277 C 
ENDBRANCH  35  36
ENDBRANCH  28  30
ENDBRANCH  25  28
ENDBRANCH   4  25
TORSDOF 10
