REMARK  Name = ZINC02743556
REMARK  6 active torsions:
REMARK  status: ('A' for Active; 'I' for Inactive)
REMARK    1  A    between atoms: C_2  and  C_3
REMARK    2  A    between atoms: C_3  and  N_4
REMARK    3  A    between atoms: C_5  and  C_29
REMARK    4  A    between atoms: C_8  and  S_9
REMARK    5  A    between atoms: S_9  and  C_10
REMARK    6  A    between atoms: C_11  and  C_23
REMARK                            x       y       z     vdW  Elec       q    Type
REMARK                         _______ _______ _______ _____ _____    ______ ____
ROOT
ATOM      1  C   UNL     1      -1.548   3.779   4.548  0.00  0.00    +0.088 A 
ATOM      2  C   UNL     1      -2.297   2.886   5.297  0.00  0.00    +0.010 A 
ATOM      3  C   UNL     1      -2.327   3.059   6.758  0.00  0.00    +0.009 A 
ATOM      4  C   UNL     1      -3.064   2.193   7.570  0.00  0.00    +0.030 A 
ATOM      5  C   UNL     1      -3.072   2.381   8.935  0.00  0.00    +0.042 A 
ATOM      6  C   UNL     1      -2.353   3.424   9.504  0.00  0.00    +0.022 A 
ATOM      7  C   UNL     1      -1.623   4.286   8.715  0.00  0.00    +0.028 A 
ATOM      8  C   UNL     1      -1.601   4.115   7.335  0.00  0.00    +0.050 A 
ATOM      9  N   UNL     1      -0.873   4.970   6.530  0.00  0.00    -0.321 N 
ATOM     10  H   UNL     1      -0.375   5.696   6.938  0.00  0.00    +0.169 HD
ATOM     11  C   UNL     1      -0.836   4.816   5.196  0.00  0.00    +0.264 A 
ATOM     12  O   UNL     1      -0.176   5.592   4.527  0.00  0.00    -0.267 OA
ATOM     13 CL   UNL     1      -3.985   1.308   9.949  0.00  0.00    -0.084 Cl
ENDROOT
BRANCH   2  14
ATOM     14  C   UNL     1      -3.047   1.790   4.647  0.00  0.00    -0.016 A 
ATOM     15  C   UNL     1      -4.443   1.788   4.665  0.00  0.00    +0.008 A 
ATOM     16  C   UNL     1      -5.136   0.765   4.052  0.00  0.00    +0.001 A 
ATOM     17  C   UNL     1      -4.451  -0.263   3.429  0.00  0.00    +0.000 A 
ATOM     18  C   UNL     1      -3.067  -0.270   3.412  0.00  0.00    +0.001 A 
ATOM     19  C   UNL     1      -2.362   0.750   4.016  0.00  0.00    +0.008 A 
ENDBRANCH   2  14
BRANCH   1  20
ATOM     20  S   UNL     1      -1.477   3.619   2.795  0.00  0.00    -0.044 S 
BRANCH  20  25
ATOM     21  N   UNL     1      -2.464   5.565   1.042  0.00  0.00    -0.298 N 
ATOM     22  C   UNL     1      -3.164   6.745   1.163  0.00  0.00    +0.172 A 
ATOM     23  N   UNL     1      -3.395   6.926   2.445  0.00  0.00    -0.128 NA
ATOM     24  N   UNL     1      -2.887   5.960   3.123  0.00  0.00    -0.122 NA
ATOM     25  C   UNL     1      -2.306   5.099   2.318  0.00  0.00    +0.197 A 
BRANCH  22  26
ATOM     26  C   UNL     1      -3.577   7.633   0.065  0.00  0.00    +0.056 A 
ATOM     27  C   UNL     1      -4.515   8.636   0.070  0.00  0.00    +0.019 A 
ATOM     28  C   UNL     1      -4.730   9.344  -1.091  0.00  0.00    +0.008 A 
ATOM     29  C   UNL     1      -4.021   9.024  -2.204  0.00  0.00    +0.046 A 
ATOM     30  S   UNL     1      -2.996   7.682  -1.623  0.00  0.00    -0.094 S 
ENDBRANCH  22  26
BRANCH  21  31
ATOM     31  C   UNL     1      -1.984   4.943  -0.194  0.00  0.00    +0.152 C 
BRANCH  31  33
ATOM     32  C   UNL     1      -2.773   2.737  -0.883  0.00  0.00    +0.005 C 
ATOM     33  C   UNL     1      -3.040   4.011  -0.730  0.00  0.00    -0.013 C 
ENDBRANCH  31  33
ENDBRANCH  21  31
ENDBRANCH  20  25
ENDBRANCH   1  20
TORSDOF 6
