REMARK  Name = ZINC09125660
REMARK  4 active torsions:
REMARK  status: ('A' for Active; 'I' for Inactive)
REMARK    1  A    between atoms: C_1  and  C_2
REMARK    2  A    between atoms: N_8  and  C_9
REMARK    3  A    between atoms: C_16  and  C_18
REMARK    4  A    between atoms: C_18  and  N_19
REMARK                            x       y       z     vdW  Elec       q    Type
REMARK                         _______ _______ _______ _____ _____    ______ ____
ROOT
ATOM      1  C   UNL     1      -0.005   1.478   0.290  0.00  0.00    +0.214 C 
ENDROOT
BRANCH   1   2
ATOM      2  N   UNL     1       1.345   1.955   0.599  0.00  0.00    -0.215 N 
ATOM      3  C   UNL     1       1.797   2.197   1.847  0.00  0.00    +0.252 C 
ATOM      4  O   UNL     1       1.187   2.066   2.886  0.00  0.00    -0.272 OA
ATOM      5  C   UNL     1       3.225   2.662   1.676  0.00  0.00    +0.144 C 
ATOM      6  C   UNL     1       4.188   1.705   2.372  0.00  0.00    +0.081 C 
ATOM      7  C   UNL     1       4.106   1.954   3.885  0.00  0.00    +0.232 C 
ATOM      8  O   UNL     1       4.556   3.283   4.149  0.00  0.00    -0.492 OA
ATOM      9  C   UNL     1       4.032   4.295   3.411  0.00  0.00    +0.126 A 
ATOM     10  C   UNL     1       3.384   4.058   2.209  0.00  0.00    +0.027 A 
ATOM     11  C   UNL     1       2.871   5.119   1.484  0.00  0.00    +0.010 A 
ATOM     12  C   UNL     1       2.998   6.412   1.954  0.00  0.00    +0.001 A 
ATOM     13  C   UNL     1       3.641   6.651   3.154  0.00  0.00    +0.004 A 
ATOM     14  C   UNL     1       4.156   5.598   3.881  0.00  0.00    +0.046 A 
ATOM     15  N   UNL     1       3.437   2.638   0.223  0.00  0.00    -0.281 N 
ATOM     16  C   UNL     1       2.282   2.211  -0.323  0.00  0.00    +0.310 C 
ATOM     17  O   UNL     1       2.110   2.074  -1.518  0.00  0.00    -0.252 OA
ATOM     18  H   UNL     1       4.248   2.882  -0.249  0.00  0.00    +0.152 HD
ENDBRANCH   1   2
BRANCH   1  26
ATOM     19  C   UNL     1      -3.754   2.796  -1.567  0.00  0.00    +0.033 C 
ATOM     20  C   UNL     1      -3.790   1.905  -0.324  0.00  0.00    +0.115 C 
ATOM     21  C   UNL     1      -4.928   0.873  -0.483  0.00  0.00    +0.103 C 
ATOM     22  S   UNL     1      -3.969  -0.687  -0.373  0.00  0.00    -0.088 S 
ATOM     23  C   UNL     1      -2.342   0.003  -0.144  0.00  0.00    +0.163 C 
ATOM     24  N   UNL     1      -2.495   1.288  -0.155  0.00  0.00    -0.259 NA
ATOM     25  N   UNL     1      -1.156  -0.694   0.009  0.00  0.00    -0.218 N 
ATOM     26  C   UNL     1      -0.013  -0.029   0.273  0.00  0.00    +0.244 C 
ATOM     27  O   UNL     1       1.008  -0.644   0.497  0.00  0.00    -0.273 OA
BRANCH  25  28
ATOM     28  C   UNL     1      -1.143  -2.091  -0.110  0.00  0.00    +0.043 A 
ATOM     29  C   UNL     1      -0.504  -2.690  -1.187  0.00  0.00    +0.025 A 
ATOM     30  C   UNL     1      -0.488  -4.067  -1.300  0.00  0.00    +0.022 A 
ATOM     31  C   UNL     1      -1.117  -4.848  -0.345  0.00  0.00    +0.041 A 
ATOM     32  C   UNL     1      -1.759  -4.252   0.726  0.00  0.00    +0.022 A 
ATOM     33  C   UNL     1      -1.773  -2.876   0.846  0.00  0.00    +0.025 A 
ATOM     34 CL   UNL     1      -1.100  -6.577  -0.493  0.00  0.00    -0.084 Cl
ENDBRANCH  25  28
ENDBRANCH   1  26
TORSDOF 3
