REMARK  Name = ZINC63929250
REMARK  7 active torsions:
REMARK  status: ('A' for Active; 'I' for Inactive)
REMARK    1  A    between atoms: C_1  and  C_2
REMARK    2  A    between atoms: C_4  and  C_17
REMARK    3  A    between atoms: C_7  and  O_12
REMARK    4  A    between atoms: O_12  and  C_13
REMARK    5  A    between atoms: C_17  and  C_18
REMARK    6  A    between atoms: C_18  and  N_19
REMARK    7  A    between atoms: C_20  and  C_22
REMARK                            x       y       z     vdW  Elec       q    Type
REMARK                         _______ _______ _______ _____ _____    ______ ____
ROOT
ATOM      1  C   UNL     1      -2.494  -0.315  -0.984  0.00  0.00    +0.052 C 
ENDROOT
BRANCH   1   4
ATOM      2  C   UNL     1      -0.019   1.526   0.010  0.00  0.00    +0.035 C 
ATOM      3  C   UNL     1       0.002  -0.004   0.002  0.00  0.00    +0.103 C 
ATOM      4  C   UNL     1      -1.410  -0.545   0.038  0.00  0.00    -0.037 C 
ATOM      5  C   UNL     1      -1.503  -1.275   1.172  0.00  0.00    +0.003 A 
ATOM      6  C   UNL     1      -2.598  -2.045   1.773  0.00  0.00    +0.056 A 
ATOM      7  C   UNL     1      -2.393  -2.691   2.946  0.00  0.00    +0.131 A 
ATOM      8  C   UNL     1      -1.160  -2.651   3.620  0.00  0.00    +0.048 A 
ATOM      9  C   UNL     1      -0.095  -1.970   3.147  0.00  0.00    +0.029 A 
ATOM     10  C   UNL     1      -0.204  -1.234   1.883  0.00  0.00    +0.043 A 
ATOM     11  N   UNL     1       0.658  -0.508   1.214  0.00  0.00    -0.378 N 
ATOM     12  H   UNL     1       1.576  -0.332   1.476  0.00  0.00    +0.160 HD
BRANCH   7  13
ATOM     13  O   UNL     1      -3.416  -3.401   3.491  0.00  0.00    -0.406 OA
BRANCH  13  14
ATOM     14  C   UNL     1      -3.157  -4.065   4.729  0.00  0.00    +0.575 C 
ATOM     15  F   UNL     1      -2.796  -3.122   5.698  0.00  0.00    -0.133 F 
ATOM     16  F   UNL     1      -4.309  -4.743   5.145  0.00  0.00    -0.133 F 
ATOM     17  F   UNL     1      -2.114  -4.981   4.558  0.00  0.00    -0.133 F 
ENDBRANCH  13  14
ENDBRANCH   7  13
ENDBRANCH   1   4
BRANCH   1  18
ATOM     18  C   UNL     1      -3.765  -1.048  -0.551  0.00  0.00    +0.108 C 
BRANCH  18  19
ATOM     19  N   UNL     1      -4.819  -0.825  -1.544  0.00  0.00    -0.314 N 
ATOM     20  C   UNL     1      -6.036  -1.378  -1.371  0.00  0.00    +0.227 C 
ATOM     21  O   UNL     1      -6.259  -2.061  -0.394  0.00  0.00    -0.275 OA
ATOM     22  H   UNL     1      -4.641  -0.279  -2.326  0.00  0.00    +0.149 HD
BRANCH  20  23
ATOM     23  C   UNL     1      -7.120  -1.149  -2.393  0.00  0.00    +0.188 C 
ATOM     24  C   UNL     1      -8.404  -1.861  -1.957  0.00  0.00    +0.063 C 
ATOM     25  C   UNL     1      -9.578  -1.321  -2.733  0.00  0.00    -0.004 A 
ATOM     26  C   UNL     1     -10.729  -2.089  -2.811  0.00  0.00    +0.007 A 
ATOM     27  C   UNL     1     -11.830  -1.629  -3.506  0.00  0.00    +0.000 A 
ATOM     28  C   UNL     1     -11.789  -0.396  -4.130  0.00  0.00    +0.004 A 
ATOM     29  C   UNL     1     -10.646   0.373  -4.059  0.00  0.00    +0.046 A 
ATOM     30  C   UNL     1      -9.534  -0.089  -3.362  0.00  0.00    +0.135 A 
ATOM     31  O   UNL     1      -8.419   0.692  -3.332  0.00  0.00    -0.425 OA
ATOM     32  C   UNL     1      -7.427   0.332  -2.493  0.00  0.00    +0.325 C 
ATOM     33  O   UNL     1      -6.813   1.150  -1.851  0.00  0.00    -0.250 OA
ENDBRANCH  20  23
ENDBRANCH  18  19
ENDBRANCH   1  18
TORSDOF 6
