REMARK  Name = ZINC40091437
REMARK  6 active torsions:
REMARK  status: ('A' for Active; 'I' for Inactive)
REMARK    1  A    between atoms: C_1  and  C_2
REMARK    2  A    between atoms: C_2  and  C_4
REMARK    3  A    between atoms: C_2  and  N_15
REMARK    4  A    between atoms: N_18  and  C_19
REMARK    5  A    between atoms: C_19  and  C_21
REMARK    6  A    between atoms: C_19  and  C_22
REMARK                            x       y       z     vdW  Elec       q    Type
REMARK                         _______ _______ _______ _____ _____    ______ ____
ROOT
ATOM      1  N   UNL     1       0.711  -0.489   1.189  0.00  0.00    -0.293 N 
ATOM      2  C   UNL     1       0.051  -0.633   2.355  0.00  0.00    +0.301 C 
ATOM      3  O   UNL     1      -1.132  -0.361   2.423  0.00  0.00    -0.253 OA
ATOM      4  N   UNL     1       0.703  -1.080   3.447  0.00  0.00    -0.293 N 
ATOM      5  H   UNL     1       1.654  -0.707   1.135  0.00  0.00    +0.151 HD
ATOM      6  H   UNL     1       1.647  -1.298   3.394  0.00  0.00    +0.151 HD
ENDROOT
BRANCH   1   8
ATOM      7  C   UNL     1      -0.019   1.526   0.010  0.00  0.00    +0.033 C 
ATOM      8  C   UNL     1       0.002  -0.004   0.002  0.00  0.00    +0.102 C 
BRANCH   8   9
ATOM      9  C   UNL     1       0.707  -0.490  -1.238  0.00  0.00    -0.024 A 
ATOM     10  C   UNL     1       2.089  -0.510  -1.282  0.00  0.00    +0.009 A 
ATOM     11  C   UNL     1       2.744  -0.955  -2.416  0.00  0.00    +0.050 A 
ATOM     12  C   UNL     1       2.009  -1.382  -3.509  0.00  0.00    +0.162 A 
ATOM     13  C   UNL     1       0.622  -1.362  -3.465  0.00  0.00    +0.162 A 
ATOM     14  C   UNL     1      -0.030  -0.920  -2.327  0.00  0.00    +0.055 A 
ATOM     15  O   UNL     1      -0.093  -1.786  -4.548  0.00  0.00    -0.488 OA
ATOM     16  C   UNL     1      -0.013  -0.960  -5.712  0.00  0.00    +0.232 C 
ATOM     17  C   UNL     1       1.220  -1.302  -6.532  0.00  0.00    +0.082 C 
ATOM     18  C   UNL     1       2.512  -0.996  -5.791  0.00  0.00    +0.232 C 
ATOM     19  O   UNL     1       2.642  -1.825  -4.634  0.00  0.00    -0.488 OA
ENDBRANCH   8   9
ENDBRANCH   1   8
BRANCH   4  20
ATOM     20  C   UNL     1      -0.014  -1.237   4.715  0.00  0.00    +0.102 C 
ATOM     21  C   UNL     1      -0.701  -2.603   4.747  0.00  0.00    +0.033 C 
BRANCH  20  22
ATOM     22  C   UNL     1       0.962  -1.138   5.859  0.00  0.00    -0.024 A 
ATOM     23  C   UNL     1       2.210  -1.725   5.753  0.00  0.00    +0.009 A 
ATOM     24  C   UNL     1       3.111  -1.638   6.799  0.00  0.00    +0.050 A 
ATOM     25  C   UNL     1       2.759  -0.961   7.955  0.00  0.00    +0.162 A 
ATOM     26  C   UNL     1       1.507  -0.372   8.061  0.00  0.00    +0.162 A 
ATOM     27  C   UNL     1       0.609  -0.457   7.010  0.00  0.00    +0.055 A 
ATOM     28  O   UNL     1       1.170   0.294   9.203  0.00  0.00    -0.488 OA
ATOM     29  C   UNL     1       1.006  -0.512  10.372  0.00  0.00    +0.232 C 
ATOM     30  C   UNL     1       2.346  -0.763  11.046  0.00  0.00    +0.082 C 
ATOM     31  C   UNL     1       3.286  -1.584  10.178  0.00  0.00    +0.232 C 
ATOM     32  O   UNL     1       3.639  -0.867   8.993  0.00  0.00    -0.488 OA
ENDBRANCH  20  22
ENDBRANCH   4  20
TORSDOF 4
