REMARK  Name = ZINC62117996
REMARK  2 active torsions:
REMARK  status: ('A' for Active; 'I' for Inactive)
REMARK    1  A    between atoms: C_12  and  C_13
REMARK    2  A    between atoms: C_18  and  C_21
REMARK                            x       y       z     vdW  Elec       q    Type
REMARK                         _______ _______ _______ _____ _____    ______ ____
ROOT
ATOM      1  C   UNL     1      -0.017   1.374   0.010  0.00  0.00    +0.027 A 
ATOM      2  C   UNL     1       1.184   2.080   0.002  0.00  0.00    +0.013 A 
ATOM      3  C   UNL     1       2.407   1.390  -0.013  0.00  0.00    +0.048 A 
ATOM      4  C   UNL     1       2.406  -0.001  -0.021  0.00  0.00    +0.042 A 
ATOM      5  C   UNL     1       1.211  -0.688  -0.014  0.00  0.00    +0.034 A 
ATOM      6  C   UNL     1       0.002  -0.004   0.002  0.00  0.00    +0.033 A 
ATOM      7 BR   UNL     1      -1.625  -0.968   0.013  0.00  0.00    -0.049 Br
ATOM      8 BR   UNL     1       1.218  -2.579  -0.025  0.00  0.00    -0.049 Br
ATOM      9  N   UNL     1       3.414   2.334  -0.018  0.00  0.00    -0.360 N 
ATOM     10  H   UNL     1       4.362   2.131  -0.028  0.00  0.00    +0.165 HD
ATOM     11  C   UNL     1       2.891   3.584  -0.006  0.00  0.00    +0.096 A 
ATOM     12  C   UNL     1       1.529   3.514   0.007  0.00  0.00    +0.062 A 
ENDROOT
BRANCH  12  13
ATOM     13  C   UNL     1       0.590   4.644   0.022  0.00  0.00    +0.249 C 
ATOM     14  O   UNL     1      -0.609   4.439   0.033  0.00  0.00    -0.270 OA
ATOM     15  N   UNL     1       1.058   5.908   0.025  0.00  0.00    -0.297 N 
ATOM     16  C   UNL     1       2.475   6.297   0.007  0.00  0.00    +0.109 C 
ATOM     17  C   UNL     1       2.527   7.839   0.044  0.00  0.00    +0.035 C 
ATOM     18  C   UNL     1       1.151   8.219   0.652  0.00  0.00    +0.121 C 
ATOM     19  C   UNL     1       0.232   7.129   0.040  0.00  0.00    +0.123 C 
BRANCH  18  20
ATOM     20  C   UNL     1       0.725   9.594   0.208  0.00  0.00    +0.361 C 
ATOM     21  O   UNL     1      -0.459   9.859   0.096  0.00  0.00    -0.246 OA
ATOM     22  O   UNL     1       1.566  10.442  -0.041  0.00  0.00    -0.246 OA
ENDBRANCH  18  20
ENDBRANCH  12  13
TORSDOF 2
