REMARK  Name = ZINC36597608
REMARK  13 active torsions:
REMARK  status: ('A' for Active; 'I' for Inactive)
REMARK    1  A    between atoms: C_1  and  C_2
REMARK    2  A    between atoms: C_5  and  C_7
REMARK    3  A    between atoms: C_7  and  N_8
REMARK    4  A    between atoms: N_8  and  C_9
REMARK    5  A    between atoms: C_9  and  C_11
REMARK    6  A    between atoms: C_9  and  C_18
REMARK    7  A    between atoms: N_20  and  C_21
REMARK    8  A    between atoms: C_21  and  C_22
REMARK    9  A    between atoms: C_21  and  C_23
REMARK   10  A    between atoms: C_21  and  C_24
REMARK   11  A    between atoms: C_25  and  C_27
REMARK   12  A    between atoms: C_28  and  O_34
REMARK   13  A    between atoms: C_32  and  O_33
REMARK                            x       y       z     vdW  Elec       q    Type
REMARK                         _______ _______ _______ _____ _____    ______ ____
ROOT
ATOM      1  N   UNL     1       1.948  -3.592  -1.402  0.00  0.00    -0.274 N 
ATOM      2  C   UNL     1       1.038  -4.465  -1.876  0.00  0.00    +0.255 C 
ATOM      3  O   UNL     1       1.172  -4.940  -2.987  0.00  0.00    -0.270 OA
ENDROOT
BRANCH   2   4
ATOM      4  C   UNL     1      -0.119  -4.844  -1.048  0.00  0.00    +0.119 A 
ATOM      5  C   UNL     1      -1.312  -4.112  -1.124  0.00  0.00    +0.133 A 
ATOM      6  C   UNL     1      -2.395  -4.478  -0.340  0.00  0.00    +0.046 A 
ATOM      7  C   UNL     1      -2.301  -5.560   0.514  0.00  0.00    +0.007 A 
ATOM      8  C   UNL     1      -1.130  -6.289   0.598  0.00  0.00    +0.046 A 
ATOM      9  C   UNL     1      -0.037  -5.944  -0.181  0.00  0.00    +0.133 A 
BRANCH   9  10
ATOM     10  O   UNL     1       1.110  -6.665  -0.102  0.00  0.00    -0.506 OA
ATOM     11  H   UNL     1       1.731  -6.344   0.566  0.00  0.00    +0.292 HD
ENDBRANCH   9  10
BRANCH   5  12
ATOM     12  O   UNL     1      -1.406  -3.049  -1.961  0.00  0.00    -0.506 OA
ATOM     13  H   UNL     1      -1.720  -3.273  -2.848  0.00  0.00    +0.292 HD
ENDBRANCH   5  12
ENDBRANCH   2   4
BRANCH   1  14
ATOM     14  C   UNL     1       1.860  -3.120  -0.018  0.00  0.00    +0.183 C 
BRANCH  14  19
ATOM     15  C   UNL     1       0.506   1.739  -0.075  0.00  0.00    +0.086 C 
ATOM     16  C   UNL     1       0.422   0.236   0.011  0.00  0.00    +0.102 A 
ATOM     17  C   UNL     1      -0.701  -0.479   0.200  0.00  0.00    +0.045 A 
ATOM     18  C   UNL     1      -0.322  -1.841   0.216  0.00  0.00    +0.046 A 
ATOM     19  C   UNL     1       1.011  -1.876   0.035  0.00  0.00    +0.122 A 
ATOM     20  O   UNL     1       1.455  -0.615  -0.094  0.00  0.00    -0.463 OA
ENDBRANCH  14  19
ENDBRANCH   1  14
BRANCH   1  21
ATOM     21  C   UNL     1       3.026  -3.114  -2.272  0.00  0.00    +0.193 C 
BRANCH  21  22
ATOM     22  C   UNL     1       3.913  -4.271  -2.655  0.00  0.00    -0.018 A 
ATOM     23  C   UNL     1       4.487  -5.056  -1.673  0.00  0.00    +0.007 A 
ATOM     24  C   UNL     1       5.300  -6.117  -2.023  0.00  0.00    +0.020 A 
ATOM     25  C   UNL     1       5.540  -6.393  -3.358  0.00  0.00    +0.041 A 
ATOM     26  C   UNL     1       4.965  -5.607  -4.340  0.00  0.00    +0.020 A 
ATOM     27  C   UNL     1       4.148  -4.549  -3.988  0.00  0.00    +0.007 A 
ATOM     28 CL   UNL     1       6.561  -7.726  -3.799  0.00  0.00    -0.084 Cl
ENDBRANCH  21  22
BRANCH  21  29
ATOM     29  C   UNL     1       2.435  -2.501  -3.515  0.00  0.00    +0.239 C 
ATOM     30  O   UNL     1       1.231  -2.467  -3.660  0.00  0.00    -0.273 OA
ATOM     31  N   UNL     1       3.243  -1.991  -4.465  0.00  0.00    -0.309 N 
ATOM     32  H   UNL     1       4.206  -2.018  -4.349  0.00  0.00    +0.149 HD
BRANCH  31  33
ATOM     33  C   UNL     1       2.668  -1.395  -5.674  0.00  0.00    +0.026 C 
ATOM     34  C   UNL     1       1.768  -0.221  -5.285  0.00  0.00    +0.031 C 
ATOM     35  C   UNL     1       3.794  -0.896  -6.582  0.00  0.00    +0.031 C 
ATOM     36  C   UNL     1       1.842  -2.447  -6.417  0.00  0.00    +0.031 C 
ENDBRANCH  31  33
ENDBRANCH  21  29
ENDBRANCH   1  21
TORSDOF 9
