REMARK  Name = ZINC35566200
REMARK  12 active torsions:
REMARK  status: ('A' for Active; 'I' for Inactive)
REMARK    1  A    between atoms: C_1  and  C_2
REMARK    2  A    between atoms: C_3  and  C_8
REMARK    3  A    between atoms: C_5  and  C_7
REMARK    4  A    between atoms: C_8  and  C_10
REMARK    5  A    between atoms: C_15  and  C_17
REMARK    6  A    between atoms: C_21  and  O_23
REMARK    7  A    between atoms: O_23  and  C_24
REMARK    8  A    between atoms: C_24  and  C_25
REMARK    9  A    between atoms: C_25  and  C_26
REMARK   10  A    between atoms: C_26  and  C_27
REMARK   11  A    between atoms: C_26  and  C_28
REMARK   12  A    between atoms: C_32  and  C_34
REMARK                            x       y       z     vdW  Elec       q    Type
REMARK                         _______ _______ _______ _____ _____    ______ ____
ROOT
ATOM      1  C   UNL     1       0.080  -1.305  -3.642  0.00  0.00    +0.077 C 
ATOM      2  C   UNL     1       0.149  -1.138  -4.983  0.00  0.00    +0.250 C 
ATOM      3  C   UNL     1       0.171  -2.461  -5.636  0.00  0.00    +0.293 C 
ATOM      4  O   UNL     1       0.230  -2.644  -6.836  0.00  0.00    -0.266 OA
ATOM      5  N   UNL     1       0.116  -3.433  -4.708  0.00  0.00    -0.230 N 
ATOM      6  C   UNL     1       0.061  -2.794  -3.388  0.00  0.00    +0.152 C 
ATOM      7  C   UNL     1       0.117  -4.800  -4.956  0.00  0.00    +0.191 A 
ATOM      8  N   UNL     1       0.059  -5.820  -4.110  0.00  0.00    -0.125 NA
ATOM      9  N   UNL     1       0.070  -7.016  -4.509  0.00  0.00    -0.145 NA
ATOM     10  C   UNL     1       0.140  -7.329  -5.788  0.00  0.00    +0.101 A 
ATOM     11  S   UNL     1       0.188  -5.690  -6.508  0.00  0.00    -0.035 S 
ATOM     12  C   UNL     1       0.165  -8.680  -6.455  0.00  0.00    +0.075 C 
ATOM     13  O   UNL     1       0.191   0.054  -5.623  0.00  0.00    -0.282 OA
ENDROOT
BRANCH   6  14
ATOM     14  C   UNL     1       1.258  -3.195  -2.565  0.00  0.00    -0.019 A 
ATOM     15  C   UNL     1       2.516  -3.218  -3.140  0.00  0.00    +0.006 A 
ATOM     16  C   UNL     1       3.615  -3.585  -2.387  0.00  0.00    +0.004 A 
ATOM     17  C   UNL     1       3.461  -3.931  -1.058  0.00  0.00    +0.045 A 
ATOM     18  C   UNL     1       2.200  -3.909  -0.479  0.00  0.00    +0.121 A 
ATOM     19  C   UNL     1       1.099  -3.534  -1.236  0.00  0.00    +0.051 A 
BRANCH  18  20
ATOM     20  O   UNL     1       2.045  -4.248   0.827  0.00  0.00    -0.492 OA
BRANCH  20  21
ATOM     21  C   UNL     1       3.224  -4.618   1.546  0.00  0.00    +0.229 C 
BRANCH  21  22
ATOM     22  C   UNL     1       2.853  -4.964   2.989  0.00  0.00    +0.044 C 
BRANCH  22  23
ATOM     23  C   UNL     1       4.115  -5.360   3.759  0.00  0.00    -0.014 C 
ATOM     24  C   UNL     1       5.051  -4.154   3.859  0.00  0.00    +0.007 C 
ATOM     25  C   UNL     1       3.731  -5.825   5.164  0.00  0.00    +0.007 C 
ENDBRANCH  22  23
ENDBRANCH  21  22
ENDBRANCH  20  21
ENDBRANCH  18  20
ENDBRANCH   6  14
BRANCH   1  26
ATOM     26  C   UNL     1       0.038  -0.244  -2.629  0.00  0.00    +0.203 C 
ATOM     27  O   UNL     1       1.001   0.486  -2.470  0.00  0.00    -0.286 OA
BRANCH  26  30
ATOM     28  C   UNL     1      -0.324   1.744  -0.241  0.00  0.00    +0.067 C 
ATOM     29  C   UNL     1      -1.387   0.798  -0.739  0.00  0.00    +0.057 A 
ATOM     30  C   UNL     1      -1.163  -0.062  -1.807  0.00  0.00    +0.082 A 
ATOM     31  S   UNL     1      -2.746  -0.884  -1.899  0.00  0.00    -0.069 S 
ATOM     32  C   UNL     1      -3.499  -0.084  -0.625  0.00  0.00    +0.076 A 
ATOM     33  N   UNL     1      -2.573   0.738  -0.185  0.00  0.00    -0.249 NA
ATOM     34  C   UNL     1      -4.901  -0.270  -0.106  0.00  0.00    +0.073 C 
ENDBRANCH  26  30
ENDBRANCH   1  26
TORSDOF 7
