REMARK  Name = ZINC22785645
REMARK  13 active torsions:
REMARK  status: ('A' for Active; 'I' for Inactive)
REMARK    1  A    between atoms: C_1  and  C_2
REMARK    2  A    between atoms: C_2  and  C_3
REMARK    3  A    between atoms: C_3  and  C_5
REMARK    4  A    between atoms: C_3  and  C_6
REMARK    5  A    between atoms: C_11  and  O_12
REMARK    6  A    between atoms: O_12  and  C_13
REMARK    7  A    between atoms: C_13  and  C_14
REMARK    8  A    between atoms: C_14  and  C_16
REMARK    9  A    between atoms: C_14  and  O_40
REMARK   10  A    between atoms: C_16  and  N_17
REMARK   11  A    between atoms: N_20  and  C_23
REMARK   12  A    between atoms: C_23  and  C_24
REMARK   13  A    between atoms: C_24  and  N_25
REMARK                            x       y       z     vdW  Elec       q    Type
REMARK                         _______ _______ _______ _____ _____    ______ ____
ROOT
ATOM      1  N   UNL     1      -2.953  -1.303  -7.579  0.00  0.00    -0.303 NA
ATOM      2  C   UNL     1      -3.964  -0.427  -6.971  0.00  0.00    +0.066 C 
ATOM      3  C   UNL     1      -4.412   0.618  -7.995  0.00  0.00    -0.063 C 
ATOM      4  N   UNL     1      -4.952  -0.062  -9.180  0.00  0.00    +0.382 N 
ATOM      5  C   UNL     1      -3.941  -0.938  -9.788  0.00  0.00    -0.063 C 
ATOM      6  C   UNL     1      -3.493  -1.983  -8.764  0.00  0.00    +0.066 C 
ATOM      7  H   UNL     1      -5.796  -0.690  -8.857  0.00  0.00    -0.082 HD
ENDROOT
BRANCH   1   8
ATOM      8  C   UNL     1      -2.442  -2.274  -6.602  0.00  0.00    +0.119 C 
BRANCH   8   9
ATOM      9  C   UNL     1      -1.669  -1.537  -5.507  0.00  0.00    +0.166 C 
BRANCH   9  10
ATOM     10  O   UNL     1      -0.574  -0.828  -6.091  0.00  0.00    -0.387 OA
ATOM     11  H   UNL     1      -0.762  -0.054  -6.850  0.00  0.00    +0.210 HD
ENDBRANCH   9  10
BRANCH   9  12
ATOM     12  C   UNL     1      -1.136  -2.548  -4.489  0.00  0.00    +0.261 C 
BRANCH  12  13
ATOM     13  O   UNL     1      -0.515  -1.853  -3.406  0.00  0.00    -0.489 OA
BRANCH  13  19
ATOM     14  C   UNL     1       0.632  -2.000  -1.327  0.00  0.00    -0.003 A 
ATOM     15  C   UNL     1       1.173  -2.772  -0.318  0.00  0.00    +0.007 A 
ATOM     16  C   UNL     1       1.090  -4.151  -0.380  0.00  0.00    +0.001 A 
ATOM     17  C   UNL     1       0.474  -4.761  -1.457  0.00  0.00    +0.004 A 
ATOM     18  C   UNL     1      -0.064  -3.994  -2.472  0.00  0.00    +0.046 A 
ATOM     19  C   UNL     1       0.014  -2.610  -2.409  0.00  0.00    +0.124 A 
BRANCH  14  20
ATOM     20  C   UNL     1       0.718  -0.497  -1.257  0.00  0.00    +0.019 C 
ATOM     21  C   UNL     1       2.187  -0.073  -1.207  0.00  0.00    +0.012 C 
BRANCH  20  23
ATOM     22  C   UNL     1      -0.019   1.526   0.010  0.00  0.00    +0.004 C 
ATOM     23  C   UNL     1       0.002  -0.004   0.002  0.00  0.00    +0.004 C 
ENDBRANCH  20  23
ENDBRANCH  14  20
ENDBRANCH  13  19
ENDBRANCH  12  13
ENDBRANCH   9  12
ENDBRANCH   8   9
ENDBRANCH   1   8
BRANCH   4  24
ATOM     24  C   UNL     1      -5.464   0.909 -10.157  0.00  0.00    -0.059 C 
BRANCH  24  25
ATOM     25  C   UNL     1      -6.319   1.954  -9.438  0.00  0.00    +0.098 C 
BRANCH  25  26
ATOM     26  N   UNL     1      -6.828   2.923 -10.412  0.00  0.00    -0.236 N 
ATOM     27  C   UNL     1      -6.099   4.024 -10.674  0.00  0.00    +0.254 C 
ATOM     28  O   UNL     1      -5.038   4.197 -10.104  0.00  0.00    -0.270 OA
ATOM     29  C   UNL     1      -6.575   5.016 -11.649  0.00  0.00    +0.046 A 
ATOM     30  C   UNL     1      -5.854   6.162 -11.952  0.00  0.00    +0.014 A 
ATOM     31  C   UNL     1      -6.349   7.073 -12.877  0.00  0.00    +0.001 A 
ATOM     32  C   UNL     1      -7.543   6.875 -13.509  0.00  0.00    +0.008 A 
ATOM     33  C   UNL     1      -8.304   5.726 -13.231  0.00  0.00    -0.016 A 
ATOM     34  C   UNL     1      -7.813   4.794 -12.293  0.00  0.00    +0.006 A 
ATOM     35  C   UNL     1      -8.556   3.630 -11.991  0.00  0.00    +0.046 A 
ATOM     36  C   UNL     1      -9.770   3.421 -12.628  0.00  0.00    +0.014 A 
ATOM     37  C   UNL     1     -10.242   4.347 -13.550  0.00  0.00    +0.001 A 
ATOM     38  C   UNL     1      -9.539   5.477 -13.855  0.00  0.00    +0.008 A 
ATOM     39  C   UNL     1      -8.011   2.681 -11.008  0.00  0.00    +0.254 C 
ATOM     40  O   UNL     1      -8.633   1.673 -10.732  0.00  0.00    -0.270 OA
ENDBRANCH  25  26
ENDBRANCH  24  25
ENDBRANCH   4  24
TORSDOF 11
