REMARK  Name = ZINC59221061
REMARK  10 active torsions:
REMARK  status: ('A' for Active; 'I' for Inactive)
REMARK    1  A    between atoms: C_1  and  O_2
REMARK    2  A    between atoms: O_2  and  C_3
REMARK    3  A    between atoms: C_8  and  N_9
REMARK    4  A    between atoms: N_11  and  C_26
REMARK    5  A    between atoms: C_15  and  C_16
REMARK    6  A    between atoms: C_19  and  O_24
REMARK    7  A    between atoms: C_20  and  O_22
REMARK    8  A    between atoms: O_22  and  C_23
REMARK    9  A    between atoms: C_31  and  O_32
REMARK   10  A    between atoms: O_32  and  C_33
REMARK                            x       y       z     vdW  Elec       q    Type
REMARK                         _______ _______ _______ _____ _____    ______ ____
ROOT
ATOM      1  N   UNL     1      -0.519  -2.897   0.374  0.00  0.00    -0.222 NA
ATOM      2  C   UNL     1      -0.224  -4.175   0.315  0.00  0.00    +0.173 C 
ATOM      3  N   UNL     1      -0.545  -5.086  -0.671  0.00  0.00    -0.211 N 
ATOM      4  C   UNL     1      -0.164  -6.348  -0.571  0.00  0.00    +0.264 C 
ATOM      5  O   UNL     1      -0.438  -7.165  -1.430  0.00  0.00    -0.269 OA
ATOM      6  C   UNL     1       0.608  -6.721   0.629  0.00  0.00    +0.078 C 
ATOM      7  C   UNL     1       1.119  -7.928   0.983  0.00  0.00    +0.028 C 
ATOM      8  S   UNL     1       0.699  -5.156   1.487  0.00  0.00    -0.048 S 
ENDROOT
BRANCH   1  14
ATOM      9  C   UNL     1      -0.881  -1.282   2.114  0.00  0.00    +0.145 A 
ATOM     10  C   UNL     1      -0.374  -0.511   3.145  0.00  0.00    +0.048 A 
ATOM     11  C   UNL     1       0.972  -0.570   3.459  0.00  0.00    +0.004 A 
ATOM     12  C   UNL     1       1.821  -1.398   2.745  0.00  0.00    +0.002 A 
ATOM     13  C   UNL     1       1.331  -2.173   1.714  0.00  0.00    +0.031 A 
ATOM     14  C   UNL     1      -0.026  -2.126   1.393  0.00  0.00    +0.108 A 
BRANCH   9  16
ATOM     15  C   UNL     1      -3.014  -0.341   2.583  0.00  0.00    +0.277 C 
ATOM     16  O   UNL     1      -2.204  -1.224   1.805  0.00  0.00    -0.493 OA
ENDBRANCH   9  16
ENDBRANCH   1  14
BRANCH   7  17
ATOM     17  C   UNL     1       1.718  -8.111   2.312  0.00  0.00    -0.020 A 
ATOM     18  C   UNL     1       1.462  -7.185   3.331  0.00  0.00    +0.012 A 
ATOM     19  C   UNL     1       2.025  -7.359   4.576  0.00  0.00    +0.050 A 
ATOM     20  C   UNL     1       2.848  -8.450   4.824  0.00  0.00    +0.158 A 
ATOM     21  C   UNL     1       3.108  -9.376   3.814  0.00  0.00    +0.162 A 
ATOM     22  C   UNL     1       2.543  -9.213   2.564  0.00  0.00    +0.057 A 
BRANCH  21  23
ATOM     23  O   UNL     1       3.915 -10.442   4.062  0.00  0.00    -0.491 OA
ATOM     24  C   UNL     1       4.139 -11.351   2.982  0.00  0.00    +0.277 C 
ENDBRANCH  21  23
BRANCH  20  25
ATOM     25  O   UNL     1       3.401  -8.616   6.054  0.00  0.00    -0.503 OA
ATOM     26  H   UNL     1       2.858  -9.136   6.662  0.00  0.00    +0.292 HD
ENDBRANCH  20  25
ENDBRANCH   7  17
BRANCH   3  27
ATOM     27  C   UNL     1      -1.282  -4.669  -1.789  0.00  0.00    +0.085 A 
ATOM     28  C   UNL     1      -0.628  -4.205  -2.921  0.00  0.00    +0.027 A 
ATOM     29  C   UNL     1      -1.356  -3.796  -4.021  0.00  0.00    +0.002 A 
ATOM     30  C   UNL     1      -2.738  -3.847  -3.998  0.00  0.00    +0.004 A 
ATOM     31  C   UNL     1      -3.398  -4.308  -2.874  0.00  0.00    +0.047 A 
ATOM     32  C   UNL     1      -2.674  -4.725  -1.768  0.00  0.00    +0.142 A 
BRANCH  32  33
ATOM     33  O   UNL     1      -3.321  -5.184  -0.664  0.00  0.00    -0.493 OA
ATOM     34  C   UNL     1      -4.749  -5.213  -0.714  0.00  0.00    +0.277 C 
ENDBRANCH  32  33
ENDBRANCH   3  27
TORSDOF 7
