REMARK  Name = ZINC39465583
REMARK  5 active torsions:
REMARK  status: ('A' for Active; 'I' for Inactive)
REMARK    1  A    between atoms: C_1  and  C_2
REMARK    2  A    between atoms: C_2  and  O_3
REMARK    3  A    between atoms: O_3  and  P_4
REMARK    4  A    between atoms: C_12  and  C_21
REMARK    5  A    between atoms: C_26  and  O_27
REMARK                            x       y       z     vdW  Elec       q    Type
REMARK                         _______ _______ _______ _____ _____    ______ ____
ROOT
ATOM      1  P   UNL     1       0.877  -2.026  -1.510  0.00  0.00    +0.421 P 
ATOM      2  O   UNL     1       1.289  -2.760  -0.293  0.00  0.00    -0.239 OA
ATOM      3  N   UNL     1      -0.518  -2.667  -2.124  0.00  0.00    -0.156 NA
ATOM      4  N   UNL     1      -0.391  -3.821  -2.866  0.00  0.00    -0.224 NA
ATOM      5  C   UNL     1      -1.712  -4.248  -3.351  0.00  0.00    +0.108 C 
ATOM      6  C   UNL     1      -1.603  -5.681  -3.874  0.00  0.00    +0.052 C 
ATOM      7  C   UNL     1      -0.466  -5.776  -4.859  0.00  0.00    -0.041 A 
ATOM      8  C   UNL     1      -0.437  -6.852  -5.730  0.00  0.00    +0.014 A 
ATOM      9  C   UNL     1       0.596  -6.978  -6.655  0.00  0.00    +0.004 A 
ATOM     10  C   UNL     1       1.601  -6.011  -6.698  0.00  0.00    +0.049 A 
ATOM     11  C   UNL     1       1.561  -4.944  -5.825  0.00  0.00    +0.026 A 
ATOM     12  C   UNL     1       0.529  -4.822  -4.904  0.00  0.00    -0.022 A 
ATOM     13  C   UNL     1       0.540  -3.634  -3.978  0.00  0.00    +0.130 C 
ATOM     14  C   UNL     1       1.968  -3.412  -3.469  0.00  0.00    +0.196 C 
ATOM     15  O   UNL     1       1.993  -2.206  -2.679  0.00  0.00    -0.294 OA
ATOM     16 CL   UNL     1       2.896  -6.152  -7.844  0.00  0.00    -0.083 Cl
ATOM     17  H   UNL     1      -1.381  -2.253  -1.969  0.00  0.00    +0.153 HD
ENDROOT
BRANCH   9  18
ATOM     18  C   UNL     1       0.627  -8.130  -7.587  0.00  0.00    +0.025 A 
ATOM     19  C   UNL     1      -0.366  -8.277  -8.552  0.00  0.00    +0.012 A 
ATOM     20  C   UNL     1      -0.333  -9.352  -9.417  0.00  0.00    +0.001 A 
ATOM     21  C   UNL     1       0.685 -10.285  -9.330  0.00  0.00    +0.004 A 
ATOM     22  C   UNL     1       1.676 -10.149  -8.376  0.00  0.00    +0.046 A 
ATOM     23  C   UNL     1       1.658  -9.072  -7.505  0.00  0.00    +0.125 A 
BRANCH  23  24
ATOM     24  O   UNL     1       2.635  -8.933  -6.571  0.00  0.00    -0.506 OA
ATOM     25  H   UNL     1       2.439  -9.368  -5.730  0.00  0.00    +0.292 HD
ENDBRANCH  23  24
ENDBRANCH   9  18
BRANCH   1  26
ATOM     26  O   UNL     1       0.671  -0.465  -1.174  0.00  0.00    -0.296 OA
BRANCH  26  28
ATOM     27  C   UNL     1      -0.019   1.526   0.010  0.00  0.00    +0.035 C 
ATOM     28  C   UNL     1       0.002  -0.004   0.002  0.00  0.00    +0.168 C 
ENDBRANCH  26  28
ENDBRANCH   1  26
TORSDOF 4
