REMARK  Name = ZINC24215673
REMARK  6 active torsions:
REMARK  status: ('A' for Active; 'I' for Inactive)
REMARK    1  A    between atoms: C_1  and  C_2
REMARK    2  A    between atoms: C_3  and  C_14
REMARK    3  A    between atoms: C_4  and  C_13
REMARK    4  A    between atoms: N_5  and  C_7
REMARK    5  A    between atoms: N_21  and  C_22
REMARK    6  A    between atoms: C_22  and  C_23
REMARK                            x       y       z     vdW  Elec       q    Type
REMARK                         _______ _______ _______ _____ _____    ______ ____
ROOT
ATOM      1  C   UNL     1      -1.312   1.756   0.179  0.00  0.00    +0.054 C 
ATOM      2  C   UNL     1      -0.077   0.902   0.226  0.00  0.00    +0.204 C 
ATOM      3  O   UNL     1      -0.204  -0.299   0.343  0.00  0.00    -0.277 OA
ATOM      4  N   UNL     1       1.157   1.409   0.139  0.00  0.00    -0.318 N 
ATOM      5  C   UNL     1       1.421   2.841   0.032  0.00  0.00    +0.085 C 
ATOM      6  C   UNL     1       0.154   3.576  -0.411  0.00  0.00    -0.058 C 
ATOM      7  N   UNL     1      -0.962   3.158   0.453  0.00  0.00    +0.397 N 
ATOM      8  H   UNL     1       1.994   0.696   0.151  0.00  0.00    +0.149 HD
ATOM      9  H   UNL     1      -0.645   3.242   1.502  0.00  0.00    -0.079 HD
ENDROOT
BRANCH   1  12
ATOM     10  C   UNL     1      -1.093   2.232   3.304  0.00  0.00    +0.068 C 
ATOM     11  C   UNL     1      -2.196   1.486   2.599  0.00  0.00    +0.063 A 
ATOM     12  C   UNL     1      -2.292   1.276   1.219  0.00  0.00    -0.009 A 
ATOM     13  C   UNL     1      -3.422   0.571   0.982  0.00  0.00    +0.044 A 
ATOM     14  N   UNL     1      -4.018   0.336   2.173  0.00  0.00    -0.237 N 
ATOM     15  N   UNL     1      -3.230   0.923   3.172  0.00  0.00    -0.171 NA
ATOM     16  C   UNL     1      -3.926   0.125  -0.366  0.00  0.00    +0.066 C 
BRANCH  14  17
ATOM     17  C   UNL     1      -5.214  -0.367   2.373  0.00  0.00    +0.066 A 
ATOM     18  C   UNL     1      -6.155   0.106   3.277  0.00  0.00    +0.028 A 
ATOM     19  C   UNL     1      -7.335  -0.586   3.469  0.00  0.00    +0.002 A 
ATOM     20  C   UNL     1      -7.575  -1.754   2.769  0.00  0.00    +0.000 A 
ATOM     21  C   UNL     1      -6.638  -2.230   1.871  0.00  0.00    +0.002 A 
ATOM     22  C   UNL     1      -5.458  -1.540   1.672  0.00  0.00    +0.028 A 
ENDBRANCH  14  17
ENDBRANCH   1  12
BRANCH   7  23
ATOM     23  C   UNL     1      -2.126   4.035   0.270  0.00  0.00    +0.020 C 
BRANCH  23  24
ATOM     24  C   UNL     1      -1.796   5.418   0.770  0.00  0.00    +0.199 C 
ATOM     25  O   UNL     1      -0.739   5.625   1.328  0.00  0.00    -0.278 OA
ATOM     26  N   UNL     1      -2.675   6.425   0.597  0.00  0.00    -0.303 N 
ATOM     27  C   UNL     1      -2.320   7.796   0.988  0.00  0.00    +0.107 C 
ATOM     28  C   UNL     1      -1.231   8.311   0.048  0.00  0.00    +0.019 C 
ATOM     29  C   UNL     1      -1.846   8.599  -1.332  0.00  0.00    +0.002 C 
ATOM     30  C   UNL     1      -2.040   7.286  -2.083  0.00  0.00    +0.000 C 
ATOM     31  C   UNL     1      -3.537   6.992  -2.288  0.00  0.00    +0.002 C 
ATOM     32  C   UNL     1      -4.299   7.268  -0.992  0.00  0.00    +0.019 C 
ATOM     33  C   UNL     1      -3.987   6.165   0.027  0.00  0.00    +0.107 C 
ENDBRANCH  23  24
ENDBRANCH   7  23
TORSDOF 4
