REMARK  Name = ZINC33031510
REMARK  11 active torsions:
REMARK  status: ('A' for Active; 'I' for Inactive)
REMARK    1  A    between atoms: C_1  and  C_2
REMARK    2  A    between atoms: C_2  and  C_3
REMARK    3  A    between atoms: C_3  and  N_4
REMARK    4  A    between atoms: N_7  and  C_10
REMARK    5  A    between atoms: C_10  and  C_11
REMARK    6  A    between atoms: C_11  and  C_12
REMARK    7  A    between atoms: C_12  and  N_13
REMARK    8  A    between atoms: C_22  and  C_23
REMARK    9  A    between atoms: C_22  and  C_24
REMARK   10  A    between atoms: N_26  and  C_27
REMARK   11  A    between atoms: C_30  and  C_33
REMARK                            x       y       z     vdW  Elec       q    Type
REMARK                         _______ _______ _______ _____ _____    ______ ____
ROOT
ATOM      1  N   UNL     1       2.389  -0.006   0.246  0.00  0.00    -0.281 N 
ATOM      2  C   UNL     1       1.273  -0.738   0.020  0.00  0.00    +0.264 C 
ATOM      3  O   UNL     1       1.321  -1.941  -0.160  0.00  0.00    -0.268 OA
ATOM      4  C   UNL     1       0.002  -0.004   0.002  0.00  0.00    +0.109 A 
ATOM      5  C   UNL     1      -1.284  -0.457  -0.013  0.00  0.00    +0.079 A 
ATOM      6  C   UNL     1      -2.126   0.666  -0.002  0.00  0.00    +0.153 A 
ATOM      7  C   UNL     1      -1.315   1.801   0.015  0.00  0.00    +0.088 A 
ATOM      8  N   UNL     1      -0.017   1.389   0.010  0.00  0.00    -0.331 N 
ATOM      9  C   UNL     1       1.221   2.174   0.002  0.00  0.00    +0.157 C 
ATOM     10  C   UNL     1       2.324   1.379   0.699  0.00  0.00    +0.128 C 
ATOM     11  C   UNL     1       3.669   2.054   0.419  0.00  0.00    +0.043 C 
ATOM     12  C   UNL     1      -2.194   2.910   0.031  0.00  0.00    +0.067 A 
ATOM     13  C   UNL     1      -3.448   2.426   0.020  0.00  0.00    +0.198 A 
ATOM     14  O   UNL     1      -3.410   1.083  -0.002  0.00  0.00    -0.461 OA
ENDROOT
BRANCH  10  15
ATOM     15  C   UNL     1       2.072   1.394   2.184  0.00  0.00    +0.238 C 
ATOM     16  O   UNL     1       2.573   2.255   2.876  0.00  0.00    -0.273 OA
ATOM     17  N   UNL     1       1.289   0.451   2.744  0.00  0.00    -0.311 N 
ATOM     18  H   UNL     1       0.834  -0.330   2.117  0.00  0.00    +0.149 HD
BRANCH  17  19
ATOM     19  C   UNL     1       1.044   0.465   4.189  0.00  0.00    +0.073 C 
ATOM     20  C   UNL     1       2.182  -0.262   4.907  0.00  0.00    +0.022 C 
ATOM     21  C   UNL     1       1.926  -0.247   6.415  0.00  0.00    +0.005 C 
ATOM     22  C   UNL     1       0.601  -0.952   6.715  0.00  0.00    -0.014 C 
ATOM     23  C   UNL     1      -0.537  -0.225   5.996  0.00  0.00    +0.005 C 
ATOM     24  C   UNL     1      -0.281  -0.240   4.488  0.00  0.00    +0.022 C 
ATOM     25  C   UNL     1       0.345  -0.936   8.223  0.00  0.00    +0.007 C 
ENDBRANCH  17  19
ENDBRANCH  10  15
BRANCH   1  26
ATOM     26  C   UNL     1       3.700  -0.622   0.029  0.00  0.00    +0.110 C 
BRANCH  26  27
ATOM     27  C   UNL     1       4.141  -0.390  -1.417  0.00  0.00    +0.034 C 
BRANCH  27  28
ATOM     28  C   UNL     1       5.510  -1.034  -1.644  0.00  0.00    +0.086 C 
BRANCH  28  32
ATOM     29  N   UNL     1       6.882  -1.594  -5.599  0.00  0.00    +0.381 N 
ATOM     30  C   UNL     1       7.760  -0.881  -4.661  0.00  0.00    -0.063 C 
ATOM     31  C   UNL     1       7.336  -1.203  -3.226  0.00  0.00    +0.066 C 
ATOM     32  N   UNL     1       5.933  -0.810  -3.033  0.00  0.00    -0.306 NA
ATOM     33  C   UNL     1       5.055  -1.523  -3.971  0.00  0.00    +0.066 C 
ATOM     34  C   UNL     1       5.479  -1.202  -5.406  0.00  0.00    -0.063 C 
ATOM     35  H   UNL     1       6.965  -2.671  -5.391  0.00  0.00    -0.082 HD
BRANCH  29  36
ATOM     36  C   UNL     1       7.305  -1.371  -6.988  0.00  0.00    -0.079 C 
BRANCH  36  38
ATOM     37  C   UNL     1       6.678  -1.681  -9.387  0.00  0.00    +0.002 C 
ATOM     38  C   UNL     1       6.237  -1.913  -7.940  0.00  0.00    -0.022 C 
ENDBRANCH  36  38
ENDBRANCH  29  36
ENDBRANCH  28  32
ENDBRANCH  27  28
ENDBRANCH  26  27
ENDBRANCH   1  26
TORSDOF 8
