REMARK  Name = ZINC27694973
REMARK  17 active torsions:
REMARK  status: ('A' for Active; 'I' for Inactive)
REMARK    1  A    between atoms: C_1  and  C_2
REMARK    2  A    between atoms: C_2  and  C_4
REMARK    3  A    between atoms: C_2  and  C_14
REMARK    4  A    between atoms: C_7  and  C_10
REMARK    5  A    between atoms: C_10  and  C_11
REMARK    6  A    between atoms: C_11  and  C_12
REMARK    7  A    between atoms: C_11  and  C_13
REMARK    8  A    between atoms: N_22  and  C_23
REMARK    9  A    between atoms: C_23  and  C_24
REMARK   10  A    between atoms: C_24  and  C_26
REMARK   11  A    between atoms: C_24  and  O_38
REMARK   12  A    between atoms: C_26  and  N_27
REMARK   13  A    between atoms: N_27  and  C_28
REMARK   14  A    between atoms: N_27  and  C_35
REMARK   15  A    between atoms: C_28  and  C_29
REMARK   16  A    between atoms: C_35  and  C_36
REMARK   17  A    between atoms: C_35  and  C_37
REMARK                            x       y       z     vdW  Elec       q    Type
REMARK                         _______ _______ _______ _____ _____    ______ ____
ROOT
ATOM      1  C   UNL     1       1.919  -2.037  -3.464  0.00  0.00    +0.118 A 
ATOM      2  N   UNL     1       1.979  -2.198  -4.753  0.00  0.00    -0.232 NA
ATOM      3  C   UNL     1       3.162  -2.776  -5.087  0.00  0.00    +0.089 A 
ATOM      4  C   UNL     1       3.735  -3.166  -6.300  0.00  0.00    +0.030 A 
ATOM      5  C   UNL     1       4.976  -3.738  -6.313  0.00  0.00    +0.002 A 
ATOM      6  C   UNL     1       5.676  -3.937  -5.132  0.00  0.00    +0.002 A 
ATOM      7  C   UNL     1       5.130  -3.561  -3.924  0.00  0.00    +0.028 A 
ATOM      8  C   UNL     1       3.870  -2.978  -3.891  0.00  0.00    +0.069 A 
ATOM      9  N   UNL     1       3.061  -2.494  -2.882  0.00  0.00    -0.325 N 
ENDROOT
BRANCH   1  11
ATOM     10  C   UNL     1       0.531   0.003  -3.219  0.00  0.00    +0.020 C 
ATOM     11  C   UNL     1       0.758  -1.426  -2.723  0.00  0.00    +0.082 C 
BRANCH  11  12
ATOM     12  C   UNL     1      -0.482  -2.246  -2.969  0.00  0.00    -0.037 A 
ATOM     13  C   UNL     1      -0.954  -2.416  -4.258  0.00  0.00    +0.004 A 
ATOM     14  C   UNL     1      -2.091  -3.168  -4.484  0.00  0.00    +0.004 A 
ATOM     15  C   UNL     1      -2.757  -3.751  -3.422  0.00  0.00    -0.047 A 
ATOM     16  C   UNL     1      -2.285  -3.583  -2.134  0.00  0.00    +0.004 A 
ATOM     17  C   UNL     1      -1.145  -2.834  -1.908  0.00  0.00    +0.004 A 
BRANCH  15  18
ATOM     18  C   UNL     1      -3.998  -4.571  -3.668  0.00  0.00    +0.038 C 
BRANCH  18  19
ATOM     19  C   UNL     1      -3.607  -6.033  -3.894  0.00  0.00    -0.013 C 
ATOM     20  C   UNL     1      -4.871  -6.885  -4.020  0.00  0.00    +0.007 C 
ATOM     21  C   UNL     1      -2.784  -6.148  -5.178  0.00  0.00    +0.007 C 
ENDBRANCH  18  19
ENDBRANCH  15  18
ENDBRANCH  11  12
ENDBRANCH   1  11
BRANCH   9  22
ATOM     22  C   UNL     1       3.372  -2.480  -1.451  0.00  0.00    +0.153 C 
BRANCH  22  23
ATOM     23  C   UNL     1       2.884  -3.781  -0.810  0.00  0.00    +0.118 C 
BRANCH  23  24
ATOM     24  O   UNL     1       3.621  -4.882  -1.346  0.00  0.00    -0.392 OA
ATOM     25  H   UNL     1       4.574  -4.828  -1.193  0.00  0.00    +0.210 HD
ENDBRANCH  23  24
BRANCH  23  26
ATOM     26  C   UNL     1       3.096  -3.715   0.704  0.00  0.00    -0.045 C 
BRANCH  26  27
ATOM     27  N   UNL     1       2.617  -4.959   1.321  0.00  0.00    +0.386 N 
ATOM     28  H   UNL     1       3.024  -5.749   0.844  0.00  0.00    -0.081 HD
BRANCH  27  29
ATOM     29  C   UNL     1       1.153  -5.025   1.216  0.00  0.00    -0.074 C 
ATOM     30  C   UNL     1       0.670  -6.401   1.680  0.00  0.00    -0.014 C 
ATOM     31  C   UNL     1       0.529  -3.941   2.098  0.00  0.00    -0.014 C 
ENDBRANCH  27  29
BRANCH  27  32
ATOM     32  C   UNL     1       3.008  -4.986   2.736  0.00  0.00    -0.043 C 
BRANCH  32  33
ATOM     33  C   UNL     1       2.724  -6.350   3.310  0.00  0.00    -0.064 A 
ATOM     34  C   UNL     1       1.757  -6.502   4.286  0.00  0.00    +0.002 A 
ATOM     35  C   UNL     1       1.496  -7.754   4.812  0.00  0.00    +0.000 A 
ATOM     36  C   UNL     1       2.203  -8.854   4.362  0.00  0.00    +0.000 A 
ATOM     37  C   UNL     1       3.170  -8.702   3.385  0.00  0.00    +0.000 A 
ATOM     38  C   UNL     1       3.427  -7.451   2.856  0.00  0.00    +0.002 A 
ENDBRANCH  32  33
ENDBRANCH  27  32
ENDBRANCH  26  27
ENDBRANCH  23  26
ENDBRANCH  22  23
ENDBRANCH   9  22
TORSDOF 12
