REMARK  Name = ZINC05680078
REMARK  9 active torsions:
REMARK  status: ('A' for Active; 'I' for Inactive)
REMARK    1  A    between atoms: C_1  and  C_2
REMARK    2  A    between atoms: C_5  and  N_9
REMARK    3  A    between atoms: C_6  and  C_8
REMARK    4  A    between atoms: C_10  and  C_12
REMARK    5  A    between atoms: C_12  and  O_13
REMARK    6  A    between atoms: O_13  and  C_14
REMARK    7  A    between atoms: C_14  and  C_16
REMARK    8  A    between atoms: C_18  and  C_23
REMARK    9  A    between atoms: C_21  and  O_22
REMARK                            x       y       z     vdW  Elec       q    Type
REMARK                         _______ _______ _______ _____ _____    ______ ____
ROOT
ATOM      1  C   UNL     1      -0.056   0.150  -4.876  0.00  0.00    +0.328 C 
ENDROOT
BRANCH   1   3
ATOM      2  N   UNL     1      -0.100  -0.256  -7.315  0.00  0.00    -0.282 N 
ATOM      3  C   UNL     1      -0.072  -0.769  -6.070  0.00  0.00    +0.255 C 
ATOM      4  O   UNL     1      -0.059  -1.972  -5.910  0.00  0.00    -0.272 OA
ATOM      5  H   UNL     1      -0.191   0.702  -7.443  0.00  0.00    +0.155 HD
BRANCH   2  10
ATOM      6  C   UNL     1       0.311  -3.692 -11.811  0.00  0.00    +0.044 C 
ATOM      7  C   UNL     1       0.202  -2.779 -10.617  0.00  0.00    -0.050 A 
ATOM      8  C   UNL     1       0.725  -3.171  -9.398  0.00  0.00    +0.005 A 
ATOM      9  C   UNL     1       0.626  -2.337  -8.302  0.00  0.00    +0.024 A 
ATOM     10  C   UNL     1       0.001  -1.103  -8.424  0.00  0.00    +0.036 A 
ATOM     11  C   UNL     1      -0.528  -0.715  -9.648  0.00  0.00    -0.029 A 
ATOM     12  C   UNL     1      -0.422  -1.551 -10.742  0.00  0.00    +0.008 A 
ATOM     13  C   UNL     1      -1.213   0.621  -9.783  0.00  0.00    +0.045 C 
ENDBRANCH   2  10
ENDBRANCH   1   3
BRANCH   1  14
ATOM     14  O   UNL     1      -0.025  -0.640  -3.657  0.00  0.00    -0.452 OA
BRANCH  14  15
ATOM     15  C   UNL     1      -0.008   0.035  -2.491  0.00  0.00    +0.343 C 
ATOM     16  O   UNL     1      -0.018   1.250  -2.493  0.00  0.00    -0.245 OA
BRANCH  15  17
ATOM     17  C   UNL     1       0.023  -0.700  -1.214  0.00  0.00    +0.101 A 
ATOM     18  C   UNL     1       0.039  -2.098  -1.208  0.00  0.00    +0.022 A 
ATOM     19  C   UNL     1       0.061  -2.779  -0.011  0.00  0.00    -0.049 A 
ATOM     20  C   UNL     1       0.074  -2.085   1.188  0.00  0.00    +0.007 A 
ATOM     21  C   UNL     1       0.064  -0.705   1.197  0.00  0.00    +0.046 A 
ATOM     22  C   UNL     1       0.041  -0.002   0.001  0.00  0.00    +0.131 A 
ATOM     23  C   UNL     1       0.072  -4.286  -0.006  0.00  0.00    +0.044 C 
BRANCH  22  24
ATOM     24  O   UNL     1       0.031   1.354   0.008  0.00  0.00    -0.506 OA
ATOM     25  H   UNL     1       0.912   1.754  -0.003  0.00  0.00    +0.292 HD
ENDBRANCH  22  24
ENDBRANCH  15  17
ENDBRANCH  14  15
ENDBRANCH   1  14
TORSDOF 6
