REMARK  Name = ZINC31875819
REMARK  8 active torsions:
REMARK  status: ('A' for Active; 'I' for Inactive)
REMARK    1  A    between atoms: C_1  and  C_2
REMARK    2  A    between atoms: C_5  and  N_8
REMARK    3  A    between atoms: C_18  and  S_19
REMARK    4  A    between atoms: S_19  and  C_20
REMARK    5  A    between atoms: C_20  and  C_21
REMARK    6  A    between atoms: N_23  and  N_24
REMARK    7  A    between atoms: C_25  and  C_26
REMARK    8  A    between atoms: C_29  and  N_32
REMARK                            x       y       z     vdW  Elec       q    Type
REMARK                         _______ _______ _______ _____ _____    ______ ____
ROOT
ATOM      1  N   UNL     1      -0.290  -2.832   1.670  0.00  0.00    -0.255 N 
ATOM      2  C   UNL     1       0.863  -2.384   2.219  0.00  0.00    +0.267 A 
ATOM      3  O   UNL     1       1.855  -3.087   2.263  0.00  0.00    -0.267 OA
ATOM      4  C   UNL     1       0.872  -1.018   2.758  0.00  0.00    +0.065 A 
ATOM      5  C   UNL     1       2.011  -0.465   3.343  0.00  0.00    +0.015 A 
ATOM      6  C   UNL     1       1.965   0.812   3.831  0.00  0.00    +0.001 A 
ATOM      7  C   UNL     1       0.800   1.563   3.747  0.00  0.00    +0.002 A 
ATOM      8  C   UNL     1      -0.331   1.046   3.180  0.00  0.00    +0.028 A 
ATOM      9  C   UNL     1      -0.316  -0.257   2.673  0.00  0.00    +0.079 A 
ATOM     10  N   UNL     1      -1.413  -0.808   2.102  0.00  0.00    -0.223 NA
ATOM     11  C   UNL     1      -1.397  -2.030   1.627  0.00  0.00    +0.177 A 
ENDROOT
BRANCH   1  16
ATOM     12  C   UNL     1      -0.534  -8.082  -0.471  0.00  0.00    +0.044 C 
ATOM     13  C   UNL     1      -0.469  -6.687   0.098  0.00  0.00    -0.050 A 
ATOM     14  C   UNL     1       0.326  -5.732  -0.508  0.00  0.00    +0.005 A 
ATOM     15  C   UNL     1       0.387  -4.453   0.011  0.00  0.00    +0.026 A 
ATOM     16  C   UNL     1      -0.351  -4.128   1.141  0.00  0.00    +0.052 A 
ATOM     17  C   UNL     1      -1.144  -5.091   1.750  0.00  0.00    +0.026 A 
ATOM     18  C   UNL     1      -1.205  -6.367   1.224  0.00  0.00    +0.005 A 
ENDBRANCH   1  16
BRANCH  11  19
ATOM     19  S   UNL     1      -2.870  -2.667   0.900  0.00  0.00    -0.078 S 
BRANCH  19  20
ATOM     20  C   UNL     1      -3.965  -1.241   1.107  0.00  0.00    +0.174 C 
BRANCH  20  21
ATOM     21  C   UNL     1      -5.324  -1.565   0.540  0.00  0.00    +0.242 C 
ATOM     22  O   UNL     1      -5.531  -2.653   0.045  0.00  0.00    -0.273 OA
ATOM     23  N   UNL     1      -6.308  -0.646   0.583  0.00  0.00    -0.206 N 
ATOM     24  H   UNL     1      -6.120   0.341   1.031  0.00  0.00    +0.177 HD
BRANCH  23  25
ATOM     25  N   UNL     1      -7.571  -0.947   0.056  0.00  0.00    -0.188 NA
ATOM     26  C   UNL     1      -8.483  -0.026  -0.008  0.00  0.00    +0.138 C 
BRANCH  26  27
ATOM     27  C   UNL     1      -8.097   1.397   0.003  0.00  0.00    -0.005 A 
ATOM     28  C   UNL     1      -9.064   2.385   0.207  0.00  0.00    +0.012 A 
ATOM     29  C   UNL     1      -8.694   3.713   0.223  0.00  0.00    +0.033 A 
ATOM     30  C   UNL     1      -7.372   4.070   0.025  0.00  0.00    +0.126 A 
ATOM     31  C   UNL     1      -6.410   3.097  -0.183  0.00  0.00    +0.033 A 
ATOM     32  C   UNL     1      -6.764   1.764  -0.195  0.00  0.00    +0.012 A 
BRANCH  30  33
ATOM     33  N   UNL     1      -6.984   5.498   0.037  0.00  0.00    +0.056 N 
ATOM     34  O   UNL     1      -5.821   5.815  -0.137  0.00  0.00    -0.126 OA
ATOM     35  O   UNL     1      -7.829   6.357   0.220  0.00  0.00    -0.126 OA
ENDBRANCH  30  33
ENDBRANCH  26  27
ENDBRANCH  23  25
ENDBRANCH  20  21
ENDBRANCH  19  20
ENDBRANCH  11  19
TORSDOF 7
