REMARK  Name = ZINC64392146
REMARK  4 active torsions:
REMARK  status: ('A' for Active; 'I' for Inactive)
REMARK    1  A    between atoms: C_6  and  C_7
REMARK    2  A    between atoms: C_9  and  C_13
REMARK    3  A    between atoms: N_23  and  C_26
REMARK    4  A    between atoms: C_26  and  C_27
REMARK                            x       y       z     vdW  Elec       q    Type
REMARK                         _______ _______ _______ _____ _____    ______ ____
ROOT
ATOM      1  C   UNL     1      -2.852  -3.639  -0.451  0.00  0.00    +0.006 A 
ATOM      2  C   UNL     1      -1.862  -3.892  -1.388  0.00  0.00    +0.009 A 
ATOM      3  C   UNL     1      -1.890  -5.049  -2.138  0.00  0.00    +0.016 A 
ATOM      4  C   UNL     1      -2.922  -5.965  -1.948  0.00  0.00    +0.063 A 
ATOM      5  C   UNL     1      -3.926  -5.707  -0.998  0.00  0.00    +0.056 A 
ATOM      6  C   UNL     1      -3.877  -4.541  -0.249  0.00  0.00    +0.034 A 
ATOM      7  N   UNL     1      -4.941  -6.637  -0.830  0.00  0.00    -0.307 N 
ATOM      8  H   UNL     1      -5.640  -6.473  -0.178  0.00  0.00    +0.170 HD
ATOM      9  C   UNL     1      -4.966  -7.764  -1.562  0.00  0.00    +0.330 A 
ATOM     10  O   UNL     1      -5.873  -8.554  -1.384  0.00  0.00    -0.246 OA
ATOM     11  N   UNL     1      -4.032  -8.055  -2.481  0.00  0.00    -0.256 N 
ATOM     12  C   UNL     1      -3.001  -7.217  -2.722  0.00  0.00    +0.265 A 
ATOM     13  O   UNL     1      -2.158  -7.488  -3.556  0.00  0.00    -0.267 OA
ENDROOT
BRANCH   1  16
ATOM     14  C   UNL     1      -1.268  -0.764   0.011  0.00  0.00    +0.134 C 
ATOM     15  N   UNL     1      -1.415  -1.937   0.546  0.00  0.00    -0.339 N 
ATOM     16  C   UNL     1      -2.805  -2.369   0.359  0.00  0.00    +0.274 C 
ATOM     17  O   UNL     1      -3.446  -1.299  -0.352  0.00  0.00    -0.243 OA
ATOM     18  N   UNL     1      -2.442  -0.315  -0.542  0.00  0.00    -0.247 N 
ATOM     19  H   UNL     1      -2.564   0.536  -0.991  0.00  0.00    +0.196 HD
ATOM     20  H   UNL     1      -0.720  -2.444   0.995  0.00  0.00    +0.164 HD
BRANCH  14  26
ATOM     21  C   UNL     1      -0.017   1.391   0.010  0.00  0.00    +0.013 A 
ATOM     22  C   UNL     1       1.170   2.094   0.002  0.00  0.00    +0.021 A 
ATOM     23  C   UNL     1       2.378   1.418  -0.013  0.00  0.00    +0.041 A 
ATOM     24  C   UNL     1       2.403   0.033  -0.021  0.00  0.00    +0.021 A 
ATOM     25  C   UNL     1       1.222  -0.680  -0.014  0.00  0.00    +0.013 A 
ATOM     26  C   UNL     1       0.002  -0.004   0.002  0.00  0.00    +0.017 A 
ATOM     27 CL   UNL     1       3.868   2.309  -0.022  0.00  0.00    -0.084 Cl
ENDBRANCH  14  26
ENDBRANCH   1  16
BRANCH  11  28
ATOM     28  C   UNL     1      -4.132  -9.306  -3.236  0.00  0.00    +0.165 C 
BRANCH  28  29
ATOM     29  C   UNL     1      -4.938  -9.073  -4.489  0.00  0.00    -0.024 A 
ATOM     30  C   UNL     1      -6.310  -9.239  -4.467  0.00  0.00    +0.009 A 
ATOM     31  C   UNL     1      -7.053  -9.025  -5.613  0.00  0.00    +0.050 A 
ATOM     32  C   UNL     1      -6.423  -8.646  -6.787  0.00  0.00    +0.166 A 
ATOM     33  C   UNL     1      -5.041  -8.479  -6.809  0.00  0.00    +0.167 A 
ATOM     34  C   UNL     1      -4.303  -8.689  -5.655  0.00  0.00    +0.055 A 
ATOM     35  O   UNL     1      -4.666  -8.107  -8.068  0.00  0.00    -0.453 OA
ATOM     36  C   UNL     1      -5.780  -8.444  -8.916  0.00  0.00    +0.466 C 
ATOM     37  O   UNL     1      -6.915  -8.378  -8.032  0.00  0.00    -0.453 OA
ENDBRANCH  28  29
ENDBRANCH  11  28
TORSDOF 4
