REMARK  Name = ZINC14456420
REMARK  4 active torsions:
REMARK  status: ('A' for Active; 'I' for Inactive)
REMARK    1  A    between atoms: C_1  and  C_2
REMARK    2  A    between atoms: C_5  and  C_7
REMARK    3  A    between atoms: C_17  and  N_24
REMARK    4  A    between atoms: C_20  and  O_23
REMARK                            x       y       z     vdW  Elec       q    Type
REMARK                         _______ _______ _______ _____ _____    ______ ____
ROOT
ATOM      1  C   UNL     1       3.497   2.088   0.556  0.00  0.00    +0.112 C 
ATOM      2  C   UNL     1       3.674   3.406  -0.202  0.00  0.00    +0.029 C 
ATOM      3  C   UNL     1       4.722   4.259   0.568  0.00  0.00    +0.033 C 
ATOM      4  C   UNL     1       3.910   4.901   1.676  0.00  0.00    -0.030 C 
ATOM      5  C   UNL     1       2.638   4.915   1.365  0.00  0.00    -0.023 C 
ATOM      6  C   UNL     1       2.418   4.278   0.012  0.00  0.00    +0.051 C 
ATOM      7  C   UNL     1       1.167   3.450   0.012  0.00  0.00    +0.014 A 
ATOM      8  C   UNL     1      -0.054   4.114   0.026  0.00  0.00    +0.132 A 
ATOM      9  C   UNL     1      -1.240   3.411   0.032  0.00  0.00    +0.037 A 
ATOM     10  C   UNL     1      -1.224   2.028   0.019  0.00  0.00    +0.049 A 
ATOM     11  C   UNL     1      -0.016   1.356   0.009  0.00  0.00    +0.138 A 
ATOM     12  C   UNL     1       1.187   2.069   0.002  0.00  0.00    +0.076 A 
ATOM     13  N   UNL     1       2.380   1.341  -0.021  0.00  0.00    -0.333 N 
ATOM     14  H   UNL     1       2.540   0.324  -0.410  0.00  0.00    +0.147 HD
ENDROOT
BRANCH   1  19
ATOM     15  C   UNL     1       1.496   3.346   5.705  0.00  0.00    +0.051 C 
ATOM     16  C   UNL     1       2.259   2.977   4.458  0.00  0.00    -0.013 A 
ATOM     17  C   UNL     1       3.567   2.650   4.323  0.00  0.00    +0.011 A 
ATOM     18  C   UNL     1       4.054   2.338   3.067  0.00  0.00    +0.013 A 
ATOM     19  C   UNL     1       3.211   2.378   2.007  0.00  0.00    +0.010 A 
ATOM     20  S   UNL     1       1.672   2.856   2.776  0.00  0.00    -0.097 S 
ENDBRANCH   1  19
BRANCH   8  21
ATOM     21  N   UNL     1      -0.082   5.594   0.034  0.00  0.00    +0.057 N 
ATOM     22  O   UNL     1      -1.148   6.183   0.045  0.00  0.00    -0.126 OA
ATOM     23  O   UNL     1       0.962   6.223   0.029  0.00  0.00    -0.126 OA
ENDBRANCH   8  21
BRANCH  11  24
ATOM     24  O   UNL     1       0.002  -0.004   0.002  0.00  0.00    -0.505 OA
ATOM     25  H   UNL     1       0.962  -0.541  -0.005  0.00  0.00    +0.292 HD
ENDBRANCH  11  24
TORSDOF 3
