REMARK  Name = ZINC22764570
REMARK  4 active torsions:
REMARK  status: ('A' for Active; 'I' for Inactive)
REMARK    1  A    between atoms: C_6  and  N_7
REMARK    2  A    between atoms: C_10  and  C_12
REMARK    3  A    between atoms: N_14  and  C_15
REMARK    4  A    between atoms: C_19  and  C_21
REMARK                            x       y       z     vdW  Elec       q    Type
REMARK                         _______ _______ _______ _____ _____    ______ ____
ROOT
ATOM      1  C   UNL     1      -0.791   5.969   0.364  0.00  0.00    +0.269 C 
ATOM      2  O   UNL     1      -1.865   5.418   0.514  0.00  0.00    -0.268 OA
ATOM      3  N   UNL     1       0.330   5.235   0.222  0.00  0.00    -0.280 N 
ATOM      4  H   UNL     1       1.310   5.731   0.179  0.00  0.00    +0.155 HD
ENDROOT
BRANCH   1   8
ATOM      5  N   UNL     1       0.077   9.428   0.205  0.00  0.00    -0.236 N 
ATOM      6  C   UNL     1      -1.254   9.582   0.380  0.00  0.00    +0.049 A 
ATOM      7  C   UNL     1      -1.791   8.340   0.464  0.00  0.00    +0.006 A 
ATOM      8  C   UNL     1      -0.716   7.444   0.336  0.00  0.00    +0.151 A 
ATOM      9  N   UNL     1       0.375   8.175   0.180  0.00  0.00    -0.161 NA
ATOM     10  C   UNL     1      -3.255   8.055   0.661  0.00  0.00    +0.039 C 
ATOM     11  C   UNL     1      -3.935   9.342   1.145  0.00  0.00    +0.005 C 
ATOM     12  C   UNL     1      -3.535  10.506   0.234  0.00  0.00    +0.006 C 
ATOM     13  C   UNL     1      -2.057  10.853   0.467  0.00  0.00    +0.056 C 
BRANCH   5  19
ATOM     14  C   UNL     1       2.088  10.339  -0.779  0.00  0.00    +0.030 A 
ATOM     15  C   UNL     1       2.991  11.376  -0.915  0.00  0.00    +0.040 A 
ATOM     16  C   UNL     1       2.814  12.547  -0.198  0.00  0.00    +0.124 A 
ATOM     17  C   UNL     1       1.730  12.684   0.652  0.00  0.00    +0.040 A 
ATOM     18  C   UNL     1       0.822  11.653   0.787  0.00  0.00    +0.030 A 
ATOM     19  C   UNL     1       0.997  10.477   0.069  0.00  0.00    +0.066 A 
ATOM     20  F   UNL     1       3.702  13.558  -0.328  0.00  0.00    -0.205 F 
ENDBRANCH   5  19
ENDBRANCH   1   8
BRANCH   3  21
ATOM     21  C   UNL     1       0.245   3.841   0.129  0.00  0.00    +0.035 A 
ATOM     22  C   UNL     1       1.244   3.046   0.681  0.00  0.00    +0.026 A 
ATOM     23  C   UNL     1       1.164   1.670   0.597  0.00  0.00    +0.041 A 
ATOM     24  C   UNL     1       0.095   1.073  -0.045  0.00  0.00    +0.134 A 
ATOM     25  C   UNL     1      -0.913   1.864  -0.603  0.00  0.00    +0.056 A 
ATOM     26  C   UNL     1      -0.833   3.253  -0.513  0.00  0.00    +0.037 A 
ATOM     27  F   UNL     1       0.022  -0.273  -0.129  0.00  0.00    -0.205 F 
BRANCH  25  28
ATOM     28  C   UNL     1      -2.062   1.230  -1.287  0.00  0.00    +0.167 A 
ATOM     29  N   UNL     1      -2.006   0.293  -2.210  0.00  0.00    -0.129 NA
ATOM     30  N   UNL     1      -3.197  -0.027  -2.577  0.00  0.00    -0.134 NA
ATOM     31  C   UNL     1      -4.071   0.675  -1.913  0.00  0.00    +0.134 A 
ATOM     32  N   UNL     1      -3.383   1.498  -1.077  0.00  0.00    -0.311 N 
ATOM     33  C   UNL     1      -3.954   2.480  -0.156  0.00  0.00    +0.125 C 
ATOM     34  C   UNL     1      -5.349   2.018   0.276  0.00  0.00    +0.022 C 
ATOM     35  C   UNL     1      -6.395   2.552  -0.701  0.00  0.00    +0.002 C 
ATOM     36  C   UNL     1      -6.144   2.010  -2.104  0.00  0.00    +0.008 C 
ATOM     37  C   UNL     1      -5.572   0.597  -2.019  0.00  0.00    +0.076 C 
ENDBRANCH  25  28
ENDBRANCH   3  21
TORSDOF 4
