REMARK  Name = ZINC27525711
REMARK  7 active torsions:
REMARK  status: ('A' for Active; 'I' for Inactive)
REMARK    1  A    between atoms: C_1  and  C_2
REMARK    2  A    between atoms: C_2  and  C_16
REMARK    3  A    between atoms: N_3  and  N_4
REMARK    4  A    between atoms: C_9  and  C_12
REMARK    5  A    between atoms: C_12  and  C_13
REMARK    6  A    between atoms: C_12  and  C_14
REMARK    7  A    between atoms: C_12  and  C_15
REMARK                            x       y       z     vdW  Elec       q    Type
REMARK                         _______ _______ _______ _____ _____    ______ ____
ROOT
ATOM      1  N   UNL     1      -3.750   5.856   0.067  0.00  0.00    -0.205 N 
ATOM      2  C   UNL     1      -3.763   7.226   0.073  0.00  0.00    +0.233 A 
ATOM      3  N   UNL     1      -4.952   7.891   0.082  0.00  0.00    -0.173 NA
ATOM      4  C   UNL     1      -4.936   9.244   0.093  0.00  0.00    +0.297 A 
ATOM      5  O   UNL     1      -5.974   9.884   0.105  0.00  0.00    -0.264 OA
ATOM      6  C   UNL     1      -3.682   9.895   0.084  0.00  0.00    +0.133 A 
ATOM      7  N   UNL     1      -2.584   9.177   0.071  0.00  0.00    -0.170 NA
ATOM      8  N   UNL     1      -2.622   7.893   0.066  0.00  0.00    -0.247 N 
ATOM      9  H   UNL     1      -4.697   5.297   0.073  0.00  0.00    +0.177 HD
ATOM     10  H   UNL     1      -1.666   7.348   0.054  0.00  0.00    +0.192 HD
ENDROOT
BRANCH   6  11
ATOM     11  C   UNL     1      -3.607  11.400   0.090  0.00  0.00    +0.011 C 
ATOM     12  C   UNL     1      -2.141  11.838   0.077  0.00  0.00    +0.017 C 
ATOM     13  C   UNL     1      -4.314  11.950  -1.151  0.00  0.00    +0.017 C 
ATOM     14  C   UNL     1      -4.290  11.940   1.348  0.00  0.00    +0.017 C 
ENDBRANCH   6  11
BRANCH   1  17
ATOM     15  C   UNL     1      -3.816   3.104   0.054  0.00  0.00    +0.068 C 
ATOM     16  C   UNL     1      -2.518   3.869   0.045  0.00  0.00    +0.063 C 
ATOM     17  N   UNL     1      -2.530   5.167   0.052  0.00  0.00    -0.184 NA
BRANCH  16  18
ATOM     18  C   UNL     1      -1.234   3.144   0.030  0.00  0.00    -0.003 A 
ATOM     19  C   UNL     1      -1.217   1.748   0.017  0.00  0.00    +0.010 A 
ATOM     20  C   UNL     1      -0.013   1.076   0.008  0.00  0.00    +0.001 A 
ATOM     21  C   UNL     1       1.177   1.782   0.000  0.00  0.00    +0.000 A 
ATOM     22  C   UNL     1       1.168   3.166   0.007  0.00  0.00    +0.001 A 
ATOM     23  C   UNL     1      -0.029   3.851   0.022  0.00  0.00    +0.010 A 
ENDBRANCH  16  18
ENDBRANCH   1  17
TORSDOF 3
