REMARK  Name = ZINC34678790
REMARK  8 active torsions:
REMARK  status: ('A' for Active; 'I' for Inactive)
REMARK    1  A    between atoms: C_1  and  C_2
REMARK    2  A    between atoms: C_5  and  N_8
REMARK    3  A    between atoms: N_8  and  C_9
REMARK    4  A    between atoms: N_8  and  S_25
REMARK    5  A    between atoms: N_12  and  C_15
REMARK    6  A    between atoms: C_15  and  C_16
REMARK    7  A    between atoms: C_19  and  N_22
REMARK    8  A    between atoms: S_25  and  C_28
REMARK                            x       y       z     vdW  Elec       q    Type
REMARK                         _______ _______ _______ _____ _____    ______ ____
ROOT
ATOM      1  N   UNL     1       0.054  -4.154  -0.027  0.00  0.00    -0.200 N 
ENDROOT
BRANCH   1   6
ATOM      2  C   UNL     1      -0.941   1.411   0.417  0.00  0.00    +0.044 C 
ATOM      3  C   UNL     1      -0.677  -0.068   0.299  0.00  0.00    -0.050 A 
ATOM      4  C   UNL     1       0.613  -0.524   0.096  0.00  0.00    +0.005 A 
ATOM      5  C   UNL     1       0.859  -1.879  -0.013  0.00  0.00    +0.025 A 
ATOM      6  C   UNL     1      -0.191  -2.784   0.083  0.00  0.00    +0.052 A 
ATOM      7  C   UNL     1      -1.485  -2.322   0.287  0.00  0.00    +0.025 A 
ATOM      8  C   UNL     1      -1.723  -0.967   0.401  0.00  0.00    +0.005 A 
ENDBRANCH   1   6
BRANCH   1   9
ATOM      9  C   UNL     1       0.732  -4.867   1.059  0.00  0.00    +0.095 C 
ATOM     10  C   UNL     1       2.166  -4.346   1.196  0.00  0.00    +0.006 C 
ATOM     11  C   UNL     1       2.842  -5.037   2.381  0.00  0.00    -0.077 C 
ATOM     12  N   UNL     1       2.096  -4.748   3.612  0.00  0.00    +0.382 N 
ATOM     13  C   UNL     1       0.742  -5.307   3.516  0.00  0.00    -0.077 C 
ATOM     14  C   UNL     1      -0.015  -4.627   2.374  0.00  0.00    +0.006 C 
ATOM     15  H   UNL     1       2.038  -3.749   3.742  0.00  0.00    -0.081 HD
BRANCH  12  16
ATOM     16  C   UNL     1       2.792  -5.348   4.758  0.00  0.00    -0.043 C 
BRANCH  16  17
ATOM     17  C   UNL     1       2.095  -4.950   6.033  0.00  0.00    -0.064 A 
ATOM     18  C   UNL     1       2.473  -3.797   6.696  0.00  0.00    +0.004 A 
ATOM     19  C   UNL     1       1.834  -3.432   7.866  0.00  0.00    +0.033 A 
ATOM     20  C   UNL     1       0.818  -4.219   8.373  0.00  0.00    +0.126 A 
ATOM     21  C   UNL     1       0.439  -5.371   7.710  0.00  0.00    +0.033 A 
ATOM     22  C   UNL     1       1.075  -5.734   6.538  0.00  0.00    +0.004 A 
BRANCH  20  23
ATOM     23  N   UNL     1       0.134  -3.828   9.627  0.00  0.00    +0.056 N 
ATOM     24  O   UNL     1       0.465  -2.821  10.207  0.00  0.00    -0.126 OA
ATOM     25  O   UNL     1      -0.755  -4.517  10.070  0.00  0.00    -0.126 OA
ENDBRANCH  20  23
ENDBRANCH  16  17
ENDBRANCH  12  16
ENDBRANCH   1   9
BRANCH   1  26
ATOM     26  S   UNL     1      -0.422  -4.974  -1.385  0.00  0.00    +0.075 S 
ATOM     27  O   UNL     1      -0.708  -6.305  -0.976  0.00  0.00    -0.150 OA
ATOM     28  O   UNL     1      -1.382  -4.155  -2.039  0.00  0.00    -0.150 OA
BRANCH  26  29
ATOM     29  C   UNL     1       0.975  -5.066  -2.455  0.00  0.00    +0.109 A 
ATOM     30  C   UNL     1       1.152  -4.115  -3.442  0.00  0.00    +0.031 A 
ATOM     31  C   UNL     1       2.247  -4.185  -4.282  0.00  0.00    +0.040 A 
ATOM     32  C   UNL     1       3.168  -5.208  -4.134  0.00  0.00    +0.124 A 
ATOM     33  C   UNL     1       2.990  -6.161  -3.144  0.00  0.00    +0.040 A 
ATOM     34  C   UNL     1       1.896  -6.085  -2.303  0.00  0.00    +0.031 A 
ATOM     35  F   UNL     1       4.239  -5.278  -4.954  0.00  0.00    -0.205 F 
ENDBRANCH  26  29
ENDBRANCH   1  26
TORSDOF 7
