REMARK  Name = ZINC36266212
REMARK  3 active torsions:
REMARK  status: ('A' for Active; 'I' for Inactive)
REMARK    1  A    between atoms: C_1  and  C_2
REMARK    2  A    between atoms: N_12  and  S_13
REMARK    3  A    between atoms: S_13  and  C_16
REMARK                            x       y       z     vdW  Elec       q    Type
REMARK                         _______ _______ _______ _____ _____    ______ ____
ROOT
ATOM      1  S   UNL     1       2.421  -0.190   1.348  0.00  0.00    +0.064 S 
ATOM      2  O   UNL     1       2.842   1.085   0.880  0.00  0.00    -0.153 OA
ATOM      3  O   UNL     1       2.528  -0.574   2.712  0.00  0.00    -0.153 OA
ENDROOT
BRANCH   1  12
ATOM      4  C   UNL     1       0.271   1.830  -0.060  0.00  0.00    +0.026 C 
ATOM      5  C   UNL     1       0.179   0.309  -0.208  0.00  0.00    +0.077 C 
ATOM      6  C   UNL     1      -1.296  -0.123  -0.227  0.00  0.00    +0.023 C 
ATOM      7  C   UNL     1      -1.347  -1.369   0.681  0.00  0.00    -0.010 C 
ATOM      8  C   UNL     1      -2.610  -1.304   1.556  0.00  0.00    -0.078 C 
ATOM      9  N   UNL     1      -2.246  -0.659   2.827  0.00  0.00    +0.380 N 
ATOM     10  C   UNL     1      -0.819  -0.299   2.796  0.00  0.00    -0.062 C 
ATOM     11  C   UNL     1      -0.166  -1.146   1.663  0.00  0.00    +0.065 C 
ATOM     12  N   UNL     1       0.824  -0.341   0.938  0.00  0.00    -0.172 NA
ATOM     13  H   UNL     1      -2.801   0.173   2.954  0.00  0.00    -0.086 HD
ATOM     14  H   UNL     1      -2.416  -1.298   3.590  0.00  0.00    -0.086 HD
ENDBRANCH   1  12
BRANCH   1  15
ATOM     15  C   UNL     1       3.314  -1.389   0.416  0.00  0.00    +0.142 A 
ATOM     16  C   UNL     1       3.577  -2.633   0.961  0.00  0.00    +0.070 A 
ATOM     17  C   UNL     1       4.278  -3.574   0.228  0.00  0.00    +0.037 A 
ATOM     18  C   UNL     1       4.716  -3.272  -1.048  0.00  0.00    +0.021 A 
ATOM     19  C   UNL     1       4.454  -2.028  -1.593  0.00  0.00    +0.037 A 
ATOM     20  C   UNL     1       3.748  -1.088  -0.863  0.00  0.00    +0.070 A 
ATOM     21 CL   UNL     1       3.412   0.471  -1.549  0.00  0.00    -0.081 Cl
ATOM     22 BR   UNL     1       5.675  -4.559  -2.049  0.00  0.00    -0.050 Br
ATOM     23 CL   UNL     1       3.027  -3.013   2.563  0.00  0.00    -0.081 Cl
ENDBRANCH   1  15
TORSDOF 2
