REMARK  Name = ZINC36435528
REMARK  7 active torsions:
REMARK  status: ('A' for Active; 'I' for Inactive)
REMARK    1  A    between atoms: C_3  and  C_22
REMARK    2  A    between atoms: C_6  and  N_7
REMARK    3  A    between atoms: C_9  and  C_14
REMARK    4  A    between atoms: C_14  and  N_15
REMARK    5  A    between atoms: C_16  and  C_18
REMARK    6  A    between atoms: C_25  and  C_28
REMARK    7  A    between atoms: C_28  and  C_36
REMARK                            x       y       z     vdW  Elec       q    Type
REMARK                         _______ _______ _______ _____ _____    ______ ____
ROOT
ATOM      1  C   UNL     1      -0.015   1.380  -0.040  0.00  0.00    +0.024 A 
ATOM      2  C   UNL     1       1.167   2.089  -0.046  0.00  0.00    +0.013 A 
ATOM      3  C   UNL     1       2.385   1.412  -0.015  0.00  0.00    +0.019 A 
ATOM      4  C   UNL     1       2.404   0.016   0.022  0.00  0.00    +0.133 A 
ATOM      5  C   UNL     1       1.217  -0.689   0.028  0.00  0.00    +0.062 A 
ATOM      6  C   UNL     1       0.005  -0.009  -0.003  0.00  0.00    +0.042 A 
ATOM      7  F   UNL     1       3.583  -0.643   0.051  0.00  0.00    -0.205 F 
ENDROOT
BRANCH   6   8
ATOM      8  N   UNL     1      -1.196  -0.725   0.003  0.00  0.00    -0.234 N 
ATOM      9  C   UNL     1      -1.334  -2.195   0.046  0.00  0.00    +0.163 C 
ATOM     10  C   UNL     1      -2.826  -2.373   0.416  0.00  0.00    +0.213 C 
ATOM     11  O   UNL     1      -3.399  -1.134  -0.045  0.00  0.00    -0.444 OA
ATOM     12  C   UNL     1      -2.435  -0.198  -0.024  0.00  0.00    +0.408 C 
ATOM     13  O   UNL     1      -2.656   0.997  -0.031  0.00  0.00    -0.226 OA
BRANCH  10  14
ATOM     14  C   UNL     1      -3.433  -3.566  -0.325  0.00  0.00    +0.150 C 
BRANCH  14  15
ATOM     15  N   UNL     1      -4.843  -3.705   0.047  0.00  0.00    -0.307 N 
ATOM     16  C   UNL     1      -5.586  -4.695  -0.486  0.00  0.00    +0.280 C 
ATOM     17  O   UNL     1      -5.088  -5.471  -1.274  0.00  0.00    -0.270 OA
ATOM     18  H   UNL     1      -5.242  -3.084   0.677  0.00  0.00    +0.149 HD
BRANCH  16  19
ATOM     19  C   UNL     1      -7.037  -4.838  -0.103  0.00  0.00    +0.425 C 
ATOM     20  F   UNL     1      -7.562  -5.994  -0.691  0.00  0.00    -0.199 F 
ATOM     21  F   UNL     1      -7.145  -4.932   1.288  0.00  0.00    -0.199 F 
ENDBRANCH  16  19
ENDBRANCH  14  15
ENDBRANCH  10  14
ENDBRANCH   6   8
BRANCH   3  22
ATOM     22  C   UNL     1       3.658   2.173  -0.022  0.00  0.00    +0.003 A 
ATOM     23  C   UNL     1       4.658   1.894   0.914  0.00  0.00    +0.012 A 
ATOM     24  C   UNL     1       5.828   2.632   0.865  0.00  0.00    +0.025 A 
ATOM     25  C   UNL     1       5.969   3.613  -0.100  0.00  0.00    +0.062 A 
ATOM     26  N   UNL     1       5.008   3.853  -0.971  0.00  0.00    -0.258 NA
ATOM     27  C   UNL     1       3.880   3.173  -0.967  0.00  0.00    +0.119 A 
BRANCH  25  28
ATOM     28  C   UNL     1       7.241   4.419  -0.157  0.00  0.00    +0.102 C 
ATOM     29  C   UNL     1       7.792   4.769  -1.541  0.00  0.00    +0.001 C 
ATOM     30  C   UNL     1       8.500   3.714  -0.667  0.00  0.00    +0.001 C 
ATOM     31  C   UNL     1       8.331   2.382  -1.429  0.00  0.00    -0.077 C 
ATOM     32  N   UNL     1       8.124   2.785  -2.844  0.00  0.00    +0.379 N 
ATOM     33  C   UNL     1       7.228   4.012  -2.762  0.00  0.00    -0.077 C 
ATOM     34  H   UNL     1       9.005   3.017  -3.278  0.00  0.00    -0.086 HD
ATOM     35  H   UNL     1       7.660   2.050  -3.356  0.00  0.00    -0.086 HD
BRANCH  28  36
ATOM     36  C   UNL     1       7.408   5.417   0.912  0.00  0.00    +0.076 C 
ATOM     37  N   UNL     1       7.537   6.187   1.736  0.00  0.00    -0.196 NA
ENDBRANCH  28  36
ENDBRANCH  25  28
ENDBRANCH   3  22
TORSDOF 7
