REMARK  Name = ZINC66513102
REMARK  5 active torsions:
REMARK  status: ('A' for Active; 'I' for Inactive)
REMARK    1  A    between atoms: C_1  and  C_2
REMARK    2  A    between atoms: C_2  and  C_29
REMARK    3  A    between atoms: C_5  and  C_23
REMARK    4  A    between atoms: C_9  and  C_11
REMARK    5  A    between atoms: C_11  and  N_12
REMARK                            x       y       z     vdW  Elec       q    Type
REMARK                         _______ _______ _______ _____ _____    ______ ____
ROOT
ATOM      1  C   UNL     1      -0.019   1.552   0.015  0.00  0.00    +0.034 C 
ATOM      2  C   UNL     1      -0.083   0.024  -0.054  0.00  0.00    +0.055 C 
ATOM      3  C   UNL     1      -1.543  -0.436   0.032  0.00  0.00    +0.186 C 
ATOM      4  O   UNL     1      -2.054  -0.143   1.334  0.00  0.00    -0.368 OA
ATOM      5  C   UNL     1      -1.382  -0.828   2.394  0.00  0.00    +0.166 C 
ATOM      6  C   UNL     1       0.086  -0.388   2.430  0.00  0.00    +0.144 C 
ATOM      7  N   UNL     1       0.653  -0.554   1.082  0.00  0.00    -0.290 N 
ATOM      8  C   UNL     1       1.812  -1.215   0.893  0.00  0.00    +0.234 C 
ATOM      9  O   UNL     1       2.315  -1.254  -0.210  0.00  0.00    -0.274 OA
ATOM     10  C   UNL     1       0.534  -0.459  -1.367  0.00  0.00    +0.034 C 
ENDROOT
BRANCH   5  11
ATOM     11  C   UNL     1      -2.041  -0.494   3.707  0.00  0.00    -0.017 A 
ATOM     12  C   UNL     1      -2.565   0.769   3.916  0.00  0.00    +0.006 A 
ATOM     13  C   UNL     1      -3.169   1.076   5.121  0.00  0.00    +0.000 A 
ATOM     14  C   UNL     1      -3.251   0.120   6.116  0.00  0.00    +0.000 A 
ATOM     15  C   UNL     1      -2.728  -1.142   5.907  0.00  0.00    +0.000 A 
ATOM     16  C   UNL     1      -2.128  -1.451   4.701  0.00  0.00    +0.006 A 
ENDBRANCH   5  11
BRANCH   8  17
ATOM     17  C   UNL     1       2.483  -1.905   2.053  0.00  0.00    +0.213 C 
BRANCH  17  18
ATOM     18  N   UNL     1       3.717  -2.545   1.591  0.00  0.00    -0.215 N 
ATOM     19  C   UNL     1       3.787  -3.809   1.121  0.00  0.00    +0.247 C 
ATOM     20  O   UNL     1       2.877  -4.602   1.004  0.00  0.00    -0.273 OA
ATOM     21  C   UNL     1       5.238  -4.025   0.773  0.00  0.00    +0.113 C 
ATOM     22  C   UNL     1       5.404  -4.354  -0.717  0.00  0.00    +0.035 C 
ATOM     23  C   UNL     1       6.582  -5.362  -0.748  0.00  0.00    +0.003 C 
ATOM     24  C   UNL     1       6.347  -6.208   0.529  0.00  0.00    +0.003 C 
ATOM     25  C   UNL     1       5.833  -5.188   1.570  0.00  0.00    +0.035 C 
ATOM     26  N   UNL     1       5.888  -2.757   1.111  0.00  0.00    -0.285 N 
ATOM     27  C   UNL     1       4.916  -1.948   1.578  0.00  0.00    +0.310 C 
ATOM     28  O   UNL     1       5.107  -0.807   1.950  0.00  0.00    -0.252 OA
ATOM     29  H   UNL     1       6.829  -2.542   1.014  0.00  0.00    +0.151 HD
ENDBRANCH  17  18
ENDBRANCH   8  17
TORSDOF 3
