REMARK  Name = ZINC34923006
REMARK  12 active torsions:
REMARK  status: ('A' for Active; 'I' for Inactive)
REMARK    1  A    between atoms: C_1  and  C_2
REMARK    2  A    between atoms: C_2  and  C_3
REMARK    3  A    between atoms: C_4  and  C_32
REMARK    4  A    between atoms: C_5  and  C_25
REMARK    5  A    between atoms: C_8  and  C_13
REMARK    6  A    between atoms: C_14  and  N_16
REMARK    7  A    between atoms: N_16  and  C_17
REMARK    8  A    between atoms: N_16  and  C_18
REMARK    9  A    between atoms: N_21  and  C_24
REMARK   10  A    between atoms: C_29  and  C_31
REMARK   11  A    between atoms: C_32  and  O_34
REMARK   12  A    between atoms: O_34  and  C_35
REMARK                            x       y       z     vdW  Elec       q    Type
REMARK                         _______ _______ _______ _____ _____    ______ ____
ROOT
ATOM      1  C   UNL     1       0.871  -1.052  -1.198  0.00  0.00    +0.056 C 
ATOM      2  C   UNL     1       2.246  -1.123  -1.317  0.00  0.00    +0.083 C 
ATOM      3  C   UNL     1       2.829  -1.202  -2.711  0.00  0.00    +0.150 C 
ATOM      4  N   UNL     1       1.870  -1.197  -3.847  0.00  0.00    -0.267 N 
ATOM      5  C   UNL     1       2.175  -1.262  -5.192  0.00  0.00    +0.048 C 
ATOM      6  C   UNL     1       1.147  -1.244  -6.069  0.00  0.00    +0.072 C 
ATOM      7  S   UNL     1      -0.262  -1.136  -4.985  0.00  0.00    -0.060 S 
ATOM      8  C   UNL     1       0.547  -1.121  -3.514  0.00  0.00    +0.166 C 
ATOM      9  N   UNL     1       0.103  -1.059  -2.275  0.00  0.00    -0.229 NA
ENDROOT
BRANCH   3  10
ATOM     10  C   UNL     1       3.765  -0.034  -2.889  0.00  0.00    -0.022 A 
ATOM     11  C   UNL     1       3.256   1.244  -3.023  0.00  0.00    +0.006 A 
ATOM     12  C   UNL     1       4.114   2.316  -3.187  0.00  0.00    +0.001 A 
ATOM     13  C   UNL     1       5.481   2.108  -3.216  0.00  0.00    +0.003 A 
ATOM     14  C   UNL     1       5.989   0.830  -3.081  0.00  0.00    -0.050 A 
ATOM     15  C   UNL     1       5.131  -0.241  -2.913  0.00  0.00    +0.009 A 
ATOM     16  C   UNL     1       7.479   0.604  -3.113  0.00  0.00    +0.044 C 
ENDBRANCH   3  10
BRANCH   5  17
ATOM     17  C   UNL     1       3.568  -1.346  -5.653  0.00  0.00    +0.091 C 
ATOM     18  C   UNL     1       3.834  -1.592  -6.951  0.00  0.00    +0.241 C 
ATOM     19  O   UNL     1       2.825  -1.629  -7.854  0.00  0.00    -0.271 OA
BRANCH  18  20
ATOM     20  N   UNL     1       5.139  -1.806  -7.361  0.00  0.00    -0.298 N 
ATOM     21  C   UNL     1       6.222  -1.833  -6.375  0.00  0.00    +0.132 C 
BRANCH  20  22
ATOM     22  C   UNL     1       5.437  -2.007  -8.781  0.00  0.00    +0.073 C 
ATOM     23  C   UNL     1       6.057  -3.393  -8.984  0.00  0.00    +0.004 C 
ATOM     24  C   UNL     1       6.438  -3.564 -10.456  0.00  0.00    -0.077 C 
ATOM     25  N   UNL     1       7.409  -2.532 -10.838  0.00  0.00    +0.378 N 
ATOM     26  C   UNL     1       6.797  -1.203 -10.714  0.00  0.00    -0.077 C 
ATOM     27  C   UNL     1       6.430  -0.940  -9.252  0.00  0.00    +0.004 C 
ATOM     28  C   UNL     1       7.830  -2.748 -12.228  0.00  0.00    -0.096 C 
ATOM     29  H   UNL     1       8.214  -2.588 -10.232  0.00  0.00    -0.082 HD
ENDBRANCH  20  22
ENDBRANCH  18  20
ENDBRANCH   5  17
BRANCH   1  31
ATOM     30  C   UNL     1       0.213   0.486   0.633  0.00  0.00    +0.010 C 
ATOM     31  C   UNL     1       0.242  -0.972   0.169  0.00  0.00    +0.053 C 
ENDBRANCH   1  31
BRANCH   2  32
ATOM     32  C   UNL     1       3.071  -1.121  -0.186  0.00  0.00    +0.339 C 
ATOM     33  O   UNL     1       2.590  -0.944   0.919  0.00  0.00    -0.245 OA
BRANCH  32  34
ATOM     34  O   UNL     1       4.402  -1.316  -0.321  0.00  0.00    -0.465 OA
ATOM     35  C   UNL     1       5.184  -1.302   0.875  0.00  0.00    +0.280 C 
ENDBRANCH  32  34
ENDBRANCH   2  32
TORSDOF 7
