REMARK  Name = ZINC40027484
REMARK  15 active torsions:
REMARK  status: ('A' for Active; 'I' for Inactive)
REMARK    1  A    between atoms: C_1  and  C_2
REMARK    2  A    between atoms: C_4  and  C_12
REMARK    3  A    between atoms: C_7  and  O_8
REMARK    4  A    between atoms: O_8  and  C_9
REMARK    5  A    between atoms: C_9  and  C_10
REMARK    6  A    between atoms: C_12  and  C_14
REMARK    7  A    between atoms: N_18  and  C_33
REMARK    8  A    between atoms: C_19  and  C_21
REMARK    9  A    between atoms: C_25  and  O_27
REMARK   10  A    between atoms: O_27  and  C_28
REMARK   11  A    between atoms: C_28  and  C_29
REMARK   12  A    between atoms: C_29  and  C_30
REMARK   13  A    between atoms: C_30  and  C_31
REMARK   14  A    between atoms: C_30  and  C_32
REMARK   15  A    between atoms: C_33  and  C_34
REMARK                            x       y       z     vdW  Elec       q    Type
REMARK                         _______ _______ _______ _____ _____    ______ ____
ROOT
ATOM      1  C   UNL     1       0.088  -4.298  -2.600  0.00  0.00    +0.076 C 
ATOM      2  C   UNL     1       0.180  -5.044  -3.726  0.00  0.00    +0.249 C 
ATOM      3  C   UNL     1       0.248  -6.474  -3.357  0.00  0.00    +0.288 C 
ATOM      4  O   UNL     1       0.336  -7.394  -4.146  0.00  0.00    -0.266 OA
ATOM      5  N   UNL     1       0.199  -6.606  -2.019  0.00  0.00    -0.280 N 
ATOM      6  C   UNL     1       0.102  -5.262  -1.437  0.00  0.00    +0.145 C 
ATOM      7  O   UNL     1       0.205  -4.558  -4.988  0.00  0.00    -0.282 OA
ENDROOT
BRANCH   6   8
ATOM      8  C   UNL     1      -1.173  -5.135  -0.644  0.00  0.00    -0.019 A 
ATOM      9  C   UNL     1      -2.313  -5.799  -1.059  0.00  0.00    +0.006 A 
ATOM     10  C   UNL     1      -3.485  -5.684  -0.334  0.00  0.00    +0.004 A 
ATOM     11  C   UNL     1      -3.519  -4.906   0.807  0.00  0.00    +0.045 A 
ATOM     12  C   UNL     1      -2.377  -4.240   1.225  0.00  0.00    +0.121 A 
ATOM     13  C   UNL     1      -1.201  -4.361   0.499  0.00  0.00    +0.051 A 
BRANCH  12  14
ATOM     14  O   UNL     1      -2.409  -3.474   2.348  0.00  0.00    -0.492 OA
BRANCH  14  15
ATOM     15  C   UNL     1      -3.652  -3.400   3.048  0.00  0.00    +0.229 C 
BRANCH  15  16
ATOM     16  C   UNL     1      -3.494  -2.499   4.275  0.00  0.00    +0.044 C 
BRANCH  16  17
ATOM     17  C   UNL     1      -4.825  -2.420   5.024  0.00  0.00    -0.014 C 
ATOM     18  C   UNL     1      -5.181  -3.801   5.579  0.00  0.00    +0.007 C 
ATOM     19  C   UNL     1      -4.702  -1.423   6.178  0.00  0.00    +0.007 C 
ENDBRANCH  16  17
ENDBRANCH  15  16
ENDBRANCH  14  15
ENDBRANCH  12  14
ENDBRANCH   6   8
BRANCH   1  20
ATOM     20  C   UNL     1      -0.000  -2.837  -2.525  0.00  0.00    +0.195 C 
ATOM     21  O   UNL     1      -0.989  -2.265  -2.945  0.00  0.00    -0.287 OA
BRANCH  20  25
ATOM     22  C   UNL     1       2.050   1.566  -1.389  0.00  0.00    +0.047 C 
ATOM     23  C   UNL     1       2.099   0.059  -1.390  0.00  0.00    -0.008 A 
ATOM     24  C   UNL     1       1.062  -0.662  -1.938  0.00  0.00    +0.018 A 
ATOM     25  C   UNL     1       1.109  -2.059  -1.938  0.00  0.00    +0.023 A 
ATOM     26  C   UNL     1       2.210  -2.718  -1.382  0.00  0.00    +0.015 A 
ATOM     27  C   UNL     1       3.242  -1.990  -0.836  0.00  0.00    +0.046 A 
ATOM     28  C   UNL     1       3.194  -0.600  -0.842  0.00  0.00    +0.124 A 
BRANCH  28  29
ATOM     29  O   UNL     1       4.216   0.115  -0.308  0.00  0.00    -0.488 OA
BRANCH  29  30
ATOM     30  C   UNL     1       5.310  -0.625   0.237  0.00  0.00    +0.256 C 
BRANCH  30  31
ATOM     31  C   UNL     1       6.342   0.330   0.780  0.00  0.00    +0.006 C 
ATOM     32  C   UNL     1       6.883   0.112   1.954  0.00  0.00    +0.007 C 
ENDBRANCH  30  31
ENDBRANCH  29  30
ENDBRANCH  28  29
ENDBRANCH  20  25
ENDBRANCH   1  20
BRANCH   5  33
ATOM     33  C   UNL     1       0.241  -7.867  -1.275  0.00  0.00    +0.136 C 
BRANCH  33  34
ATOM     34  C   UNL     1       1.672  -8.217  -0.959  0.00  0.00    -0.016 C 
ATOM     35  C   UNL     1       2.034  -8.440   0.280  0.00  0.00    +0.005 C 
ENDBRANCH  33  34
ENDBRANCH   5  33
TORSDOF 12
