REMARK  Name = ZINC10886094
REMARK  7 active torsions:
REMARK  status: ('A' for Active; 'I' for Inactive)
REMARK    1  A    between atoms: C_1  and  C_2
REMARK    2  A    between atoms: C_2  and  O_3
REMARK    3  A    between atoms: O_3  and  C_4
REMARK    4  A    between atoms: C_11  and  C_13
REMARK    5  A    between atoms: C_19  and  C_21
REMARK    6  A    between atoms: N_26  and  S_28
REMARK    7  A    between atoms: S_28  and  C_31
REMARK                            x       y       z     vdW  Elec       q    Type
REMARK                         _______ _______ _______ _____ _____    ______ ____
ROOT
ATOM      1  C   UNL     1       2.382  -7.101   3.830  0.00  0.00    +0.115 A 
ATOM      2  C   UNL     1       2.098  -8.338   3.315  0.00  0.00    +0.080 A 
ATOM      3  S   UNL     1       2.847  -9.392   4.549  0.00  0.00    -0.060 S 
ATOM      4  C   UNL     1       3.456  -8.095   5.617  0.00  0.00    +0.165 A 
ATOM      5  N   UNL     1       3.062  -7.013   4.972  0.00  0.00    -0.221 NA
ATOM      6  N   UNL     1       4.163  -8.197   6.808  0.00  0.00    -0.264 N 
ATOM      7  C   UNL     1       4.476  -9.411   7.303  0.00  0.00    +0.223 C 
ATOM      8  O   UNL     1       4.141 -10.414   6.708  0.00  0.00    -0.275 OA
ATOM      9  H   UNL     1       4.431  -7.396   7.284  0.00  0.00    +0.157 HD
ENDROOT
BRANCH   1  17
ATOM     10  C   UNL     1       0.802  -1.825   1.306  0.00  0.00    +0.121 A 
ATOM     11  C   UNL     1       0.247  -2.674   0.352  0.00  0.00    +0.049 A 
ATOM     12  C   UNL     1       0.353  -4.042   0.483  0.00  0.00    +0.050 A 
ATOM     13  C   UNL     1       1.008  -4.588   1.578  0.00  0.00    +0.136 A 
ATOM     14  C   UNL     1       1.565  -3.733   2.545  0.00  0.00    +0.024 A 
ATOM     15  C   UNL     1       1.458  -2.349   2.403  0.00  0.00    +0.057 A 
ATOM     16  C   UNL     1       2.172  -4.611   3.548  0.00  0.00    +0.060 A 
ATOM     17  C   UNL     1       1.944  -5.879   3.125  0.00  0.00    +0.155 A 
ATOM     18  O   UNL     1       1.259  -5.857   1.966  0.00  0.00    -0.453 OA
BRANCH  10  19
ATOM     19  O   UNL     1       0.693  -0.477   1.160  0.00  0.00    -0.492 OA
BRANCH  19  21
ATOM     20  C   UNL     1      -0.019   1.526   0.010  0.00  0.00    +0.048 C 
ATOM     21  C   UNL     1       0.002  -0.004   0.002  0.00  0.00    +0.225 C 
ENDBRANCH  19  21
ENDBRANCH  10  19
ENDBRANCH   1  17
BRANCH   7  22
ATOM     22  C   UNL     1       5.243  -9.523   8.596  0.00  0.00    +0.091 C 
ATOM     23  C   UNL     1       6.596  -8.823   8.449  0.00  0.00    +0.015 C 
ATOM     24  C   UNL     1       7.362  -8.907   9.771  0.00  0.00    +0.018 C 
ATOM     25  C   UNL     1       7.613 -10.378  10.118  0.00  0.00    +0.109 C 
ATOM     26  N   UNL     1       6.328 -11.090  10.119  0.00  0.00    -0.175 NA
ATOM     27  C   UNL     1       5.470 -11.000   8.930  0.00  0.00    +0.122 C 
BRANCH  26  28
ATOM     28  S   UNL     1       5.855 -11.976  11.435  0.00  0.00    +0.067 S 
ATOM     29  O   UNL     1       4.930 -12.945  10.962  0.00  0.00    -0.152 OA
ATOM     30  O   UNL     1       7.041 -12.332  12.133  0.00  0.00    -0.152 OA
BRANCH  28  31
ATOM     31  C   UNL     1       4.954 -10.895  12.495  0.00  0.00    +0.143 A 
ATOM     32  C   UNL     1       3.624 -10.631  12.513  0.00  0.00    +0.036 A 
ATOM     33  C   UNL     1       3.132  -9.737  13.446  0.00  0.00    +0.010 A 
ATOM     34  C   UNL     1       3.992  -9.152  14.314  0.00  0.00    +0.047 A 
ATOM     35  S   UNL     1       5.553  -9.870  13.828  0.00  0.00    -0.077 S 
ENDBRANCH  28  31
ENDBRANCH  26  28
ENDBRANCH   7  22
TORSDOF 6
