REMARK  Name = ZINC09373756
REMARK  7 active torsions:
REMARK  status: ('A' for Active; 'I' for Inactive)
REMARK    1  A    between atoms: C_1  and  C_2
REMARK    2  A    between atoms: C_8  and  C_24
REMARK    3  A    between atoms: C_10  and  C_15
REMARK    4  A    between atoms: C_15  and  C_17
REMARK    5  A    between atoms: C_28  and  O_30
REMARK    6  A    between atoms: O_30  and  C_31
REMARK    7  A    between atoms: C_31  and  C_32
REMARK                            x       y       z     vdW  Elec       q    Type
REMARK                         _______ _______ _______ _____ _____    ______ ____
ROOT
ATOM      1  C   UNL     1      -2.045   8.492  -0.525  0.00  0.00    +0.089 C 
ATOM      2  C   UNL     1      -2.053   7.000  -0.318  0.00  0.00    +0.136 A 
ATOM      3  C   UNL     1      -0.986   6.171  -0.374  0.00  0.00    +0.091 A 
ATOM      4  C   UNL     1      -1.535   4.887  -0.110  0.00  0.00    +0.172 A 
ATOM      5  N   UNL     1      -2.818   5.068   0.064  0.00  0.00    -0.063 NA
ATOM      6  O   UNL     1      -3.119   6.235  -0.043  0.00  0.00    -0.358 OA
ATOM      7  N   UNL     1      -0.845   3.678  -0.054  0.00  0.00    -0.235 N 
ATOM      8  C   UNL     1       0.609   3.507  -0.157  0.00  0.00    +0.151 C 
ATOM      9  C   UNL     1       0.868   2.023  -0.040  0.00  0.00    +0.077 C 
ATOM     10  C   UNL     1      -0.338   1.427   0.114  0.00  0.00    +0.250 C 
ATOM     11  C   UNL     1      -1.395   2.459   0.099  0.00  0.00    +0.293 C 
ATOM     12  O   UNL     1      -2.585   2.240   0.210  0.00  0.00    -0.266 OA
ATOM     13  O   UNL     1      -0.544   0.097   0.254  0.00  0.00    -0.282 OA
ENDROOT
BRANCH   8  14
ATOM     14  C   UNL     1       1.097   4.015  -1.489  0.00  0.00    -0.019 A 
ATOM     15  C   UNL     1       0.387   3.728  -2.640  0.00  0.00    +0.006 A 
ATOM     16  C   UNL     1       0.830   4.197  -3.863  0.00  0.00    +0.004 A 
ATOM     17  C   UNL     1       1.989   4.945  -3.939  0.00  0.00    +0.045 A 
ATOM     18  C   UNL     1       2.707   5.229  -2.786  0.00  0.00    +0.121 A 
ATOM     19  C   UNL     1       2.257   4.761  -1.559  0.00  0.00    +0.051 A 
BRANCH  18  20
ATOM     20  O   UNL     1       3.848   5.963  -2.858  0.00  0.00    -0.488 OA
BRANCH  20  21
ATOM     21  C   UNL     1       4.250   6.411  -4.154  0.00  0.00    +0.256 C 
BRANCH  21  22
ATOM     22  C   UNL     1       5.527   7.203  -4.037  0.00  0.00    +0.006 C 
ATOM     23  C   UNL     1       6.508   6.993  -4.880  0.00  0.00    +0.007 C 
ENDBRANCH  21  22
ENDBRANCH  20  21
ENDBRANCH  18  20
ENDBRANCH   8  14
BRANCH   9  24
ATOM     24  C   UNL     1       2.172   1.357  -0.085  0.00  0.00    +0.195 C 
ATOM     25  O   UNL     1       2.438   0.599  -0.999  0.00  0.00    -0.287 OA
BRANCH  24  26
ATOM     26  C   UNL     1       3.166   1.606   0.981  0.00  0.00    +0.022 A 
ATOM     27  C   UNL     1       2.838   2.415   2.071  0.00  0.00    +0.013 A 
ATOM     28  C   UNL     1       3.768   2.639   3.064  0.00  0.00    +0.016 A 
ATOM     29  C   UNL     1       5.029   2.072   2.977  0.00  0.00    +0.018 A 
ATOM     30  C   UNL     1       5.362   1.273   1.897  0.00  0.00    +0.016 A 
ATOM     31  C   UNL     1       4.439   1.037   0.899  0.00  0.00    +0.013 A 
ATOM     32 BR   UNL     1       6.300   2.391   4.340  0.00  0.00    -0.050 Br
ENDBRANCH  24  26
ENDBRANCH   9  24
TORSDOF 6
