REMARK  Name = ZINC22100523
REMARK  9 active torsions:
REMARK  status: ('A' for Active; 'I' for Inactive)
REMARK    1  A    between atoms: C_1  and  C_2
REMARK    2  A    between atoms: C_3  and  C_7
REMARK    3  A    between atoms: C_10  and  S_18
REMARK    4  A    between atoms: N_11  and  C_12
REMARK    5  A    between atoms: S_18  and  C_19
REMARK    6  A    between atoms: C_19  and  C_21
REMARK    7  A    between atoms: C_19  and  C_22
REMARK    8  A    between atoms: N_24  and  C_25
REMARK    9  A    between atoms: C_30  and  N_31
REMARK                            x       y       z     vdW  Elec       q    Type
REMARK                         _______ _______ _______ _____ _____    ______ ____
ROOT
ATOM      1  C   UNL     1       1.735  -2.922  -1.012  0.00  0.00    +0.173 A 
ATOM      2  N   UNL     1       1.573  -4.158  -0.599  0.00  0.00    -0.128 NA
ATOM      3  N   UNL     1       1.033  -4.165   0.567  0.00  0.00    -0.122 NA
ATOM      4  C   UNL     1       0.821  -2.935   0.975  0.00  0.00    +0.197 A 
ATOM      5  N   UNL     1       1.255  -2.098  -0.019  0.00  0.00    -0.270 N 
ENDROOT
BRANCH   1   8
ATOM      6  C   UNL     1       2.839  -4.804  -3.264  0.00  0.00    +0.087 C 
ATOM      7  C   UNL     1       2.805  -3.297  -3.289  0.00  0.00    +0.112 A 
ATOM      8  C   UNL     1       2.322  -2.496  -2.301  0.00  0.00    +0.060 A 
ATOM      9  C   UNL     1       2.510  -1.120  -2.778  0.00  0.00    +0.053 A 
ATOM     10  C   UNL     1       3.074  -1.222  -3.992  0.00  0.00    +0.196 A 
ATOM     11  O   UNL     1       3.243  -2.519  -4.289  0.00  0.00    -0.467 OA
ENDBRANCH   1   8
BRANCH   5  12
ATOM     12  C   UNL     1       1.222  -0.697  -0.021  0.00  0.00    +0.051 A 
ATOM     13  C   UNL     1       0.005  -0.029  -0.020  0.00  0.00    +0.026 A 
ATOM     14  C   UNL     1      -0.024   1.352  -0.022  0.00  0.00    +0.002 A 
ATOM     15  C   UNL     1       1.158   2.069  -0.026  0.00  0.00    +0.000 A 
ATOM     16  C   UNL     1       2.372   1.407  -0.028  0.00  0.00    +0.002 A 
ATOM     17  C   UNL     1       2.407   0.027  -0.025  0.00  0.00    +0.026 A 
ENDBRANCH   5  12
BRANCH   4  18
ATOM     18  S   UNL     1       0.107  -2.452   2.512  0.00  0.00    -0.073 S 
BRANCH  18  19
ATOM     19  C   UNL     1      -0.189  -4.079   3.246  0.00  0.00    +0.137 C 
ATOM     20  C   UNL     1       1.149  -4.775   3.500  0.00  0.00    +0.029 C 
BRANCH  19  21
ATOM     21  C   UNL     1      -0.925  -3.915   4.551  0.00  0.00    +0.230 C 
ATOM     22  O   UNL     1      -0.907  -2.848   5.128  0.00  0.00    -0.274 OA
ATOM     23  N   UNL     1      -1.604  -4.954   5.077  0.00  0.00    -0.283 N 
ATOM     24  H   UNL     1      -1.697  -5.893   4.512  0.00  0.00    +0.155 HD
BRANCH  23  25
ATOM     25  C   UNL     1      -2.190  -4.837   6.343  0.00  0.00    +0.064 A 
ATOM     26  C   UNL     1      -1.680  -3.933   7.265  0.00  0.00    +0.025 A 
ATOM     27  C   UNL     1      -2.264  -3.817   8.511  0.00  0.00    +0.002 A 
ATOM     28  C   UNL     1      -3.349  -4.607   8.845  0.00  0.00    +0.002 A 
ATOM     29  C   UNL     1      -3.855  -5.513   7.931  0.00  0.00    +0.034 A 
ATOM     30  C   UNL     1      -3.279  -5.630   6.681  0.00  0.00    +0.147 A 
BRANCH  30  31
ATOM     31  N   UNL     1      -3.821  -6.600   5.703  0.00  0.00    +0.058 N 
ATOM     32  O   UNL     1      -4.830  -7.230   5.965  0.00  0.00    -0.126 OA
ATOM     33  O   UNL     1      -3.258  -6.768   4.636  0.00  0.00    -0.126 OA
ENDBRANCH  30  31
ENDBRANCH  23  25
ENDBRANCH  19  21
ENDBRANCH  18  19
ENDBRANCH   4  18
TORSDOF 7
