REMARK  Name = ZINC04112656
REMARK  13 active torsions:
REMARK  status: ('A' for Active; 'I' for Inactive)
REMARK    1  A    between atoms: C_1  and  C_2
REMARK    2  A    between atoms: C_2  and  C_3
REMARK    3  A    between atoms: C_3  and  O_4
REMARK    4  A    between atoms: O_4  and  C_5
REMARK    5  A    between atoms: C_8  and  C_11
REMARK    6  A    between atoms: C_16  and  C_21
REMARK    7  A    between atoms: C_29  and  C_38
REMARK    8  A    between atoms: C_30  and  C_31
REMARK    9  A    between atoms: C_31  and  O_33
REMARK   10  A    between atoms: O_33  and  C_34
REMARK   11  A    between atoms: C_34  and  C_35
REMARK   12  A    between atoms: C_35  and  C_36
REMARK   13  A    between atoms: C_35  and  C_37
REMARK                            x       y       z     vdW  Elec       q    Type
REMARK                         _______ _______ _______ _____ _____    ______ ____
ROOT
ATOM      1  C   UNL     1      -6.657  -0.484  -0.073  0.00  0.00    +0.092 C 
ATOM      2  C   UNL     1      -5.337   0.236   0.037  0.00  0.00    +0.024 C 
ATOM      3  C   UNL     1      -4.656   0.601  -1.071  0.00  0.00    +0.016 C 
ATOM      4  C   UNL     1      -3.341   1.334  -0.968  0.00  0.00    +0.059 C 
ATOM      5  C   UNL     1      -2.614   0.908   0.309  0.00  0.00    +0.032 C 
ATOM      6  C   UNL     1      -3.518   1.215   1.508  0.00  0.00    +0.088 C 
ATOM      7  C   UNL     1      -4.835   0.514   1.321  0.00  0.00    +0.162 C 
ATOM      8  O   UNL     1      -5.478   0.180   2.296  0.00  0.00    -0.292 OA
ATOM      9  N   UNL     1      -5.146   0.310  -2.315  0.00  0.00    -0.321 N 
ATOM     10  C   UNL     1      -6.092  -0.663  -2.482  0.00  0.00    +0.016 C 
ATOM     11  C   UNL     1      -6.834  -1.077  -1.440  0.00  0.00    +0.065 C 
ATOM     12  C   UNL     1      -6.303  -1.276  -3.842  0.00  0.00    +0.061 C 
ATOM     13  H   UNL     1      -4.780   0.862  -3.194  0.00  0.00    +0.152 HD
ENDROOT
BRANCH   5  14
ATOM     14  C   UNL     1      -1.324   1.677   0.438  0.00  0.00    -0.043 A 
ATOM     15  C   UNL     1      -0.119   1.002   0.481  0.00  0.00    +0.005 A 
ATOM     16  C   UNL     1       1.065   1.706   0.593  0.00  0.00    +0.020 A 
ATOM     17  C   UNL     1       1.043   3.088   0.668  0.00  0.00    +0.041 A 
ATOM     18  C   UNL     1      -0.164   3.763   0.630  0.00  0.00    +0.020 A 
ATOM     19  C   UNL     1      -1.347   3.057   0.518  0.00  0.00    +0.005 A 
ATOM     20 CL   UNL     1       2.529   3.973   0.809  0.00  0.00    -0.084 Cl
ENDBRANCH   5  14
BRANCH   1  24
ATOM     21  C   UNL     1      -9.830   2.277   0.679  0.00  0.00    +0.121 A 
ATOM     22  C   UNL     1      -9.674   1.161   1.487  0.00  0.00    +0.046 A 
ATOM     23  C   UNL     1      -8.648   0.269   1.242  0.00  0.00    +0.008 A 
ATOM     24  C   UNL     1      -7.776   0.489   0.192  0.00  0.00    -0.035 A 
ATOM     25  C   UNL     1      -7.925   1.605  -0.612  0.00  0.00    +0.008 A 
ATOM     26  C   UNL     1      -8.953   2.496  -0.374  0.00  0.00    +0.046 A 
BRANCH  21  27
ATOM     27  O   UNL     1     -10.838   3.156   0.919  0.00  0.00    -0.492 OA
BRANCH  27  28
ATOM     28  C   UNL     1     -10.938   4.283   0.046  0.00  0.00    +0.229 C 
BRANCH  28  30
ATOM     29  C   UNL     1     -12.230   6.360  -0.465  0.00  0.00    +0.007 C 
ATOM     30  C   UNL     1     -12.124   5.153   0.469  0.00  0.00    +0.038 C 
ENDBRANCH  28  30
ENDBRANCH  27  28
ENDBRANCH  21  27
ENDBRANCH   1  24
BRANCH  11  31
ATOM     31  C   UNL     1      -7.801  -2.091  -1.637  0.00  0.00    +0.338 C 
ATOM     32  O   UNL     1      -8.029  -2.505  -2.758  0.00  0.00    -0.245 OA
BRANCH  31  33
ATOM     33  O   UNL     1      -8.470  -2.599  -0.581  0.00  0.00    -0.461 OA
BRANCH  33  34
ATOM     34  C   UNL     1      -9.431  -3.620  -0.853  0.00  0.00    +0.235 C 
BRANCH  34  35
ATOM     35  C   UNL     1     -10.083  -4.069   0.457  0.00  0.00    +0.020 C 
ATOM     36  C   UNL     1     -11.198  -5.072   0.154  0.00  0.00    +0.010 C 
ATOM     37  C   UNL     1      -9.031  -4.731   1.349  0.00  0.00    +0.010 C 
ENDBRANCH  34  35
ENDBRANCH  33  34
ENDBRANCH  31  33
ENDBRANCH  11  31
TORSDOF 9
