REMARK  Name = ZINC40148892
REMARK  4 active torsions:
REMARK  status: ('A' for Active; 'I' for Inactive)
REMARK    1  A    between atoms: N_9  and  C_12
REMARK    2  A    between atoms: C_12  and  C_13
REMARK    3  A    between atoms: C_13  and  C_14
REMARK    4  A    between atoms: C_20  and  C_23
REMARK                            x       y       z     vdW  Elec       q    Type
REMARK                         _______ _______ _______ _____ _____    ______ ____
ROOT
ATOM      1  C   UNL     1       2.853  -6.154  -1.504  0.00  0.00    +0.217 C 
ATOM      2  O   UNL     1       2.923  -6.763  -0.458  0.00  0.00    -0.276 OA
ATOM      3  N   UNL     1       2.906  -6.818  -2.676  0.00  0.00    -0.301 N 
ATOM      4  C   UNL     1       2.828  -6.093  -3.952  0.00  0.00    +0.108 C 
ATOM      5  C   UNL     1       1.706  -6.702  -4.798  0.00  0.00    +0.020 C 
ATOM      6  C   UNL     1       1.943  -8.207  -4.944  0.00  0.00    +0.016 C 
ATOM      7  C   UNL     1       1.918  -8.866  -3.562  0.00  0.00    +0.093 C 
ATOM      8  C   UNL     1       3.048  -8.280  -2.702  0.00  0.00    +0.120 C 
ENDROOT
BRANCH   7   9
ATOM      9  C   UNL     1       2.118 -10.352  -3.710  0.00  0.00    +0.223 C 
ATOM     10  O   UNL     1       2.266 -10.838  -4.811  0.00  0.00    -0.275 OA
ATOM     11  N   UNL     1       2.132 -11.142  -2.617  0.00  0.00    -0.270 N 
ATOM     12  C   UNL     1       2.211 -12.527  -2.759  0.00  0.00    +0.125 A 
ATOM     13  C   UNL     1       2.119 -13.340  -1.636  0.00  0.00    +0.045 A 
ATOM     14  C   UNL     1       2.198 -14.713  -1.790  0.00  0.00    +0.020 A 
ATOM     15  C   UNL     1       2.367 -15.227  -3.070  0.00  0.00    +0.036 A 
ATOM     16  C   UNL     1       2.451 -14.359  -4.141  0.00  0.00    +0.128 A 
ATOM     17  N   UNL     1       2.367 -13.054  -3.963  0.00  0.00    -0.239 NA
ATOM     18 BR   UNL     1       2.482 -17.095  -3.341  0.00  0.00    -0.049 Br
ATOM     19  H   UNL     1       2.088 -10.746  -1.733  0.00  0.00    +0.156 HD
ENDBRANCH   7   9
BRANCH   1  20
ATOM     20  C   UNL     1       2.707  -4.654  -1.494  0.00  0.00    +0.117 C 
BRANCH  20  21
ATOM     21  C   UNL     1       2.673  -4.154  -0.049  0.00  0.00    +0.135 C 
BRANCH  21  30
ATOM     22  C   UNL     1      -0.031   1.371   0.010  0.00  0.00    +0.001 A 
ATOM     23  C   UNL     1       1.154   2.095   0.002  0.00  0.00    +0.002 A 
ATOM     24  C   UNL     1       2.372   1.454  -0.014  0.00  0.00    +0.028 A 
ATOM     25  C   UNL     1       2.419   0.058  -0.022  0.00  0.00    +0.078 A 
ATOM     26  C   UNL     1       1.212  -0.675  -0.013  0.00  0.00    +0.065 A 
ATOM     27  C   UNL     1      -0.011  -0.007   0.003  0.00  0.00    +0.015 A 
ATOM     28  C   UNL     1       1.296  -2.143  -0.023  0.00  0.00    +0.262 A 
ATOM     29  O   UNL     1       0.293  -2.834  -0.016  0.00  0.00    -0.267 OA
ATOM     30  N   UNL     1       2.531  -2.696  -0.039  0.00  0.00    -0.298 N 
ATOM     31  C   UNL     1       3.640  -1.912  -0.046  0.00  0.00    +0.202 A 
ATOM     32  N   UNL     1       3.597  -0.614  -0.039  0.00  0.00    -0.237 NA
ENDBRANCH  21  30
ENDBRANCH  20  21
ENDBRANCH   1  20
TORSDOF 4
