REMARK  Name = ZINC13071936
REMARK  8 active torsions:
REMARK  status: ('A' for Active; 'I' for Inactive)
REMARK    1  A    between atoms: C_1  and  N_54
REMARK    2  A    between atoms: C_2  and  C_3
REMARK    3  A    between atoms: C_2  and  N_54
REMARK    4  A    between atoms: C_11  and  N_12
REMARK    5  A    between atoms: C_11  and  N_54
REMARK    6  A    between atoms: N_15  and  C_25
REMARK    7  A    between atoms: C_16  and  C_18
REMARK    8  A    between atoms: C_25  and  C_26
REMARK                            x       y       z     vdW  Elec       q    Type
REMARK                         _______ _______ _______ _____ _____    ______ ____
ROOT
ATOM      1  N   UNL     1      -0.017  -1.929  -1.162  0.00  0.00    -0.257 N 
ATOM      2  C   UNL     1       0.943  -2.799  -0.785  0.00  0.00    +0.177 A 
ATOM      3  S   UNL     1       2.413  -2.404  -0.003  0.00  0.00    -0.011 S 
ATOM      4  N   UNL     1       0.533  -4.035  -1.133  0.00  0.00    -0.301 N 
ATOM      5  C   UNL     1      -0.701  -3.926  -1.745  0.00  0.00    +0.163 A 
ATOM      6  N   UNL     1      -1.042  -2.668  -1.769  0.00  0.00    -0.152 NA
ENDROOT
BRANCH   5   7
ATOM      7  C   UNL     1      -1.500  -5.048  -2.284  0.00  0.00    +0.019 A 
ATOM      8  C   UNL     1      -2.866  -4.886  -2.517  0.00  0.00    +0.013 A 
ATOM      9  C   UNL     1      -3.605  -5.935  -3.024  0.00  0.00    +0.021 A 
ATOM     10  C   UNL     1      -2.997  -7.149  -3.291  0.00  0.00    +0.041 A 
ATOM     11  C   UNL     1      -1.642  -7.317  -3.056  0.00  0.00    +0.021 A 
ATOM     12  C   UNL     1      -0.892  -6.274  -2.554  0.00  0.00    +0.013 A 
ATOM     13 CL   UNL     1      -3.935  -8.467  -3.921  0.00  0.00    -0.084 Cl
ENDBRANCH   5   7
BRANCH   1  14
ATOM     14  C   UNL     1       0.010  -0.476  -0.977  0.00  0.00    +0.072 C 
BRANCH  14  16
ATOM     15  C   UNL     1       0.204  -0.644   1.431  0.00  0.00    -0.093 C 
ATOM     16  N   UNL     1      -0.629  -0.147   0.315  0.00  0.00    +0.394 N 
ATOM     17  H   UNL     1      -1.548  -0.602   0.357  0.00  0.00    -0.079 HD
BRANCH  16  18
ATOM     18  C   UNL     1      -0.809   1.315   0.432  0.00  0.00    -0.041 C 
BRANCH  18  19
ATOM     19  C   UNL     1      -1.654   1.604   1.646  0.00  0.00    -0.062 A 
ATOM     20  C   UNL     1      -1.052   1.824   2.871  0.00  0.00    +0.003 A 
ATOM     21  C   UNL     1      -1.825   2.089   3.985  0.00  0.00    +0.021 A 
ATOM     22  C   UNL     1      -3.204   2.136   3.874  0.00  0.00    +0.059 A 
ATOM     23  C   UNL     1      -3.807   1.916   2.648  0.00  0.00    +0.059 A 
ATOM     24  C   UNL     1      -3.031   1.656   1.533  0.00  0.00    +0.023 A 
ATOM     25 CL   UNL     1      -5.537   1.974   2.508  0.00  0.00    -0.082 Cl
ATOM     26 CL   UNL     1      -4.176   2.469   5.274  0.00  0.00    -0.082 Cl
ENDBRANCH  18  19
ENDBRANCH  16  18
ENDBRANCH  14  16
ENDBRANCH   1  14
BRANCH   4  27
ATOM     27  C   UNL     1       1.272  -5.279  -0.907  0.00  0.00    +0.157 C 
BRANCH  27  28
ATOM     28  C   UNL     1       2.295  -5.476  -2.026  0.00  0.00    +0.138 C 
ATOM     29  C   UNL     1       3.026  -6.832  -1.855  0.00  0.00    +0.035 C 
ATOM     30  C   UNL     1       3.468  -7.114  -3.317  0.00  0.00    +0.031 C 
ATOM     31  C   UNL     1       2.304  -6.515  -4.134  0.00  0.00    +0.160 C 
ATOM     32  O   UNL     1       1.633  -5.564  -3.298  0.00  0.00    -0.375 OA
ENDBRANCH  27  28
ENDBRANCH   4  27
TORSDOF 7
