REMARK  Name = ZINC33473279
REMARK  12 active torsions:
REMARK  status: ('A' for Active; 'I' for Inactive)
REMARK    1  A    between atoms: C_1  and  C_2
REMARK    2  A    between atoms: C_2  and  C_4
REMARK    3  A    between atoms: C_2  and  N_17
REMARK    4  A    between atoms: N_14  and  C_15
REMARK    5  A    between atoms: N_17  and  C_18
REMARK    6  A    between atoms: C_18  and  C_19
REMARK    7  A    between atoms: C_19  and  C_20
REMARK    8  A    between atoms: C_20  and  C_21
REMARK    9  A    between atoms: C_21  and  C_22
REMARK   10  A    between atoms: C_22  and  C_23
REMARK   11  A    between atoms: C_23  and  N_24
REMARK   12  A    between atoms: C_25  and  C_27
REMARK                            x       y       z     vdW  Elec       q    Type
REMARK                         _______ _______ _______ _____ _____    ______ ____
ROOT
ATOM      1  N   UNL     1      -5.670  -0.720   0.865  0.00  0.00    -0.291 N 
ATOM      2  C   UNL     1      -4.991  -1.553   0.052  0.00  0.00    +0.222 C 
ATOM      3  O   UNL     1      -4.670  -1.188  -1.059  0.00  0.00    -0.275 OA
ENDROOT
BRANCH   2   4
ATOM      4  C   UNL     1      -4.630  -2.938   0.524  0.00  0.00    +0.048 C 
ATOM      5  C   UNL     1      -5.882  -3.637   1.057  0.00  0.00    +0.019 C 
ATOM      6  C   UNL     1      -5.516  -5.043   1.536  0.00  0.00    -0.009 C 
ATOM      7  C   UNL     1      -4.941  -5.847   0.368  0.00  0.00    +0.007 C 
ATOM      8  C   UNL     1      -3.689  -5.147  -0.166  0.00  0.00    -0.009 C 
ATOM      9  C   UNL     1      -4.056  -3.741  -0.644  0.00  0.00    +0.019 C 
ATOM     10  C   UNL     1      -2.645  -5.051   0.949  0.00  0.00    +0.007 C 
ATOM     11  C   UNL     1      -3.220  -4.247   2.118  0.00  0.00    -0.009 C 
ATOM     12  C   UNL     1      -4.472  -4.947   2.651  0.00  0.00    +0.007 C 
ATOM     13  C   UNL     1      -3.586  -2.841   1.639  0.00  0.00    +0.019 C 
ENDBRANCH   2   4
BRANCH   1  15
ATOM     14  C   UNL     1      -6.984   0.452  -0.832  0.00  0.00    +0.036 C 
ATOM     15  C   UNL     1      -6.072   0.606   0.386  0.00  0.00    +0.139 C 
BRANCH  15  16
ATOM     16  C   UNL     1      -4.846   1.393   0.000  0.00  0.00    +0.133 A 
ATOM     17  N   UNL     1      -4.579   1.538  -1.262  0.00  0.00    -0.232 NA
ATOM     18  C   UNL     1      -3.497   2.238  -1.684  0.00  0.00    +0.080 A 
ATOM     19  C   UNL     1      -3.204   2.390  -3.040  0.00  0.00    +0.048 A 
ATOM     20  C   UNL     1      -2.088   3.104  -3.419  0.00  0.00    +0.043 A 
ATOM     21  C   UNL     1      -1.249   3.671  -2.466  0.00  0.00    +0.021 A 
ATOM     22  C   UNL     1      -1.513   3.530  -1.132  0.00  0.00    +0.017 A 
ATOM     23  C   UNL     1      -2.635   2.812  -0.723  0.00  0.00    +0.065 A 
ATOM     24  C   UNL     1      -2.966   2.629   0.698  0.00  0.00    +0.262 A 
ATOM     25  O   UNL     1      -2.268   3.102   1.575  0.00  0.00    -0.267 OA
ATOM     26  N   UNL     1      -4.077   1.915   0.991  0.00  0.00    -0.298 N 
ATOM     27  C   UNL     1      -4.454   1.702   2.391  0.00  0.00    +0.154 C 
ATOM     28 CL   UNL     1      -1.726   3.300  -5.106  0.00  0.00    -0.083 Cl
ENDBRANCH  15  16
ENDBRANCH   1  15
BRANCH   1  29
ATOM     29  C   UNL     1      -6.008  -1.139   2.228  0.00  0.00    +0.108 C 
BRANCH  29  30
ATOM     30  C   UNL     1      -7.495  -1.491   2.300  0.00  0.00    +0.019 C 
BRANCH  30  31
ATOM     31  C   UNL     1      -7.821  -2.046   3.688  0.00  0.00    +0.001 C 
BRANCH  31  32
ATOM     32  C   UNL     1      -9.308  -2.398   3.760  0.00  0.00    -0.002 C 
BRANCH  32  33
ATOM     33  C   UNL     1      -9.634  -2.954   5.147  0.00  0.00    -0.020 C 
BRANCH  33  34
ATOM     34  C   UNL     1     -11.121  -3.306   5.219  0.00  0.00    -0.086 C 
BRANCH  34  35
ATOM     35  N   UNL     1     -11.434  -3.839   6.552  0.00  0.00    +0.378 N 
ATOM     36  H   UNL     1     -12.504  -4.092   6.604  0.00  0.00    -0.090 HD
ATOM     37  H   UNL     1     -11.200  -3.082   7.314  0.00  0.00    -0.090 HD
ATOM     38  H   UNL     1     -10.835  -4.742   6.735  0.00  0.00    -0.090 HD
ENDBRANCH  34  35
ENDBRANCH  33  34
ENDBRANCH  32  33
ENDBRANCH  31  32
ENDBRANCH  30  31
ENDBRANCH  29  30
ENDBRANCH   1  29
TORSDOF 10
