REMARK  Name = ZINC39855929
REMARK  9 active torsions:
REMARK  status: ('A' for Active; 'I' for Inactive)
REMARK    1  A    between atoms: C_1  and  C_2
REMARK    2  A    between atoms: C_2  and  O_3
REMARK    3  A    between atoms: O_3  and  C_4
REMARK    4  A    between atoms: C_9  and  N_10
REMARK    5  A    between atoms: C_11  and  C_13
REMARK    6  A    between atoms: C_14  and  C_29
REMARK    7  A    between atoms: C_19  and  C_27
REMARK    8  A    between atoms: C_19  and  C_28
REMARK    9  A    between atoms: N_22  and  N_23
REMARK                            x       y       z     vdW  Elec       q    Type
REMARK                         _______ _______ _______ _____ _____    ______ ____
ROOT
ATOM      1  C   UNL     1       3.050  -1.124   5.550  0.00  0.00    +0.193 A 
ATOM      2  C   UNL     1       3.630  -1.517   6.725  0.00  0.00    +0.009 A 
ATOM      3  C   UNL     1       3.929  -0.342   7.425  0.00  0.00    +0.043 A 
ATOM      4  C   UNL     1       3.518   0.717   6.650  0.00  0.00    +0.116 A 
ATOM      5  O   UNL     1       3.001   0.227   5.526  0.00  0.00    -0.454 OA
ATOM      6  C   UNL     1       3.671   2.154   7.078  0.00  0.00    +0.081 C 
ATOM      7  C   UNL     1       3.834   2.217   8.599  0.00  0.00    -0.023 C 
ATOM      8  C   UNL     1       4.965   1.292   9.061  0.00  0.00    +0.064 C 
ATOM      9  C   UNL     1       4.564  -0.142   8.747  0.00  0.00    +0.073 C 
ATOM     10  N   UNL     1       4.765  -1.118   9.577  0.00  0.00    -0.175 NA
ATOM     11  C   UNL     1       4.158   3.655   9.012  0.00  0.00    +0.011 C 
ATOM     12  C   UNL     1       2.526   1.786   9.265  0.00  0.00    +0.011 C 
ATOM     13  C   UNL     1       3.893  -2.931   7.175  0.00  0.00    +0.048 C 
ENDROOT
BRANCH  10  14
ATOM     14  N   UNL     1       5.371  -0.870  10.816  0.00  0.00    -0.248 N 
ATOM     15  C   UNL     1       5.584  -1.901  11.692  0.00  0.00    +0.187 C 
ATOM     16  N   UNL     1       6.160  -1.665  12.871  0.00  0.00    -0.370 N 
ATOM     17  N   UNL     1       5.214  -3.139  11.367  0.00  0.00    -0.370 N 
ATOM     18  H   UNL     1       5.641   0.031  11.053  0.00  0.00    +0.192 HD
ATOM     19  H   UNL     1       6.310  -2.395  13.492  0.00  0.00    +0.159 HD
ATOM     20  H   UNL     1       4.794  -3.311  10.509  0.00  0.00    +0.159 HD
ATOM     21  H   UNL     1       5.364  -3.869  11.988  0.00  0.00    +0.159 HD
ATOM     22  H   UNL     1       6.429  -0.764  13.107  0.00  0.00    +0.159 HD
ENDBRANCH  10  14
BRANCH   1  24
ATOM     23  N   UNL     1       2.018  -1.504   3.374  0.00  0.00    -0.276 N 
ATOM     24  C   UNL     1       2.568  -2.019   4.492  0.00  0.00    +0.284 C 
ATOM     25  O   UNL     1       2.665  -3.225   4.623  0.00  0.00    -0.266 OA
ATOM     26  H   UNL     1       2.013  -0.545   3.233  0.00  0.00    +0.155 HD
BRANCH  23  32
ATOM     27  C   UNL     1       1.353  -1.945   1.089  0.00  0.00    +0.142 A 
ATOM     28  C   UNL     1       0.799  -2.794   0.144  0.00  0.00    +0.047 A 
ATOM     29  C   UNL     1       0.342  -4.043   0.521  0.00  0.00    +0.004 A 
ATOM     30  C   UNL     1       0.436  -4.449   1.839  0.00  0.00    +0.002 A 
ATOM     31  C   UNL     1       0.988  -3.609   2.787  0.00  0.00    +0.027 A 
ATOM     32  C   UNL     1       1.453  -2.356   2.416  0.00  0.00    +0.076 A 
BRANCH  27  33
ATOM     33  O   UNL     1       1.802  -0.716   0.720  0.00  0.00    -0.490 OA
BRANCH  33  35
ATOM     34  C   UNL     1       2.223   1.046  -0.880  0.00  0.00    +0.048 C 
ATOM     35  C   UNL     1       1.667  -0.362  -0.658  0.00  0.00    +0.226 C 
ENDBRANCH  33  35
ENDBRANCH  27  33
ENDBRANCH  23  32
ENDBRANCH   1  24
TORSDOF 5
