REMARK  Name = ZINC38702026
REMARK  7 active torsions:
REMARK  status: ('A' for Active; 'I' for Inactive)
REMARK    1  A    between atoms: C_1  and  O_2
REMARK    2  A    between atoms: O_2  and  C_3
REMARK    3  A    between atoms: C_5  and  C_10
REMARK    4  A    between atoms: C_8  and  O_9
REMARK    5  A    between atoms: C_13  and  C_29
REMARK    6  A    between atoms: N_20  and  C_21
REMARK    7  A    between atoms: C_34  and  O_35
REMARK                            x       y       z     vdW  Elec       q    Type
REMARK                         _______ _______ _______ _____ _____    ______ ____
ROOT
ATOM      1  C   UNL     1      -4.802   0.271  -0.159  0.00  0.00    +0.142 C 
ATOM      2  C   UNL     1      -5.554   0.123  -1.454  0.00  0.00    +0.035 A 
ATOM      3  C   UNL     1      -5.558   0.295  -2.842  0.00  0.00    +0.102 A 
ATOM      4  N   UNL     1      -6.724  -0.128  -3.289  0.00  0.00    -0.173 NA
ATOM      5  N   UNL     1      -7.457  -0.550  -2.321  0.00  0.00    -0.272 N 
ATOM      6  H   UNL     1      -8.353  -0.907  -2.416  0.00  0.00    +0.189 HD
ATOM      7  C   UNL     1      -6.784  -0.422  -1.139  0.00  0.00    +0.126 A 
ATOM      8  C   UNL     1      -6.845  -0.628   0.313  0.00  0.00    +0.266 C 
ATOM      9  O   UNL     1      -7.798  -1.094   0.908  0.00  0.00    -0.268 OA
ATOM     10  N   UNL     1      -5.698  -0.227   0.892  0.00  0.00    -0.280 N 
ENDROOT
BRANCH  10  11
ATOM     11  C   UNL     1      -5.394  -0.280   2.325  0.00  0.00    +0.100 C 
ATOM     12  C   UNL     1      -5.500  -1.730   2.825  0.00  0.00    +0.047 C 
ATOM     13  C   UNL     1      -5.499  -1.756   4.372  0.00  0.00    +0.168 C 
ATOM     14  S   UNL     1      -6.225  -0.123   4.804  0.00  0.00    -0.029 S 
ATOM     15  O   UNL     1      -7.511  -0.325   5.374  0.00  0.00    -0.174 OA
ATOM     16  O   UNL     1      -5.258   0.640   5.513  0.00  0.00    -0.174 OA
ATOM     17  C   UNL     1      -6.423   0.580   3.112  0.00  0.00    +0.188 C 
ENDBRANCH  10  11
BRANCH   3  18
ATOM     18  C   UNL     1      -4.453   0.853  -3.661  0.00  0.00    +0.045 A 
ATOM     19  C   UNL     1      -3.320   1.376  -3.043  0.00  0.00    +0.033 A 
ATOM     20  C   UNL     1      -2.294   1.893  -3.810  0.00  0.00    +0.042 A 
ATOM     21  C   UNL     1      -2.388   1.893  -5.191  0.00  0.00    +0.023 A 
ATOM     22  C   UNL     1      -3.509   1.376  -5.813  0.00  0.00    +0.047 A 
ATOM     23  C   UNL     1      -4.542   0.849  -5.056  0.00  0.00    +0.126 A 
ATOM     24 CL   UNL     1      -0.882   2.546  -3.039  0.00  0.00    -0.084 Cl
BRANCH  23  25
ATOM     25  O   UNL     1      -5.641   0.335  -5.667  0.00  0.00    -0.506 OA
ATOM     26  H   UNL     1      -6.344   0.981  -5.821  0.00  0.00    +0.292 HD
ENDBRANCH  23  25
ENDBRANCH   3  18
BRANCH   1  29
ATOM     27  C   UNL     1      -2.453  -2.687  -0.224  0.00  0.00    +0.162 A 
ATOM     28  C   UNL     1      -3.613  -1.930  -0.189  0.00  0.00    +0.055 A 
ATOM     29  C   UNL     1      -3.539  -0.550  -0.197  0.00  0.00    -0.019 A 
ATOM     30  C   UNL     1      -2.308   0.079  -0.239  0.00  0.00    +0.009 A 
ATOM     31  C   UNL     1      -1.147  -0.669  -0.274  0.00  0.00    +0.049 A 
ATOM     32  C   UNL     1      -1.214  -2.053  -0.261  0.00  0.00    +0.158 A 
BRANCH  27  34
ATOM     33  C   UNL     1      -3.828  -4.626  -0.266  0.00  0.00    +0.277 C 
ATOM     34  O   UNL     1      -2.524  -4.045  -0.215  0.00  0.00    -0.491 OA
ENDBRANCH  27  34
BRANCH  32  35
ATOM     35  O   UNL     1      -0.072  -2.791  -0.289  0.00  0.00    -0.503 OA
ATOM     36  H   UNL     1       0.234  -3.009  -1.180  0.00  0.00    +0.292 HD
ENDBRANCH  32  35
ENDBRANCH   1  29
TORSDOF 6
