REMARK  Name = ZINC64352783
REMARK  7 active torsions:
REMARK  status: ('A' for Active; 'I' for Inactive)
REMARK    1  A    between atoms: C_1  and  C_2
REMARK    2  A    between atoms: C_7  and  C_8
REMARK    3  A    between atoms: C_11  and  S_14
REMARK    4  A    between atoms: S_14  and  C_15
REMARK    5  A    between atoms: C_15  and  C_17
REMARK    6  A    between atoms: C_15  and  C_18
REMARK    7  A    between atoms: C_23  and  C_28
REMARK                            x       y       z     vdW  Elec       q    Type
REMARK                         _______ _______ _______ _____ _____    ______ ____
ROOT
ATOM      1  C   UNL     1       3.311   0.657   4.109  0.00  0.00    +0.114 C 
ATOM      2  C   UNL     1       3.252  -0.588   3.222  0.00  0.00    +0.027 C 
ENDROOT
BRANCH   1   3
ATOM      3  C   UNL     1       4.706   0.819   4.655  0.00  0.00    +0.136 C 
ATOM      4  N   UNL     1       5.603   1.445   3.926  0.00  0.00    -0.160 NA
ATOM      5  C   UNL     1       6.857   1.625   4.349  0.00  0.00    +0.272 C 
ATOM      6  O   UNL     1       7.673   2.210   3.654  0.00  0.00    -0.268 OA
ATOM      7  C   UNL     1       7.236   1.095   5.688  0.00  0.00    +0.078 C 
ATOM      8  C   UNL     1       8.477   1.177   6.305  0.00  0.00    +0.020 C 
ATOM      9  C   UNL     1       8.592   0.551   7.677  0.00  0.00    +0.115 C 
ATOM     10  S   UNL     1       6.888  -0.090   7.924  0.00  0.00    -0.100 S 
ATOM     11  C   UNL     1       6.184   0.439   6.381  0.00  0.00    +0.112 C 
ATOM     12  N   UNL     1       4.982   0.332   5.852  0.00  0.00    -0.226 NA
BRANCH   8  13
ATOM     13  C   UNL     1       9.565   1.807   5.689  0.00  0.00    +0.132 A 
ATOM     14  C   UNL     1      10.206   2.958   6.133  0.00  0.00    +0.049 A 
ATOM     15  C   UNL     1      11.227   3.220   5.216  0.00  0.00    +0.042 A 
ATOM     16  C   UNL     1      11.178   2.250   4.269  0.00  0.00    +0.195 A 
ATOM     17  O   UNL     1      10.185   1.402   4.558  0.00  0.00    -0.463 OA
ENDBRANCH   8  13
ENDBRANCH   1   3
BRANCH   1  18
ATOM     18  S   UNL     1       2.141   0.477   5.483  0.00  0.00    -0.086 S 
BRANCH  18  22
ATOM     19  C   UNL     1       0.242   0.022   2.480  0.00  0.00    +0.240 C 
ATOM     20  N   UNL     1       0.135   1.305   2.589  0.00  0.00    -0.145 NA
ATOM     21  N   UNL     1       0.290   1.695   3.927  0.00  0.00    -0.219 N 
ATOM     22  C   UNL     1       0.517   0.447   4.675  0.00  0.00    +0.340 C 
ATOM     23  O   UNL     1       0.465  -0.579   3.673  0.00  0.00    -0.442 OA
ATOM     24  H   UNL     1       0.255   2.596   4.284  0.00  0.00    +0.173 HD
BRANCH  19  31
ATOM     25  C   UNL     1      -0.506   1.454   0.079  0.00  0.00    +0.044 C 
ATOM     26  C   UNL     1      -0.232  -0.028   0.035  0.00  0.00    -0.038 A 
ATOM     27  C   UNL     1      -0.331  -0.714  -1.158  0.00  0.00    +0.004 A 
ATOM     28  C   UNL     1      -0.080  -2.074  -1.200  0.00  0.00    +0.000 A 
ATOM     29  C   UNL     1       0.271  -2.755  -0.048  0.00  0.00    +0.001 A 
ATOM     30  C   UNL     1       0.374  -2.081   1.151  0.00  0.00    +0.013 A 
ATOM     31  C   UNL     1       0.128  -0.708   1.200  0.00  0.00    +0.041 A 
ENDBRANCH  19  31
ENDBRANCH  18  22
ENDBRANCH   1  18
TORSDOF 5
