REMARK  Name = ZINC09980507
REMARK  6 active torsions:
REMARK  status: ('A' for Active; 'I' for Inactive)
REMARK    1  A    between atoms: N_9  and  C_29
REMARK    2  A    between atoms: C_10  and  S_12
REMARK    3  A    between atoms: S_12  and  C_13
REMARK    4  A    between atoms: C_13  and  C_14
REMARK    5  A    between atoms: N_16  and  C_17
REMARK    6  A    between atoms: C_18  and  C_27
REMARK                            x       y       z     vdW  Elec       q    Type
REMARK                         _______ _______ _______ _____ _____    ______ ____
ROOT
ATOM      1  S   UNL     1      -1.213  -1.038   1.660  0.00  0.00    -0.078 S 
ENDROOT
BRANCH   1  11
ATOM      2  C   UNL     1      -2.321   5.024   4.119  0.00  0.00    +0.001 A 
ATOM      3  C   UNL     1      -2.901   4.051   4.924  0.00  0.00    +0.002 A 
ATOM      4  C   UNL     1      -2.799   2.726   4.609  0.00  0.00    +0.028 A 
ATOM      5  C   UNL     1      -2.102   2.339   3.461  0.00  0.00    +0.079 A 
ATOM      6  C   UNL     1      -1.513   3.331   2.644  0.00  0.00    +0.065 A 
ATOM      7  C   UNL     1      -1.632   4.677   2.990  0.00  0.00    +0.015 A 
ATOM      8  C   UNL     1      -0.781   2.900   1.446  0.00  0.00    +0.263 A 
ATOM      9  O   UNL     1      -0.249   3.706   0.706  0.00  0.00    -0.267 OA
ATOM     10  N   UNL     1      -0.725   1.571   1.192  0.00  0.00    -0.284 N 
ATOM     11  C   UNL     1      -1.324   0.680   2.037  0.00  0.00    +0.173 A 
ATOM     12  N   UNL     1      -1.977   1.042   3.113  0.00  0.00    -0.223 NA
BRANCH  10  13
ATOM     13  C   UNL     1      -0.013   1.086   0.008  0.00  0.00    +0.093 C 
ATOM     14  C   UNL     1      -0.731   1.559  -1.273  0.00  0.00    +0.025 C 
ATOM     15  C   UNL     1       0.027   2.847  -1.679  0.00  0.00    +0.002 C 
ATOM     16  C   UNL     1       1.498   2.499  -1.343  0.00  0.00    +0.002 C 
ATOM     17  C   UNL     1       1.404   1.684  -0.036  0.00  0.00    +0.025 C 
ENDBRANCH  10  13
ENDBRANCH   1  11
BRANCH   1  18
ATOM     18  C   UNL     1      -2.142  -1.726   3.053  0.00  0.00    +0.173 C 
BRANCH  18  19
ATOM     19  C   UNL     1      -2.181  -3.228   2.938  0.00  0.00    +0.228 C 
ATOM     20  O   UNL     1      -1.633  -3.779   2.007  0.00  0.00    -0.275 OA
ATOM     21  N   UNL     1      -2.823  -3.959   3.870  0.00  0.00    -0.278 N 
ATOM     22  H   UNL     1      -3.261  -3.518   4.615  0.00  0.00    +0.155 HD
BRANCH  21  23
ATOM     23  C   UNL     1      -2.859  -5.342   3.765  0.00  0.00    +0.090 A 
ATOM     24  C   UNL     1      -3.457  -6.255   4.617  0.00  0.00    +0.084 A 
ATOM     25  C   UNL     1      -3.356  -7.668   4.277  0.00  0.00    -0.018 A 
ATOM     26  C   UNL     1      -2.659  -7.933   3.150  0.00  0.00    -0.004 A 
ATOM     27  S   UNL     1      -2.159  -6.347   2.540  0.00  0.00    -0.077 S 
ATOM     28  C   UNL     1      -2.360  -9.273   2.554  0.00  0.00    +0.043 C 
ATOM     29  C   UNL     1      -3.653 -10.096   2.483  0.00  0.00    +0.005 C 
ATOM     30  C   UNL     1      -3.802 -10.873   3.787  0.00  0.00    +0.001 C 
ATOM     31  C   UNL     1      -3.222 -10.068   4.948  0.00  0.00    +0.005 C 
ATOM     32  C   UNL     1      -3.989  -8.762   5.127  0.00  0.00    +0.037 C 
BRANCH  24  33
ATOM     33  C   UNL     1      -4.155  -5.825   5.791  0.00  0.00    +0.102 C 
ATOM     34  N   UNL     1      -4.709  -5.484   6.723  0.00  0.00    -0.191 NA
ENDBRANCH  24  33
ENDBRANCH  21  23
ENDBRANCH  18  19
ENDBRANCH   1  18
TORSDOF 6
