REMARK  Name = ZINC04199892
REMARK  5 active torsions:
REMARK  status: ('A' for Active; 'I' for Inactive)
REMARK    1  A    between atoms: C_1  and  C_2
REMARK    2  A    between atoms: C_6  and  C_8
REMARK    3  A    between atoms: C_19  and  N_26
REMARK    4  A    between atoms: C_21  and  O_24
REMARK    5  A    between atoms: O_24  and  C_25
REMARK                            x       y       z     vdW  Elec       q    Type
REMARK                         _______ _______ _______ _____ _____    ______ ____
ROOT
ATOM      1  C   UNL     1      -1.589   4.434   0.068  0.00  0.00    +0.105 C 
ATOM      2  C   UNL     1      -0.791   3.283  -0.524  0.00  0.00    +0.029 C 
ATOM      3  C   UNL     1       0.661   3.302   0.014  0.00  0.00    +0.033 C 
ATOM      4  C   UNL     1       1.053   1.836   0.002  0.00  0.00    -0.030 C 
ATOM      5  C   UNL     1      -0.013   1.076   0.008  0.00  0.00    -0.023 C 
ATOM      6  C   UNL     1      -1.274   1.925   0.018  0.00  0.00    +0.049 C 
ATOM      7  C   UNL     1      -1.740   2.078   1.471  0.00  0.00    -0.014 A 
ATOM      8  C   UNL     1      -2.138   0.924   2.137  0.00  0.00    +0.039 A 
ATOM      9  C   UNL     1      -2.569   0.980   3.446  0.00  0.00    +0.130 A 
ATOM     10  C   UNL     1      -2.610   2.192   4.111  0.00  0.00    +0.080 A 
ATOM     11  C   UNL     1      -2.217   3.345   3.459  0.00  0.00    +0.143 A 
ATOM     12  C   UNL     1      -1.780   3.289   2.131  0.00  0.00    +0.074 A 
ATOM     13  N   UNL     1      -1.393   4.484   1.517  0.00  0.00    -0.334 N 
ATOM     14  H   UNL     1      -1.878   5.271   1.921  0.00  0.00    +0.147 HD
ENDROOT
BRANCH   1  20
ATOM     15  C   UNL     1      -2.226   8.134  -3.241  0.00  0.00    +0.044 C 
ATOM     16  C   UNL     1      -1.431   7.501  -2.129  0.00  0.00    -0.050 A 
ATOM     17  C   UNL     1      -0.278   8.110  -1.669  0.00  0.00    +0.003 A 
ATOM     18  C   UNL     1       0.451   7.529  -0.649  0.00  0.00    +0.001 A 
ATOM     19  C   UNL     1       0.027   6.339  -0.087  0.00  0.00    +0.005 A 
ATOM     20  C   UNL     1      -1.127   5.731  -0.545  0.00  0.00    -0.027 A 
ATOM     21  C   UNL     1      -1.853   6.309  -1.570  0.00  0.00    +0.008 A 
ENDBRANCH   1  20
BRANCH   9  22
ATOM     22  N   UNL     1      -2.989  -0.259   4.139  0.00  0.00    +0.057 N 
ATOM     23  O   UNL     1      -3.370  -0.210   5.295  0.00  0.00    -0.126 OA
ATOM     24  O   UNL     1      -2.953  -1.326   3.554  0.00  0.00    -0.126 OA
ENDBRANCH   9  22
BRANCH  11  25
ATOM     25  O   UNL     1      -2.256   4.539   4.109  0.00  0.00    -0.493 OA
ATOM     26  C   UNL     1      -2.713   4.525   5.463  0.00  0.00    +0.277 C 
ENDBRANCH  11  25
TORSDOF 3
