REMARK  Name = ZINC39980248
REMARK  6 active torsions:
REMARK  status: ('A' for Active; 'I' for Inactive)
REMARK    1  A    between atoms: C_1  and  C_2
REMARK    2  A    between atoms: C_5  and  N_9
REMARK    3  A    between atoms: C_6  and  C_8
REMARK    4  A    between atoms: N_9  and  C_10
REMARK    5  A    between atoms: N_13  and  S_14
REMARK    6  A    between atoms: S_14  and  C_17
REMARK                            x       y       z     vdW  Elec       q    Type
REMARK                         _______ _______ _______ _____ _____    ______ ____
ROOT
ATOM      1  C   UNL     1      -0.049  -4.894  -1.288  0.00  0.00    +0.237 C 
ATOM      2  C   UNL     1      -1.195  -5.873  -1.163  0.00  0.00    +0.192 C 
ATOM      3  N   UNL     1      -2.393  -5.454  -0.880  0.00  0.00    -0.110 NA
ATOM      4  N   UNL     1      -0.957  -7.181  -1.350  0.00  0.00    -0.226 NA
ATOM      5  C   UNL     1       0.246  -7.630  -1.638  0.00  0.00    +0.089 A 
ATOM      6  C   UNL     1       0.461  -9.019  -1.829  0.00  0.00    +0.030 A 
ATOM      7  C   UNL     1       1.694  -9.485  -2.124  0.00  0.00    +0.002 A 
ATOM      8  C   UNL     1       2.812  -8.645  -2.258  0.00  0.00    +0.002 A 
ATOM      9  C   UNL     1       2.719  -7.307  -2.096  0.00  0.00    +0.027 A 
ATOM     10  C   UNL     1       1.410  -6.720  -1.773  0.00  0.00    +0.063 A 
ATOM     11  N   UNL     1       1.282  -5.433  -1.611  0.00  0.00    -0.359 N 
ATOM     12  H   UNL     1       2.047  -4.844  -1.701  0.00  0.00    +0.162 HD
ENDROOT
BRANCH   3  13
ATOM     13  S   UNL     1      -3.639  -6.537  -0.746  0.00  0.00    +0.102 S 
ATOM     14  O   UNL     1      -3.840  -7.086  -2.041  0.00  0.00    -0.146 OA
ATOM     15  O   UNL     1      -3.355  -7.344   0.389  0.00  0.00    -0.146 OA
BRANCH  13  16
ATOM     16  C   UNL     1      -5.090  -5.615  -0.359  0.00  0.00    +0.132 A 
ATOM     17  C   UNL     1      -6.142  -5.574  -1.254  0.00  0.00    +0.050 A 
ATOM     18  C   UNL     1      -7.281  -4.851  -0.950  0.00  0.00    +0.043 A 
ATOM     19  C   UNL     1      -7.368  -4.168   0.250  0.00  0.00    +0.021 A 
ATOM     20  C   UNL     1      -6.316  -4.209   1.145  0.00  0.00    +0.023 A 
ATOM     21  C   UNL     1      -5.178  -4.938   0.844  0.00  0.00    +0.068 A 
ATOM     22 CL   UNL     1      -3.860  -4.995   1.972  0.00  0.00    -0.082 Cl
ATOM     23 CL   UNL     1      -8.602  -4.799  -2.075  0.00  0.00    -0.083 Cl
ENDBRANCH  13  16
ENDBRANCH   3  13
BRANCH   1  24
ATOM     24  N   UNL     1       0.058  -4.167  -0.021  0.00  0.00    -0.318 N 
ATOM     25  H   UNL     1       0.105  -4.656   0.816  0.00  0.00    +0.148 HD
BRANCH  24  30
ATOM     26  C   UNL     1       0.195   1.502  -0.007  0.00  0.00    +0.044 C 
ATOM     27  C   UNL     1       0.159  -0.005  -0.011  0.00  0.00    -0.050 A 
ATOM     28  C   UNL     1       0.192  -0.693  -1.210  0.00  0.00    +0.005 A 
ATOM     29  C   UNL     1       0.159  -2.073  -1.217  0.00  0.00    +0.023 A 
ATOM     30  C   UNL     1       0.092  -2.771  -0.018  0.00  0.00    +0.032 A 
ATOM     31  C   UNL     1       0.059  -2.077   1.185  0.00  0.00    -0.029 A 
ATOM     32  C   UNL     1       0.098  -0.696   1.185  0.00  0.00    +0.008 A 
ATOM     33  C   UNL     1      -0.014  -2.829   2.489  0.00  0.00    +0.045 C 
ENDBRANCH  24  30
ENDBRANCH   1  24
TORSDOF 4
