REMARK  Name = ZINC19824557
REMARK  7 active torsions:
REMARK  status: ('A' for Active; 'I' for Inactive)
REMARK    1  A    between atoms: C_1  and  C_2
REMARK    2  A    between atoms: C_3  and  C_28
REMARK    3  A    between atoms: C_4  and  N_27
REMARK    4  A    between atoms: C_9  and  C_10
REMARK    5  A    between atoms: C_13  and  C_15
REMARK    6  A    between atoms: C_22  and  C_26
REMARK    7  A    between atoms: C_23  and  C_24
REMARK                            x       y       z     vdW  Elec       q    Type
REMARK                         _______ _______ _______ _____ _____    ______ ____
ROOT
ATOM      1  C   UNL     1       3.256  -3.974  -0.508  0.00  0.00    +0.046 C 
ATOM      2  C   UNL     1       2.084  -4.822  -0.086  0.00  0.00    -0.020 A 
ATOM      3  C   UNL     1       2.272  -6.125   0.386  0.00  0.00    +0.095 A 
ATOM      4  C   UNL     1       1.149  -6.885   0.770  0.00  0.00    +0.135 A 
ATOM      5  N   UNL     1      -0.070  -6.384   0.691  0.00  0.00    -0.230 NA
ATOM      6  C   UNL     1      -0.292  -5.149   0.248  0.00  0.00    +0.092 A 
ATOM      7  C   UNL     1       0.785  -4.332  -0.161  0.00  0.00    +0.013 A 
ATOM      8  C   UNL     1       0.214  -3.041  -0.587  0.00  0.00    -0.008 C 
ATOM      9  C   UNL     1       0.929  -1.944  -1.061  0.00  0.00    +0.055 C 
ATOM     10  C   UNL     1      -1.183  -3.116  -0.434  0.00  0.00    -0.023 C 
ATOM     11  C   UNL     1      -1.522  -4.363   0.063  0.00  0.00    +0.081 C 
ATOM     12  C   UNL     1      -2.156  -2.013  -0.760  0.00  0.00    +0.046 C 
ENDROOT
BRANCH   9  13
ATOM     13  C   UNL     1       0.251  -0.862  -1.640  0.00  0.00    +0.129 A 
ATOM     14  C   UNL     1       0.572   0.481  -1.484  0.00  0.00    +0.050 A 
ATOM     15  C   UNL     1      -0.355   1.206  -2.228  0.00  0.00    +0.050 A 
ATOM     16  C   UNL     1      -1.208   0.292  -2.813  0.00  0.00    +0.136 A 
ATOM     17  O   UNL     1      -0.829  -0.945  -2.448  0.00  0.00    -0.455 OA
BRANCH  16  18
ATOM     18  C   UNL     1      -2.344   0.618  -3.696  0.00  0.00    +0.020 A 
ATOM     19  C   UNL     1      -2.639   1.951  -3.996  0.00  0.00    +0.012 A 
ATOM     20  C   UNL     1      -3.700   2.250  -4.826  0.00  0.00    +0.003 A 
ATOM     21  C   UNL     1      -4.478   1.234  -5.354  0.00  0.00    +0.038 A 
ATOM     22  C   UNL     1      -4.195  -0.090  -5.057  0.00  0.00    +0.124 A 
ATOM     23  C   UNL     1      -3.132  -0.403  -4.231  0.00  0.00    +0.050 A 
ATOM     24  F   UNL     1      -4.959  -1.075  -5.576  0.00  0.00    -0.205 F 
ENDBRANCH  16  18
ENDBRANCH   9  13
BRANCH   4  25
ATOM     25  N   UNL     1       1.327  -8.176   1.237  0.00  0.00    -0.342 N 
ATOM     26  H   UNL     1       0.456  -8.776   1.540  0.00  0.00    +0.144 HD
ATOM     27  H   UNL     1       2.339  -8.601   1.307  0.00  0.00    +0.144 HD
ENDBRANCH   4  25
BRANCH  11  28
ATOM     28  C   UNL     1      -2.850  -4.813   0.350  0.00  0.00    +0.102 C 
ATOM     29  N   UNL     1      -3.905  -5.170   0.578  0.00  0.00    -0.191 NA
ENDBRANCH  11  28
BRANCH   3  30
ATOM     30  C   UNL     1       3.589  -6.680   0.477  0.00  0.00    +0.103 C 
ATOM     31  N   UNL     1       4.633  -7.121   0.550  0.00  0.00    -0.191 NA
ENDBRANCH   3  30
TORSDOF 5
