REMARK  Name = ZINC59017052
REMARK  9 active torsions:
REMARK  status: ('A' for Active; 'I' for Inactive)
REMARK    1  A    between atoms: C_1  and  O_2
REMARK    2  A    between atoms: O_2  and  C_3
REMARK    3  A    between atoms: C_3  and  C_5
REMARK    4  A    between atoms: C_7  and  N_31
REMARK    5  A    between atoms: N_9  and  C_12
REMARK    6  A    between atoms: C_12  and  C_13
REMARK    7  A    between atoms: N_15  and  C_16
REMARK    8  A    between atoms: C_16  and  C_18
REMARK    9  A    between atoms: C_16  and  C_24
REMARK                            x       y       z     vdW  Elec       q    Type
REMARK                         _______ _______ _______ _____ _____    ______ ____
ROOT
ATOM      1  C   UNL     1       1.526  -5.263  -1.449  0.00  0.00    +0.234 C 
ATOM      2  O   UNL     1       0.857  -4.835  -2.365  0.00  0.00    -0.274 OA
ATOM      3  N   UNL     1       2.643  -5.974  -1.705  0.00  0.00    -0.303 N 
ATOM      4  H   UNL     1       3.178  -6.317  -0.972  0.00  0.00    +0.150 HD
ENDROOT
BRANCH   1   5
ATOM      5  C   UNL     1       1.109  -5.002  -0.025  0.00  0.00    +0.220 C 
BRANCH   5  10
ATOM      6  C   UNL     1      -1.248  -2.100   0.003  0.00  0.00    +0.125 A 
ATOM      7  C   UNL     1      -2.474  -2.763   0.005  0.00  0.00    +0.054 A 
ATOM      8  C   UNL     1      -2.489  -4.157  -0.003  0.00  0.00    +0.143 A 
ATOM      9  C   UNL     1      -1.321  -4.851  -0.012  0.00  0.00    +0.122 A 
ATOM     10  N   UNL     1      -0.126  -4.214  -0.015  0.00  0.00    -0.304 N 
ATOM     11  C   UNL     1      -0.055  -2.870  -0.013  0.00  0.00    +0.266 A 
ATOM     12  O   UNL     1       1.030  -2.315  -0.020  0.00  0.00    -0.267 OA
BRANCH   8  13
ATOM     13  N   UNL     1      -3.779  -4.883   0.000  0.00  0.00    +0.058 N 
ATOM     14  O   UNL     1      -3.792  -6.092  -0.006  0.00  0.00    -0.126 OA
ATOM     15  O   UNL     1      -4.819  -4.266   0.009  0.00  0.00    -0.126 OA
ENDBRANCH   8  13
BRANCH   6  16
ATOM     16  C   UNL     1      -1.191  -0.632   0.010  0.00  0.00    +0.344 C 
ATOM     17  O   UNL     1      -2.219   0.016   0.023  0.00  0.00    -0.245 OA
BRANCH  16  19
ATOM     18  C   UNL     1      -0.017   1.425   0.010  0.00  0.00    +0.280 C 
ATOM     19  O   UNL     1       0.002  -0.004   0.002  0.00  0.00    -0.464 OA
ENDBRANCH  16  19
ENDBRANCH   6  16
ENDBRANCH   5  10
ENDBRANCH   1   5
BRANCH   3  20
ATOM     20  C   UNL     1       3.048  -6.229  -3.089  0.00  0.00    +0.134 C 
BRANCH  20  21
ATOM     21  C   UNL     1       3.890  -7.477  -3.145  0.00  0.00    -0.023 A 
ATOM     22  C   UNL     1       4.819  -7.729  -2.152  0.00  0.00    +0.007 A 
ATOM     23  C   UNL     1       5.591  -8.874  -2.202  0.00  0.00    +0.020 A 
ATOM     24  C   UNL     1       5.436  -9.768  -3.246  0.00  0.00    +0.041 A 
ATOM     25  C   UNL     1       4.506  -9.515  -4.240  0.00  0.00    +0.020 A 
ATOM     26  C   UNL     1       3.730  -8.373  -4.185  0.00  0.00    +0.007 A 
ATOM     27 CL   UNL     1       6.406 -11.206  -3.311  0.00  0.00    -0.084 Cl
ENDBRANCH  20  21
BRANCH  20  28
ATOM     28  C   UNL     1       3.849  -5.059  -3.602  0.00  0.00    -0.023 A 
ATOM     29  C   UNL     1       4.770  -4.439  -2.779  0.00  0.00    +0.006 A 
ATOM     30  C   UNL     1       5.504  -3.366  -3.249  0.00  0.00    +0.000 A 
ATOM     31  C   UNL     1       5.318  -2.914  -4.542  0.00  0.00    +0.000 A 
ATOM     32  C   UNL     1       4.397  -3.535  -5.365  0.00  0.00    +0.000 A 
ATOM     33  C   UNL     1       3.666  -4.611  -4.896  0.00  0.00    +0.006 A 
ENDBRANCH  20  28
ENDBRANCH   3  20
TORSDOF 8
