REMARK  Name = ZINC13246079
REMARK  9 active torsions:
REMARK  status: ('A' for Active; 'I' for Inactive)
REMARK    1  A    between atoms: C_1  and  S_2
REMARK    2  A    between atoms: S_2  and  C_5
REMARK    3  A    between atoms: C_8  and  N_11
REMARK    4  A    between atoms: C_12  and  C_14
REMARK    5  A    between atoms: C_14  and  N_15
REMARK    6  A    between atoms: N_18  and  CA_19
REMARK    7  A    between atoms: CA_19  and  C_21
REMARK    8  A    between atoms: CA_19  and  C_29
REMARK    9  A    between atoms: C_21  and  C_22
REMARK                            x       y       z     vdW  Elec       q    Type
REMARK                         _______ _______ _______ _____ _____    ______ ____
ROOT
ATOM      1  N   UNL     1       7.861  -0.517  -2.030  0.00  0.00    -0.291 N 
ATOM      2  C   UNL     1       7.062   0.442  -2.539  0.00  0.00    +0.301 C 
ATOM      3  O   UNL     1       7.133   0.730  -3.718  0.00  0.00    -0.253 OA
ATOM      4  N   UNL     1       6.184   1.081  -1.740  0.00  0.00    -0.286 N 
ATOM      5  H   UNL     1       7.804  -0.747  -1.089  0.00  0.00    +0.151 HD
ATOM      6  H   UNL     1       6.127   0.851  -0.800  0.00  0.00    +0.151 HD
ENDROOT
BRANCH   1   7
ATOM      7  C   UNL     1       8.816  -1.211  -2.897  0.00  0.00    +0.202 C 
BRANCH   7   9
ATOM      8  N   UNL     1      10.521  -2.990  -2.683  0.00  0.00    -0.284 N 
ATOM      9  C   UNL     1       9.582  -2.227  -2.090  0.00  0.00    +0.234 C 
ATOM     10  O   UNL     1       9.352  -2.358  -0.906  0.00  0.00    -0.274 OA
ATOM     11  H   UNL     1      10.658  -2.933  -3.641  0.00  0.00    +0.155 HD
BRANCH   8  15
ATOM     12  C   UNL     1      12.837  -5.593  -0.399  0.00  0.00    +0.088 A 
ATOM     13  C   UNL     1      11.514  -5.373  -0.064  0.00  0.00    +0.029 A 
ATOM     14  C   UNL     1      10.743  -4.511  -0.820  0.00  0.00    +0.025 A 
ATOM     15  C   UNL     1      11.299  -3.865  -1.916  0.00  0.00    +0.034 A 
ATOM     16  C   UNL     1      12.627  -4.092  -2.252  0.00  0.00    +0.025 A 
ATOM     17  C   UNL     1      13.394  -4.951  -1.489  0.00  0.00    +0.029 A 
BRANCH  12  19
ATOM     18  C   UNL     1      13.594  -8.319  -0.208  0.00  0.00    +0.200 C 
ATOM     19  S   UNL     1      13.817  -6.694   0.567  0.00  0.00    -0.006 S 
ATOM     20  O   UNL     1      15.153  -6.245   0.386  0.00  0.00    -0.170 OA
ATOM     21  O   UNL     1      13.216  -6.680   1.855  0.00  0.00    -0.170 OA
ENDBRANCH  12  19
ENDBRANCH   8  15
ENDBRANCH   7   9
ENDBRANCH   1   7
BRANCH   4  22
ATOM     22  CA  UNL     1       5.315   2.123  -2.293  0.00  0.00    +0.196 C 
BRANCH  22  23
ATOM     23  C   UNL     1       6.049   3.439  -2.297  0.00  0.00    +0.376 C 
ATOM     24  O   UNL     1       7.181   3.501  -1.880  0.00  0.00    -0.244 OA
ATOM     25  OXT UNL     1       5.444   4.543  -2.763  0.00  0.00    -0.244 OA
ENDBRANCH  22  23
BRANCH  22  26
ATOM     26  C   UNL     1       4.054   2.244  -1.435  0.00  0.00    +0.130 C 
BRANCH  26  27
ATOM     27  C   UNL     1       3.257   0.968  -1.531  0.00  0.00    +0.218 C 
ATOM     28  O   UNL     1       3.658   0.052  -2.217  0.00  0.00    -0.276 OA
ATOM     29  N   UNL     1       2.099   0.845  -0.853  0.00  0.00    -0.301 N 
ATOM     30  C   UNL     1       1.497   1.875   0.013  0.00  0.00    +0.108 C 
ATOM     31  C   UNL     1      -0.016   1.540   0.035  0.00  0.00    +0.020 C 
ATOM     32  C   UNL     1       0.009  -0.011   0.035  0.00  0.00    +0.020 C 
ATOM     33  C   UNL     1       1.226  -0.338  -0.856  0.00  0.00    +0.108 C 
ENDBRANCH  26  27
ENDBRANCH  22  26
ENDBRANCH   4  22
TORSDOF 8
