REMARK  Name = ZINC03397099
REMARK  9 active torsions:
REMARK  status: ('A' for Active; 'I' for Inactive)
REMARK    1  A    between atoms: C_1  and  C_2
REMARK    2  A    between atoms: C_5  and  C_7
REMARK    3  A    between atoms: C_7  and  N_58
REMARK    4  A    between atoms: C_8  and  N_58
REMARK    5  A    between atoms: C_9  and  N_10
REMARK    6  A    between atoms: C_9  and  N_58
REMARK    7  A    between atoms: N_13  and  C_26
REMARK    8  A    between atoms: C_14  and  C_16
REMARK    9  A    between atoms: C_26  and  C_27
REMARK                            x       y       z     vdW  Elec       q    Type
REMARK                         _______ _______ _______ _____ _____    ______ ____
ROOT
ATOM      1  N   UNL     1      -5.122   5.964   3.513  0.00  0.00    -0.257 N 
ATOM      2  C   UNL     1      -5.863   6.696   2.655  0.00  0.00    +0.177 A 
ATOM      3  S   UNL     1      -6.792   6.090   1.351  0.00  0.00    -0.011 S 
ATOM      4  N   UNL     1      -5.740   7.990   3.010  0.00  0.00    -0.301 N 
ATOM      5  C   UNL     1      -4.907   8.060   4.109  0.00  0.00    +0.165 A 
ATOM      6  N   UNL     1      -4.533   6.850   4.424  0.00  0.00    -0.152 NA
ENDROOT
BRANCH   5   7
ATOM      7  C   UNL     1      -4.510   9.297   4.813  0.00  0.00    +0.044 A 
ATOM      8  C   UNL     1      -4.062  10.446   4.245  0.00  0.00    +0.095 A 
ATOM      9  N   UNL     1      -3.798  11.367   5.215  0.00  0.00    -0.360 N 
ATOM     10  H   UNL     1      -3.469  12.265   5.053  0.00  0.00    +0.165 HD
ATOM     11  C   UNL     1      -4.061  10.836   6.460  0.00  0.00    +0.047 A 
ATOM     12  C   UNL     1      -4.517   9.521   6.269  0.00  0.00    +0.010 A 
ATOM     13  C   UNL     1      -4.862   8.736   7.367  0.00  0.00    +0.011 A 
ATOM     14  C   UNL     1      -4.753   9.255   8.638  0.00  0.00    +0.001 A 
ATOM     15  C   UNL     1      -4.304  10.554   8.828  0.00  0.00    +0.002 A 
ATOM     16  C   UNL     1      -3.959  11.342   7.752  0.00  0.00    +0.026 A 
ENDBRANCH   5   7
BRANCH   1  17
ATOM     17  C   UNL     1      -4.967   4.507   3.497  0.00  0.00    +0.072 C 
BRANCH  17  19
ATOM     18  C   UNL     1      -4.074   4.485   1.247  0.00  0.00    -0.093 C 
ATOM     19  N   UNL     1      -3.797   4.161   2.663  0.00  0.00    +0.396 N 
ATOM     20  H   UNL     1      -2.989   4.709   2.978  0.00  0.00    -0.079 HD
BRANCH  19  21
ATOM     21  C   UNL     1      -3.486   2.722   2.800  0.00  0.00    -0.001 C 
BRANCH  21  26
ATOM     22  C   UNL     1      -0.111   1.509  -0.746  0.00  0.00    +0.086 C 
ATOM     23  C   UNL     1      -0.703   1.915   0.579  0.00  0.00    +0.102 A 
ATOM     24  C   UNL     1      -0.011   2.176   1.703  0.00  0.00    +0.044 A 
ATOM     25  C   UNL     1      -0.957   2.515   2.697  0.00  0.00    +0.043 A 
ATOM     26  C   UNL     1      -2.171   2.442   2.121  0.00  0.00    +0.089 A 
ATOM     27  O   UNL     1      -2.010   2.084   0.837  0.00  0.00    -0.467 OA
ENDBRANCH  21  26
ENDBRANCH  19  21
ENDBRANCH  17  19
ENDBRANCH   1  17
BRANCH   4  28
ATOM     28  C   UNL     1      -6.379   9.127   2.344  0.00  0.00    +0.157 C 
BRANCH  28  29
ATOM     29  C   UNL     1      -7.794   9.312   2.896  0.00  0.00    +0.138 C 
ATOM     30  C   UNL     1      -8.519  10.430   2.116  0.00  0.00    +0.035 C 
ATOM     31  C   UNL     1      -9.303  11.160   3.243  0.00  0.00    +0.031 C 
ATOM     32  C   UNL     1      -8.320  11.011   4.431  0.00  0.00    +0.160 C 
ATOM     33  O   UNL     1      -7.732   9.710   4.270  0.00  0.00    -0.375 OA
ENDBRANCH  28  29
ENDBRANCH   4  28
TORSDOF 7
