REMARK  Name = ZINC49486312
REMARK  7 active torsions:
REMARK  status: ('A' for Active; 'I' for Inactive)
REMARK    1  A    between atoms: C_3  and  C_6
REMARK    2  A    between atoms: C_6  and  C_8
REMARK    3  A    between atoms: C_6  and  N_21
REMARK    4  A    between atoms: C_8  and  N_9
REMARK    5  A    between atoms: N_9  and  S_10
REMARK    6  A    between atoms: S_10  and  C_13
REMARK    7  A    between atoms: N_24  and  C_27
REMARK                            x       y       z     vdW  Elec       q    Type
REMARK                         _______ _______ _______ _____ _____    ______ ____
ROOT
ATOM      1  C   UNL     1       3.788   0.450  -0.141  0.00  0.00    +0.015 C 
ENDROOT
BRANCH   1   2
ATOM      2  N   UNL     1       4.361  -0.748  -0.768  0.00  0.00    +0.389 N 
ATOM      3  C   UNL     1       4.282  -0.619  -2.229  0.00  0.00    -0.059 C 
ATOM      4  C   UNL     1       4.774  -1.914  -2.883  0.00  0.00    +0.086 C 
ATOM      5  N   UNL     1       6.121  -2.212  -2.372  0.00  0.00    -0.333 N 
ATOM      6  C   UNL     1       6.328  -2.201  -0.915  0.00  0.00    +0.086 C 
ATOM      7  C   UNL     1       5.763  -0.892  -0.354  0.00  0.00    -0.059 C 
ATOM      8  H   UNL     1       3.840  -1.562  -0.477  0.00  0.00    -0.081 HD
BRANCH   5   9
ATOM      9  C   UNL     1       7.175  -2.497  -3.245  0.00  0.00    +0.030 A 
ATOM     10  C   UNL     1       8.463  -2.657  -2.752  0.00  0.00    +0.026 A 
ATOM     11  C   UNL     1       9.502  -2.939  -3.617  0.00  0.00    +0.040 A 
ATOM     12  C   UNL     1       9.261  -3.063  -4.975  0.00  0.00    +0.124 A 
ATOM     13  C   UNL     1       7.977  -2.903  -5.469  0.00  0.00    +0.040 A 
ATOM     14  C   UNL     1       6.934  -2.626  -4.607  0.00  0.00    +0.026 A 
ATOM     15  F   UNL     1      10.279  -3.338  -5.819  0.00  0.00    -0.205 F 
ENDBRANCH   5   9
ENDBRANCH   1   2
BRANCH   1  18
ATOM     16  C   UNL     1       0.330   1.324  -1.069  0.00  0.00    +0.041 A 
ATOM     17  C   UNL     1       1.670   1.686  -0.802  0.00  0.00    +0.043 A 
ATOM     18  C   UNL     1       2.327   0.553  -0.497  0.00  0.00    +0.093 A 
ATOM     19  O   UNL     1       1.460  -0.471  -0.564  0.00  0.00    -0.469 OA
ATOM     20  C   UNL     1       0.248  -0.009  -0.910  0.00  0.00    +0.195 A 
ENDBRANCH   1  18
BRANCH   1  21
ATOM     21  C   UNL     1       3.936   0.350   1.379  0.00  0.00    +0.098 C 
BRANCH  21  22
ATOM     22  N   UNL     1       3.353  -0.911   1.845  0.00  0.00    -0.191 NA
ATOM     23  H   UNL     1       2.751  -1.409   1.270  0.00  0.00    +0.148 HD
BRANCH  22  24
ATOM     24  S   UNL     1       3.724  -1.487   3.352  0.00  0.00    +0.059 S 
ATOM     25  O   UNL     1       2.993  -2.695   3.517  0.00  0.00    -0.153 OA
ATOM     26  O   UNL     1       5.138  -1.431   3.473  0.00  0.00    -0.153 OA
BRANCH  24  27
ATOM     27  C   UNL     1       3.073  -0.342   4.522  0.00  0.00    +0.111 A 
ATOM     28  C   UNL     1       3.847   0.718   4.955  0.00  0.00    +0.067 A 
ATOM     29  C   UNL     1       3.337   1.619   5.875  0.00  0.00    +0.128 A 
ATOM     30  C   UNL     1       2.051   1.458   6.360  0.00  0.00    +0.076 A 
ATOM     31  C   UNL     1       1.276   0.397   5.925  0.00  0.00    +0.128 A 
ATOM     32  C   UNL     1       1.786  -0.500   5.002  0.00  0.00    +0.067 A 
ATOM     33  F   UNL     1       0.020   0.238   6.398  0.00  0.00    -0.205 F 
ATOM     34  F   UNL     1       4.095   2.654   6.298  0.00  0.00    -0.205 F 
ENDBRANCH  24  27
ENDBRANCH  22  24
ENDBRANCH  21  22
ENDBRANCH   1  21
TORSDOF 7
