REMARK  Name = ZINC67246726
REMARK  4 active torsions:
REMARK  status: ('A' for Active; 'I' for Inactive)
REMARK    1  A    between atoms: C_4  and  C_7
REMARK    2  A    between atoms: C_7  and  C_9
REMARK    3  A    between atoms: C_7  and  N_12
REMARK    4  A    between atoms: C_13  and  C_15
REMARK                            x       y       z     vdW  Elec       q    Type
REMARK                         _______ _______ _______ _____ _____    ______ ____
ROOT
ATOM      1  N   UNL     1       3.611  -1.865  -0.930  0.00  0.00    -0.300 N 
ATOM      2  C   UNL     1       4.721  -2.370  -1.504  0.00  0.00    +0.217 C 
ATOM      3  O   UNL     1       5.802  -1.868  -1.281  0.00  0.00    -0.275 OA
ATOM      4  H   UNL     1       2.747  -2.267  -1.108  0.00  0.00    +0.150 HD
ENDROOT
BRANCH   2   5
ATOM      5  C   UNL     1       4.619  -3.561  -2.422  0.00  0.00    +0.075 C 
ATOM      6  C   UNL     1       3.713  -3.215  -3.606  0.00  0.00    +0.015 C 
ATOM      7  C   UNL     1       3.600  -4.429  -4.532  0.00  0.00    +0.036 C 
ATOM      8  C   UNL     1       4.988  -4.820  -5.029  0.00  0.00    +0.112 C 
ATOM      9  C   UNL     1       5.908  -5.147  -3.859  0.00  0.00    +0.036 C 
ATOM     10  C   UNL     1       6.012  -3.931  -2.934  0.00  0.00    +0.015 C 
ATOM     11  C   UNL     1       4.898  -5.996  -5.974  0.00  0.00    +0.244 C 
ATOM     12  O   UNL     1       4.480  -7.107  -5.726  0.00  0.00    -0.273 OA
ATOM     13  N   UNL     1       5.381  -5.550  -7.152  0.00  0.00    -0.238 N 
ATOM     14  C   UNL     1       5.758  -4.268  -7.077  0.00  0.00    +0.307 C 
ATOM     15  O   UNL     1       6.224  -3.644  -8.009  0.00  0.00    -0.252 OA
ATOM     16  N   UNL     1       5.562  -3.746  -5.850  0.00  0.00    -0.285 N 
ATOM     17  H   UNL     1       5.447  -6.091  -7.955  0.00  0.00    +0.159 HD
ATOM     18  H   UNL     1       5.760  -2.840  -5.566  0.00  0.00    +0.151 HD
ENDBRANCH   2   5
BRANCH   1  19
ATOM     19  C   UNL     1       3.711  -0.707  -0.038  0.00  0.00    +0.189 C 
BRANCH  19  23
ATOM     20  C   UNL     1      -0.017   1.378   0.010  0.00  0.00    +0.000 A 
ATOM     21  C   UNL     1       1.171   2.086   0.002  0.00  0.00    +0.000 A 
ATOM     22  C   UNL     1       2.377   1.411  -0.013  0.00  0.00    +0.006 A 
ATOM     23  C   UNL     1       2.396   0.029  -0.020  0.00  0.00    -0.018 A 
ATOM     24  C   UNL     1       1.208  -0.679  -0.012  0.00  0.00    +0.006 A 
ATOM     25  C   UNL     1       0.002  -0.004   0.002  0.00  0.00    +0.000 A 
ENDBRANCH  19  23
BRANCH  19  26
ATOM     26  C   UNL     1       4.044  -1.175   1.356  0.00  0.00    +0.235 C 
ATOM     27  O   UNL     1       4.184  -2.358   1.581  0.00  0.00    -0.274 OA
ATOM     28  N   UNL     1       4.186  -0.278   2.352  0.00  0.00    -0.328 N 
ATOM     29  H   UNL     1       4.074   0.669   2.172  0.00  0.00    +0.145 HD
ATOM     30  H   UNL     1       4.400  -0.579   3.249  0.00  0.00    +0.145 HD
ENDBRANCH  19  26
ENDBRANCH   1  19
TORSDOF 4
