REMARK  Name = ZINC03249742
REMARK  10 active torsions:
REMARK  status: ('A' for Active; 'I' for Inactive)
REMARK    1  A    between atoms: C_1  and  C_2
REMARK    2  A    between atoms: C_2  and  C_4
REMARK    3  A    between atoms: C_2  and  O_16
REMARK    4  A    between atoms: N_6  and  C_7
REMARK    5  A    between atoms: C_11  and  N_13
REMARK    6  A    between atoms: O_16  and  C_17
REMARK    7  A    between atoms: C_17  and  C_19
REMARK    8  A    between atoms: C_20  and  C_21
REMARK    9  A    between atoms: N_23  and  C_32
REMARK   10  A    between atoms: C_25  and  C_26
REMARK                            x       y       z     vdW  Elec       q    Type
REMARK                         _______ _______ _______ _____ _____    ______ ____
ROOT
ATOM      1  C   UNL     1       3.811   9.590   1.397  0.00  0.00    +0.092 C 
ATOM      2  C   UNL     1       3.947  10.728   2.117  0.00  0.00    +0.018 C 
ENDROOT
BRANCH   2   3
ATOM      3  C   UNL     1       5.282  11.285   2.363  0.00  0.00    +0.021 A 
ATOM      4  C   UNL     1       6.489  10.768   1.929  0.00  0.00    +0.123 A 
ATOM      5  N   UNL     1       7.466  11.580   2.369  0.00  0.00    -0.239 N 
ATOM      6  N   UNL     1       6.909  12.637   3.095  0.00  0.00    -0.166 NA
ATOM      7  C   UNL     1       5.602  12.505   3.113  0.00  0.00    +0.100 A 
BRANCH   7   8
ATOM      8  C   UNL     1       4.633  13.416   3.769  0.00  0.00    +0.003 A 
ATOM      9  C   UNL     1       3.387  13.647   3.189  0.00  0.00    +0.010 A 
ATOM     10  C   UNL     1       2.487  14.492   3.807  0.00  0.00    +0.001 A 
ATOM     11  C   UNL     1       2.825  15.117   4.994  0.00  0.00    +0.000 A 
ATOM     12  C   UNL     1       4.062  14.895   5.572  0.00  0.00    +0.001 A 
ATOM     13  C   UNL     1       4.968  14.048   4.965  0.00  0.00    +0.010 A 
ENDBRANCH   7   8
BRANCH   5  14
ATOM     14  C   UNL     1       8.835  11.395   2.137  0.00  0.00    +0.065 A 
ATOM     15  C   UNL     1       9.275  10.300   1.404  0.00  0.00    +0.028 A 
ATOM     16  C   UNL     1      10.625  10.123   1.172  0.00  0.00    +0.002 A 
ATOM     17  C   UNL     1      11.539  11.029   1.678  0.00  0.00    +0.000 A 
ATOM     18  C   UNL     1      11.105  12.118   2.412  0.00  0.00    +0.002 A 
ATOM     19  C   UNL     1       9.756  12.303   2.643  0.00  0.00    +0.028 A 
ENDBRANCH   5  14
ENDBRANCH   2   3
BRANCH   1  20
ATOM     20  C   UNL     1       2.523   9.053   1.160  0.00  0.00    +0.333 C 
ATOM     21  O   UNL     1       1.539   9.614   1.603  0.00  0.00    -0.246 OA
BRANCH  20  22
ATOM     22  O   UNL     1       2.388   7.918   0.443  0.00  0.00    -0.449 OA
BRANCH  22  24
ATOM     23  C   UNL     1       0.483   8.037  -1.040  0.00  0.00    +0.062 C 
ATOM     24  C   UNL     1       1.059   7.433   0.242  0.00  0.00    +0.259 C 
BRANCH  24  25
ATOM     25  C   UNL     1       1.085   5.931   0.122  0.00  0.00    +0.258 C 
ATOM     26  O   UNL     1       2.146   5.342   0.109  0.00  0.00    -0.271 OA
ATOM     27  N   UNL     1      -0.069   5.242   0.028  0.00  0.00    -0.282 N 
ATOM     28  H   UNL     1      -0.913   5.715  -0.039  0.00  0.00    +0.155 HD
BRANCH  27  29
ATOM     29  C   UNL     1      -0.051   3.842   0.028  0.00  0.00    +0.036 A 
ATOM     30  C   UNL     1       0.907   3.159   0.765  0.00  0.00    +0.023 A 
ATOM     31  C   UNL     1       0.923   1.778   0.762  0.00  0.00    +0.004 A 
ATOM     32  C   UNL     1      -0.013   1.076   0.025  0.00  0.00    +0.033 A 
ATOM     33  C   UNL     1      -0.965   1.753  -0.714  0.00  0.00    +0.128 A 
ATOM     34  C   UNL     1      -0.990   3.135  -0.711  0.00  0.00    +0.056 A 
BRANCH  33  35
ATOM     35  N   UNL     1      -1.961   0.998  -1.506  0.00  0.00    +0.056 N 
ATOM     36  O   UNL     1      -1.943  -0.220  -1.506  0.00  0.00    -0.126 OA
ATOM     37  O   UNL     1      -2.800   1.594  -2.158  0.00  0.00    -0.126 OA
ENDBRANCH  33  35
ENDBRANCH  27  29
ENDBRANCH  24  25
ENDBRANCH  22  24
ENDBRANCH  20  22
ENDBRANCH   1  20
TORSDOF 9
