REMARK  Name = ZINC09328011
REMARK  8 active torsions:
REMARK  status: ('A' for Active; 'I' for Inactive)
REMARK    1  A    between atoms: C_1  and  O_2
REMARK    2  A    between atoms: O_2  and  C_3
REMARK    3  A    between atoms: C_6  and  C_11
REMARK    4  A    between atoms: C_8  and  O_9
REMARK    5  A    between atoms: O_9  and  C_10
REMARK    6  A    between atoms: C_12  and  O_13
REMARK    7  A    between atoms: C_23  and  C_25
REMARK    8  A    between atoms: C_29  and  N_31
REMARK                            x       y       z     vdW  Elec       q    Type
REMARK                         _______ _______ _______ _____ _____    ______ ____
ROOT
ATOM      1  C   UNL     1       2.479   1.067  -0.015  0.00  0.00    +0.052 A 
ATOM      2  C   UNL     1       3.308   1.206   1.090  0.00  0.00    +0.135 A 
ATOM      3  C   UNL     1       4.616   0.619   1.356  0.00  0.00    +0.031 A 
ATOM      4  C   UNL     1       5.289   0.888   2.558  0.00  0.00    +0.012 A 
ATOM      5  C   UNL     1       6.514   0.338   2.794  0.00  0.00    +0.001 A 
ATOM      6  C   UNL     1       7.125  -0.493   1.865  0.00  0.00    +0.001 A 
ATOM      7  C   UNL     1       6.489  -0.778   0.671  0.00  0.00    +0.016 A 
ATOM      8  C   UNL     1       5.250  -0.227   0.423  0.00  0.00    +0.025 A 
ATOM      9  S   UNL     1       4.356  -0.534  -1.078  0.00  0.00    -0.073 S 
ATOM     10  C   UNL     1       2.780   0.300  -1.143  0.00  0.00    +0.084 A 
ATOM     11  N   UNL     1       1.927   0.196  -2.221  0.00  0.00    -0.275 N 
ATOM     12  C   UNL     1       2.272  -0.559  -3.282  0.00  0.00    +0.249 C 
ATOM     13  O   UNL     1       3.335  -1.149  -3.289  0.00  0.00    -0.270 OA
ATOM     14  H   UNL     1       0.966   0.730  -2.215  0.00  0.00    +0.156 HD
ENDROOT
BRANCH   1  18
ATOM     15  C   UNL     1      -1.239   3.136   0.031  0.00  0.00    +0.162 A 
ATOM     16  C   UNL     1      -1.217   1.750   0.017  0.00  0.00    +0.050 A 
ATOM     17  C   UNL     1      -0.013   1.076   0.008  0.00  0.00    +0.012 A 
ATOM     18  C   UNL     1       1.185   1.789   0.000  0.00  0.00    -0.008 A 
ATOM     19  C   UNL     1       1.164   3.183   0.008  0.00  0.00    +0.058 A 
ATOM     20  C   UNL     1      -0.046   3.854   0.023  0.00  0.00    +0.162 A 
BRANCH  15  22
ATOM     21  C   UNL     1      -3.614   2.997   0.053  0.00  0.00    +0.277 C 
ATOM     22  O   UNL     1      -2.429   3.796   0.046  0.00  0.00    -0.491 OA
ENDBRANCH  15  22
BRANCH  20  23
ATOM     23  O   UNL     1      -0.071   5.213   0.031  0.00  0.00    -0.491 OA
ATOM     24  C   UNL     1       1.190   5.885   0.023  0.00  0.00    +0.277 C 
ENDBRANCH  20  23
ENDBRANCH   1  18
BRANCH  12  25
ATOM     25  C   UNL     1       1.358  -0.671  -4.438  0.00  0.00    +0.039 A 
ATOM     26  C   UNL     1       0.136   0.005  -4.433  0.00  0.00    +0.013 A 
ATOM     27  C   UNL     1      -0.713  -0.103  -5.515  0.00  0.00    +0.003 A 
ATOM     28  C   UNL     1      -0.355  -0.879  -6.604  0.00  0.00    +0.033 A 
ATOM     29  C   UNL     1       0.854  -1.552  -6.615  0.00  0.00    +0.127 A 
ATOM     30  C   UNL     1       1.714  -1.448  -5.541  0.00  0.00    +0.045 A 
BRANCH  29  31
ATOM     31  N   UNL     1       1.228  -2.379  -7.784  0.00  0.00    +0.056 N 
ATOM     32  O   UNL     1       0.471  -2.468  -8.734  0.00  0.00    -0.126 OA
ATOM     33  O   UNL     1       2.292  -2.972  -7.795  0.00  0.00    -0.126 OA
ENDBRANCH  29  31
ENDBRANCH  12  25
BRANCH   2  34
ATOM     34  O   UNL     1       2.873   1.924   1.976  0.00  0.00    -0.505 OA
ATOM     35  H   UNL     1       3.463   2.090   2.889  0.00  0.00    +0.292 HD
ENDBRANCH   2  34
TORSDOF 6
