REMARK  Name = ZINC15673485
REMARK  8 active torsions:
REMARK  status: ('A' for Active; 'I' for Inactive)
REMARK    1  A    between atoms: C_4  and  S_7
REMARK    2  A    between atoms: S_7  and  C_8
REMARK    3  A    between atoms: C_8  and  C_9
REMARK    4  A    between atoms: C_11  and  C_14
REMARK    5  A    between atoms: C_14  and  C_15
REMARK    6  A    between atoms: C_20  and  C_22
REMARK    7  A    between atoms: C_22  and  C_23
REMARK    8  A    between atoms: N_25  and  C_26
REMARK                            x       y       z     vdW  Elec       q    Type
REMARK                         _______ _______ _______ _____ _____    ______ ____
ROOT
ATOM      1  C   UNL     1      -2.394   1.704   5.436  0.00  0.00    -0.019 C 
ATOM      2  C   UNL     1      -1.877   3.129   5.650  0.00  0.00    -0.079 C 
ATOM      3  C   UNL     1      -3.978   3.802   6.652  0.00  0.00    -0.082 C 
ATOM      4  C   UNL     1      -4.558   2.397   6.467  0.00  0.00    -0.015 C 
ATOM      5  C   UNL     1      -3.423   1.370   6.520  0.00  0.00    -0.002 C 
ATOM      6  N   UNL     1      -3.002   4.081   5.582  0.00  0.00    +0.379 N 
ATOM      7  H   UNL     1      -3.465   3.994   4.670  0.00  0.00    -0.086 HD
ATOM      8  H   UNL     1      -2.643   5.037   5.693  0.00  0.00    -0.086 HD
ENDROOT
BRANCH   1   9
ATOM      9  C   UNL     1      -3.052   1.601   4.058  0.00  0.00    +0.061 C 
BRANCH   9  12
ATOM     10  C   UNL     1      -0.718   1.572   1.248  0.00  0.00    +0.148 A 
ATOM     11  C   UNL     1      -1.716   0.942   1.913  0.00  0.00    +0.071 A 
ATOM     12  C   UNL     1      -2.012   1.811   2.988  0.00  0.00    +0.084 A 
ATOM     13  N   UNL     1      -1.212   2.831   2.867  0.00  0.00    -0.083 NA
ATOM     14  O   UNL     1      -0.486   2.716   1.907  0.00  0.00    -0.359 OA
BRANCH  10  15
ATOM     15  C   UNL     1      -0.013   1.086   0.008  0.00  0.00    +0.151 C 
BRANCH  15  16
ATOM     16  S   UNL     1      -0.890   1.687  -1.462  0.00  0.00    -0.117 S 
BRANCH  16  20
ATOM     17  C   UNL     1       1.513   0.032  -4.926  0.00  0.00    +0.000 A 
ATOM     18  C   UNL     1       0.391   0.802  -5.170  0.00  0.00    +0.001 A 
ATOM     19  C   UNL     1      -0.344   1.308  -4.117  0.00  0.00    +0.015 A 
ATOM     20  C   UNL     1       0.045   1.043  -2.809  0.00  0.00    +0.008 A 
ATOM     21  C   UNL     1       1.176   0.273  -2.567  0.00  0.00    +0.015 A 
ATOM     22  C   UNL     1       1.903  -0.235  -3.626  0.00  0.00    +0.001 A 
ENDBRANCH  16  20
ENDBRANCH  15  16
ENDBRANCH  10  15
ENDBRANCH   9  12
ENDBRANCH   1   9
BRANCH   5  23
ATOM     23  C   UNL     1      -3.987  -0.031   6.275  0.00  0.00    +0.099 C 
BRANCH  23  24
ATOM     24  C   UNL     1      -4.906  -0.407   7.408  0.00  0.00    +0.214 C 
ATOM     25  O   UNL     1      -5.091   0.369   8.322  0.00  0.00    -0.276 OA
ATOM     26  N   UNL     1      -5.522  -1.606   7.407  0.00  0.00    -0.312 N 
ATOM     27  H   UNL     1      -5.374  -2.226   6.676  0.00  0.00    +0.149 HD
BRANCH  26  28
ATOM     28  C   UNL     1      -6.416  -1.972   8.509  0.00  0.00    +0.073 C 
ATOM     29  C   UNL     1      -5.594  -2.559   9.658  0.00  0.00    +0.022 C 
ATOM     30  C   UNL     1      -6.527  -2.942  10.808  0.00  0.00    +0.002 C 
ATOM     31  C   UNL     1      -7.539  -3.981  10.321  0.00  0.00    +0.000 C 
ATOM     32  C   UNL     1      -8.361  -3.393   9.172  0.00  0.00    +0.002 C 
ATOM     33  C   UNL     1      -7.428  -3.010   8.021  0.00  0.00    +0.022 C 
ENDBRANCH  26  28
ENDBRANCH  23  24
ENDBRANCH   5  23
TORSDOF 8
