REMARK  Name = ZINC49539352
REMARK  7 active torsions:
REMARK  status: ('A' for Active; 'I' for Inactive)
REMARK    1  A    between atoms: C_1  and  C_2
REMARK    2  A    between atoms: C_4  and  C_7
REMARK    3  A    between atoms: C_7  and  N_8
REMARK    4  A    between atoms: N_8  and  S_9
REMARK    5  A    between atoms: S_9  and  C_12
REMARK    6  A    between atoms: C_15  and  C_17
REMARK    7  A    between atoms: C_17  and  N_18
REMARK                            x       y       z     vdW  Elec       q    Type
REMARK                         _______ _______ _______ _____ _____    ______ ____
ROOT
ATOM      1  S   UNL     1      -3.921  -4.014   1.660  0.00  0.00    +0.065 S 
ATOM      2  O   UNL     1      -4.052  -4.118   3.071  0.00  0.00    -0.153 OA
ATOM      3  O   UNL     1      -4.864  -3.317   0.857  0.00  0.00    -0.153 OA
ENDROOT
BRANCH   1   4
ATOM      4  C   UNL     1      -3.849  -5.660   1.037  0.00  0.00    +0.143 A 
ATOM      5  C   UNL     1      -3.476  -6.798   1.673  0.00  0.00    +0.036 A 
ATOM      6  C   UNL     1      -3.498  -7.993   0.979  0.00  0.00    +0.011 A 
ATOM      7  C   UNL     1      -3.893  -7.992  -0.318  0.00  0.00    -0.026 A 
ATOM      8  S   UNL     1      -4.256  -6.265  -0.592  0.00  0.00    -0.075 S 
BRANCH   7   9
ATOM      9  C   UNL     1      -4.001  -9.149  -1.278  0.00  0.00    -0.043 C 
BRANCH   9  10
ATOM     10  N   UNL     1      -5.347  -9.731  -1.192  0.00  0.00    +0.381 N 
ATOM     11  H   UNL     1      -6.033  -9.031  -1.430  0.00  0.00    -0.090 HD
ATOM     12  H   UNL     1      -5.420 -10.506  -1.834  0.00  0.00    -0.090 HD
ATOM     13  H   UNL     1      -5.513 -10.058  -0.251  0.00  0.00    -0.090 HD
ENDBRANCH   9  10
ENDBRANCH   7   9
ENDBRANCH   1   4
BRANCH   1  14
ATOM     14  N   UNL     1      -2.447  -3.317   1.371  0.00  0.00    -0.184 NA
ATOM     15  H   UNL     1      -1.880  -3.056   2.114  0.00  0.00    +0.148 HD
BRANCH  14  16
ATOM     16  C   UNL     1      -1.999  -3.093  -0.006  0.00  0.00    +0.161 C 
BRANCH  16  20
ATOM     17  C   UNL     1      -0.018   1.503   0.010  0.00  0.00    +0.073 C 
ATOM     18  C   UNL     1       0.002  -0.004   0.002  0.00  0.00    +0.076 A 
ATOM     19  N   UNL     1      -1.013  -0.832   0.002  0.00  0.00    -0.248 NA
ATOM     20  C   UNL     1      -0.834  -2.137  -0.006  0.00  0.00    +0.064 A 
ATOM     21  C   UNL     1       0.449  -2.582  -0.014  0.00  0.00    +0.071 A 
ATOM     22  S   UNL     1       1.335  -1.032  -0.017  0.00  0.00    -0.080 S 
ENDBRANCH  16  20
ENDBRANCH  14  16
ENDBRANCH   1  14
TORSDOF 6
