REMARK  Name = ZINC04304636
REMARK  7 active torsions:
REMARK  status: ('A' for Active; 'I' for Inactive)
REMARK    1  A    between atoms: C_1  and  C_2
REMARK    2  A    between atoms: C_5  and  C_8
REMARK    3  A    between atoms: C_8  and  C_27
REMARK    4  A    between atoms: N_11  and  C_15
REMARK    5  A    between atoms: C_15  and  C_16
REMARK    6  A    between atoms: N_18  and  C_19
REMARK    7  A    between atoms: C_24  and  C_25
REMARK                            x       y       z     vdW  Elec       q    Type
REMARK                         _______ _______ _______ _____ _____    ______ ____
ROOT
ATOM      1  C   UNL     1       8.886   1.711   0.101  0.00  0.00    +0.135 C 
ATOM      2  C   UNL     1       7.855   0.762   0.680  0.00  0.00    +0.251 C 
ATOM      3  O   UNL     1       7.675   0.503   1.850  0.00  0.00    -0.272 OA
ATOM      4  N   UNL     1       7.181   0.268  -0.377  0.00  0.00    -0.215 N 
ATOM      5  C   UNL     1       7.640   0.764  -1.531  0.00  0.00    +0.310 C 
ATOM      6  O   UNL     1       7.194   0.464  -2.621  0.00  0.00    -0.252 OA
ATOM      7  N   UNL     1       8.650   1.634  -1.351  0.00  0.00    -0.281 N 
ATOM      8  C   UNL     1       8.654   3.135   0.612  0.00  0.00    +0.047 C 
ATOM      9  H   UNL     1       9.132   2.114  -2.043  0.00  0.00    +0.152 HD
ENDROOT
BRANCH   1  14
ATOM     10  C   UNL     1      14.233  -0.060   1.390  0.00  0.00    +0.044 C 
ATOM     11  C   UNL     1      12.838   0.403   1.054  0.00  0.00    -0.050 A 
ATOM     12  C   UNL     1      12.606   1.103  -0.114  0.00  0.00    +0.004 A 
ATOM     13  C   UNL     1      11.326   1.527  -0.422  0.00  0.00    +0.006 A 
ATOM     14  C   UNL     1      10.280   1.249   0.437  0.00  0.00    -0.015 A 
ATOM     15  C   UNL     1      10.514   0.552   1.608  0.00  0.00    +0.006 A 
ATOM     16  C   UNL     1      11.792   0.125   1.914  0.00  0.00    +0.004 A 
ENDBRANCH   1  14
BRANCH   4  17
ATOM     17  C   UNL     1       6.084  -0.698  -0.275  0.00  0.00    +0.214 C 
BRANCH  17  18
ATOM     18  C   UNL     1       4.776   0.039  -0.144  0.00  0.00    +0.235 C 
ATOM     19  O   UNL     1       4.761   1.252  -0.138  0.00  0.00    -0.274 OA
ATOM     20  N   UNL     1       3.623  -0.649  -0.035  0.00  0.00    -0.284 N 
ATOM     21  H   UNL     1       3.640  -1.616   0.040  0.00  0.00    +0.155 HD
BRANCH  20  22
ATOM     22  C   UNL     1       2.400   0.031  -0.031  0.00  0.00    +0.038 A 
ATOM     23  C   UNL     1       2.295   1.279  -0.632  0.00  0.00    +0.023 A 
ATOM     24  C   UNL     1       1.087   1.948  -0.626  0.00  0.00    +0.003 A 
ATOM     25  C   UNL     1      -0.018   1.377  -0.024  0.00  0.00    +0.020 A 
ATOM     26  C   UNL     1       0.081   0.133   0.575  0.00  0.00    +0.046 A 
ATOM     27  C   UNL     1       1.288  -0.541   0.573  0.00  0.00    -0.011 A 
ATOM     28  C   UNL     1       1.397  -1.895   1.226  0.00  0.00    +0.047 C 
ATOM     29 CL   UNL     1      -1.310  -0.580   1.331  0.00  0.00    -0.083 Cl
ENDBRANCH  20  22
ENDBRANCH  17  18
ENDBRANCH   4  17
TORSDOF 4
