REMARK  Name = ZINC35987619
REMARK  9 active torsions:
REMARK  status: ('A' for Active; 'I' for Inactive)
REMARK    1  A    between atoms: C_1  and  C_2
REMARK    2  A    between atoms: C_5  and  C_8
REMARK    3  A    between atoms: C_11  and  C_30
REMARK    4  A    between atoms: C_21  and  C_23
REMARK    5  A    between atoms: N_32  and  C_33
REMARK    6  A    between atoms: C_33  and  C_34
REMARK    7  A    between atoms: C_34  and  N_35
REMARK    8  A    between atoms: N_35  and  C_36
REMARK    9  A    between atoms: N_35  and  C_37
REMARK                            x       y       z     vdW  Elec       q    Type
REMARK                         _______ _______ _______ _____ _____    ______ ____
ROOT
ATOM      1  C   UNL     1       0.491  -4.353   0.470  0.00  0.00    +0.249 C 
ATOM      2  O   UNL     1       0.617  -4.502  -0.729  0.00  0.00    -0.270 OA
ATOM      3  N   UNL     1       0.544  -5.421   1.291  0.00  0.00    -0.255 N 
ATOM      4  C   UNL     1       0.321  -5.430   2.754  0.00  0.00    +0.190 C 
ATOM      5  C   UNL     1      -0.034  -6.912   3.037  0.00  0.00    +0.194 C 
ATOM      6  O   UNL     1       0.816  -7.617   2.103  0.00  0.00    -0.353 OA
ATOM      7  C   UNL     1       0.828  -6.813   0.913  0.00  0.00    +0.142 C 
ATOM      8  C   UNL     1      -0.244  -7.312  -0.056  0.00  0.00    +0.074 C 
ATOM      9  C   UNL     1      -0.245  -6.431  -1.310  0.00  0.00    +0.112 C 
ATOM     10  N   UNL     1       1.114  -6.402  -1.868  0.00  0.00    -0.297 N 
ATOM     11  C   UNL     1       2.229  -6.012  -0.994  0.00  0.00    +0.112 C 
ATOM     12  C   UNL     1       2.207  -6.897   0.257  0.00  0.00    +0.074 C 
ATOM     13  C   UNL     1       1.334  -6.726  -3.157  0.00  0.00    +0.247 C 
ATOM     14  O   UNL     1       2.454  -6.641  -3.623  0.00  0.00    -0.270 OA
ENDROOT
BRANCH   1  19
ATOM     15  C   UNL     1      -0.337   0.910   2.646  0.00  0.00    +0.044 C 
ATOM     16  C   UNL     1      -0.120  -0.468   2.076  0.00  0.00    -0.050 A 
ATOM     17  C   UNL     1      -0.248  -0.678   0.715  0.00  0.00    +0.004 A 
ATOM     18  C   UNL     1      -0.051  -1.938   0.187  0.00  0.00    +0.013 A 
ATOM     19  C   UNL     1       0.278  -3.001   1.029  0.00  0.00    +0.037 A 
ATOM     20  C   UNL     1       0.406  -2.782   2.402  0.00  0.00    +0.013 A 
ATOM     21  C   UNL     1       0.211  -1.516   2.917  0.00  0.00    +0.004 A 
ENDBRANCH   1  19
BRANCH  13  22
ATOM     22  C   UNL     1       0.214  -7.185  -4.005  0.00  0.00    +0.037 A 
ATOM     23  C   UNL     1       0.354  -8.331  -4.790  0.00  0.00    +0.016 A 
ATOM     24  C   UNL     1      -0.694  -8.755  -5.579  0.00  0.00    +0.039 A 
ATOM     25  C   UNL     1      -1.885  -8.044  -5.595  0.00  0.00    +0.123 A 
ATOM     26  C   UNL     1      -2.028  -6.905  -4.817  0.00  0.00    +0.039 A 
ATOM     27  C   UNL     1      -0.989  -6.476  -4.020  0.00  0.00    +0.016 A 
ATOM     28  F   UNL     1      -2.908  -8.463  -6.370  0.00  0.00    -0.205 F 
ENDBRANCH  13  22
BRANCH   4  29
ATOM     29  C   UNL     1      -0.822  -4.522   3.127  0.00  0.00    +0.236 C 
ATOM     30  O   UNL     1      -1.661  -4.233   2.300  0.00  0.00    -0.274 OA
ATOM     31  N   UNL     1      -0.913  -4.032   4.379  0.00  0.00    -0.315 N 
ATOM     32  H   UNL     1      -0.243  -4.263   5.040  0.00  0.00    +0.149 HD
BRANCH  31  33
ATOM     33  C   UNL     1      -2.025  -3.149   4.741  0.00  0.00    +0.085 C 
BRANCH  33  34
ATOM     34  C   UNL     1      -1.893  -2.737   6.208  0.00  0.00    -0.061 C 
BRANCH  34  35
ATOM     35  N   UNL     1      -3.008  -1.852   6.571  0.00  0.00    +0.377 N 
ATOM     36  C   UNL     1      -4.271  -2.597   6.489  0.00  0.00    -0.097 C 
ATOM     37  C   UNL     1      -2.817  -1.362   7.942  0.00  0.00    -0.097 C 
ATOM     38  H   UNL     1      -3.037  -1.070   5.935  0.00  0.00    -0.083 HD
ENDBRANCH  34  35
ENDBRANCH  33  34
ENDBRANCH  31  33
ENDBRANCH   4  29
TORSDOF 6
