REMARK  Name = ZINC64789092
REMARK  8 active torsions:
REMARK  status: ('A' for Active; 'I' for Inactive)
REMARK    1  A    between atoms: C_1  and  C_2
REMARK    2  A    between atoms: C_2  and  O_3
REMARK    3  A    between atoms: O_3  and  C_4
REMARK    4  A    between atoms: C_9  and  C_10
REMARK    5  A    between atoms: C_16  and  C_18
REMARK    6  A    between atoms: N_24  and  C_27
REMARK    7  A    between atoms: C_29  and  C_34
REMARK    8  A    between atoms: C_31  and  C_33
REMARK                            x       y       z     vdW  Elec       q    Type
REMARK                         _______ _______ _______ _____ _____    ______ ____
ROOT
ATOM      1  C   UNL     1       2.571   0.764  -4.157  0.00  0.00    +0.136 C 
ATOM      2  C   UNL     1       1.247   0.411  -4.859  0.00  0.00    +0.082 C 
ATOM      3  C   UNL     1       1.671  -0.136  -6.203  0.00  0.00    +0.041 C 
ATOM      4  N   UNL     1       3.010  -0.111  -6.278  0.00  0.00    -0.264 N 
ATOM      5  N   UNL     1       3.613   0.401  -5.127  0.00  0.00    -0.215 N 
ATOM      6  C   UNL     1       4.939   0.540  -4.935  0.00  0.00    +0.229 C 
ATOM      7  O   UNL     1       5.356   0.998  -3.892  0.00  0.00    -0.274 OA
ATOM      8  C   UNL     1       5.905   0.128  -6.016  0.00  0.00    +0.111 C 
ATOM      9  C   UNL     1       0.819  -0.590  -7.193  0.00  0.00    +0.118 C 
ATOM     10  C   UNL     1      -0.644  -0.571  -7.016  0.00  0.00    +0.258 C 
ATOM     11  N   UNL     1      -1.414  -1.029  -8.024  0.00  0.00    -0.235 N 
ATOM     12  C   UNL     1      -0.877  -1.492  -9.162  0.00  0.00    +0.320 C 
ATOM     13  O   UNL     1      -1.626  -1.891 -10.032  0.00  0.00    -0.251 OA
ATOM     14  N   UNL     1       0.443  -1.538  -9.391  0.00  0.00    -0.190 N 
ATOM     15  C   UNL     1       1.333  -1.107  -8.473  0.00  0.00    +0.265 C 
ATOM     16  O   UNL     1       2.529  -1.148  -8.695  0.00  0.00    -0.269 OA
ATOM     17  O   UNL     1      -1.144  -0.154  -5.988  0.00  0.00    -0.270 OA
ATOM     18  H   UNL     1      -2.379  -1.024  -7.924  0.00  0.00    +0.159 HD
ATOM     19  H   UNL     1       3.508  -0.415  -7.052  0.00  0.00    +0.170 HD
ENDROOT
BRANCH  14  20
ATOM     20  C   UNL     1       0.909  -2.039 -10.614  0.00  0.00    +0.046 A 
ATOM     21  C   UNL     1       1.183  -3.393 -10.751  0.00  0.00    +0.027 A 
ATOM     22  C   UNL     1       1.642  -3.885 -11.957  0.00  0.00    -0.048 A 
ATOM     23  C   UNL     1       1.828  -3.030 -13.028  0.00  0.00    +0.006 A 
ATOM     24  C   UNL     1       1.556  -1.681 -12.894  0.00  0.00    -0.048 A 
ATOM     25  C   UNL     1       1.091  -1.184 -11.692  0.00  0.00    +0.027 A 
ATOM     26  C   UNL     1       1.762  -0.752 -14.063  0.00  0.00    +0.044 C 
ATOM     27  C   UNL     1       1.940  -5.355 -12.107  0.00  0.00    +0.044 C 
ENDBRANCH  14  20
BRANCH   1  33
ATOM     28  C   UNL     1       2.092   0.365  -1.728  0.00  0.00    +0.125 A 
ATOM     29  C   UNL     1       2.233  -0.382  -0.567  0.00  0.00    +0.046 A 
ATOM     30  C   UNL     1       3.007  -1.526  -0.572  0.00  0.00    +0.004 A 
ATOM     31  C   UNL     1       3.642  -1.926  -1.734  0.00  0.00    +0.001 A 
ATOM     32  C   UNL     1       3.504  -1.184  -2.892  0.00  0.00    +0.009 A 
ATOM     33  C   UNL     1       2.726  -0.042  -2.893  0.00  0.00    +0.017 A 
BRANCH  28  34
ATOM     34  O   UNL     1       1.331   1.491  -1.725  0.00  0.00    -0.492 OA
BRANCH  34  36
ATOM     35  C   UNL     1      -0.101   3.134  -0.681  0.00  0.00    +0.048 C 
ATOM     36  C   UNL     1       0.708   1.850  -0.490  0.00  0.00    +0.225 C 
ENDBRANCH  34  36
ENDBRANCH  28  34
ENDBRANCH   1  33
TORSDOF 4
