REMARK  Name = ZINC16608078
REMARK  8 active torsions:
REMARK  status: ('A' for Active; 'I' for Inactive)
REMARK    1  A    between atoms: C_1  and  C_2
REMARK    2  A    between atoms: N_6  and  C_32
REMARK    3  A    between atoms: N_15  and  C_18
REMARK    4  A    between atoms: C_18  and  N_19
REMARK    5  A    between atoms: C_22  and  C_25
REMARK    6  A    between atoms: C_25  and  C_26
REMARK    7  A    between atoms: C_35  and  O_38
REMARK    8  A    between atoms: O_38  and  C_39
REMARK                            x       y       z     vdW  Elec       q    Type
REMARK                         _______ _______ _______ _____ _____    ______ ____
ROOT
ATOM      1  C   UNL     1      -0.907   0.916  -0.306  0.00  0.00    +0.029 C 
ATOM      2  C   UNL     1      -0.293  -0.447   0.022  0.00  0.00    +0.132 C 
ATOM      3  C   UNL     1       0.463  -1.012  -1.172  0.00  0.00    +0.234 C 
ATOM      4  O   UNL     1      -0.030  -1.026  -2.281  0.00  0.00    -0.274 OA
ATOM      5  N   UNL     1       1.687  -1.491  -0.954  0.00  0.00    -0.243 N 
ATOM      6  C   UNL     1       2.232  -1.436   0.399  0.00  0.00    +0.193 C 
ATOM      7  S   UNL     1       1.081  -0.284   1.245  0.00  0.00    -0.108 S 
ATOM      8  C   UNL     1       3.639  -0.927   0.454  0.00  0.00    +0.017 A 
ATOM      9  C   UNL     1       4.258   0.220   0.009  0.00  0.00    +0.009 A 
ATOM     10  C   UNL     1       5.614   0.402   0.218  0.00  0.00    +0.000 A 
ATOM     11  C   UNL     1       6.346  -0.571   0.875  0.00  0.00    +0.002 A 
ATOM     12  C   UNL     1       5.730  -1.721   1.323  0.00  0.00    +0.024 A 
ATOM     13  C   UNL     1       4.367  -1.913   1.118  0.00  0.00    +0.041 A 
ATOM     14  N   UNL     1       3.530  -2.974   1.473  0.00  0.00    -0.285 N 
ATOM     15  C   UNL     1       2.255  -2.769   1.085  0.00  0.00    +0.257 C 
ATOM     16  O   UNL     1       1.313  -3.514   1.257  0.00  0.00    -0.272 OA
ENDROOT
BRANCH   5  17
ATOM     17  C   UNL     1       2.436  -2.038  -2.003  0.00  0.00    +0.039 A 
ATOM     18  C   UNL     1       2.435  -3.410  -2.217  0.00  0.00    +0.027 A 
ATOM     19  C   UNL     1       3.174  -3.948  -3.252  0.00  0.00    +0.047 A 
ATOM     20  C   UNL     1       3.918  -3.118  -4.078  0.00  0.00    +0.120 A 
ATOM     21  C   UNL     1       3.920  -1.748  -3.865  0.00  0.00    +0.047 A 
ATOM     22  C   UNL     1       3.177  -1.207  -2.834  0.00  0.00    +0.027 A 
BRANCH  20  23
ATOM     23  O   UNL     1       4.645  -3.649  -5.097  0.00  0.00    -0.495 OA
ATOM     24  C   UNL     1       5.388  -2.736  -5.908  0.00  0.00    +0.277 C 
ENDBRANCH  20  23
ENDBRANCH   5  17
BRANCH  14  25
ATOM     25  C   UNL     1       3.986  -4.171   2.185  0.00  0.00    +0.038 C 
BRANCH  25  26
ATOM     26  N   UNL     1       3.868  -3.954   3.633  0.00  0.00    +0.390 N 
ATOM     27  C   UNL     1       4.781  -2.879   4.041  0.00  0.00    -0.076 C 
ATOM     28  C   UNL     1       4.604  -2.593   5.534  0.00  0.00    -0.015 C 
ATOM     29  C   UNL     1       4.919  -3.862   6.331  0.00  0.00    -0.010 C 
ATOM     30  C   UNL     1       4.012  -4.997   5.846  0.00  0.00    -0.015 C 
ATOM     31  C   UNL     1       4.210  -5.193   4.341  0.00  0.00    -0.076 C 
ATOM     32  H   UNL     1       2.920  -3.691   3.857  0.00  0.00    -0.080 HD
BRANCH  29  33
ATOM     33  C   UNL     1       4.668  -3.607   7.819  0.00  0.00    +0.038 C 
BRANCH  33  34
ATOM     34  C   UNL     1       5.094  -4.814   8.614  0.00  0.00    -0.047 A 
ATOM     35  C   UNL     1       4.190  -5.829   8.867  0.00  0.00    +0.003 A 
ATOM     36  C   UNL     1       4.581  -6.936   9.598  0.00  0.00    +0.000 A 
ATOM     37  C   UNL     1       5.875  -7.028  10.074  0.00  0.00    +0.000 A 
ATOM     38  C   UNL     1       6.779  -6.013   9.820  0.00  0.00    +0.000 A 
ATOM     39  C   UNL     1       6.390  -4.908   9.086  0.00  0.00    +0.003 A 
ENDBRANCH  33  34
ENDBRANCH  29  33
ENDBRANCH  25  26
ENDBRANCH  14  25
TORSDOF 6
