REMARK  Name = ZINC24175074
REMARK  14 active torsions:
REMARK  status: ('A' for Active; 'I' for Inactive)
REMARK    1  A    between atoms: C_1  and  C_2
REMARK    2  A    between atoms: C_3  and  N_9
REMARK    3  A    between atoms: C_4  and  C_8
REMARK    4  A    between atoms: N_5  and  C_7
REMARK    5  A    between atoms: C_10  and  C_12
REMARK    6  A    between atoms: C_12  and  C_14
REMARK    7  A    between atoms: C_12  and  S_15
REMARK    8  A    between atoms: S_15  and  C_16
REMARK    9  A    between atoms: C_19  and  C_22
REMARK   10  A    between atoms: N_20  and  C_21
REMARK   11  A    between atoms: C_29  and  C_32
REMARK   12  A    between atoms: C_32  and  C_33
REMARK   13  A    between atoms: C_32  and  C_34
REMARK   14  A    between atoms: C_32  and  C_35
REMARK                            x       y       z     vdW  Elec       q    Type
REMARK                         _______ _______ _______ _____ _____    ______ ____
ROOT
ATOM      1  C   UNL     1      -5.847   2.664   1.084  0.00  0.00    +0.192 A 
ATOM      2  N   UNL     1      -5.544   3.681   0.311  0.00  0.00    -0.122 NA
ATOM      3  N   UNL     1      -4.274   3.878   0.315  0.00  0.00    -0.128 NA
ATOM      4  C   UNL     1      -3.685   2.992   1.088  0.00  0.00    +0.171 A 
ATOM      5  N   UNL     1      -4.676   2.188   1.607  0.00  0.00    -0.305 N 
ATOM      6  C   UNL     1      -4.510   1.060   2.526  0.00  0.00    +0.153 C 
ENDROOT
BRANCH   4   7
ATOM      7  C   UNL     1      -2.241   2.883   1.352  0.00  0.00    +0.057 A 
ATOM      8  C   UNL     1      -1.195   3.454   0.679  0.00  0.00    +0.023 A 
ATOM      9  C   UNL     1       0.108   3.213   1.098  0.00  0.00    -0.036 A 
ATOM     10  C   UNL     1       0.262   2.410   2.190  0.00  0.00    -0.006 A 
ATOM     11  S   UNL     1      -1.397   1.976   2.640  0.00  0.00    -0.090 S 
ATOM     12  C   UNL     1       1.541   1.999   2.844  0.00  0.00    +0.043 C 
ATOM     13  C   UNL     1       2.698   2.318   1.884  0.00  0.00    +0.009 C 
ATOM     14  C   UNL     1       2.521   3.745   1.357  0.00  0.00    -0.001 C 
ATOM     15  C   UNL     1       1.329   3.806   0.401  0.00  0.00    +0.040 C 
BRANCH  14  16
ATOM     16  C   UNL     1       3.789   4.173   0.616  0.00  0.00    -0.035 C 
ATOM     17  C   UNL     1       4.040   3.224  -0.556  0.00  0.00    +0.011 C 
ATOM     18  C   UNL     1       3.614   5.599   0.089  0.00  0.00    +0.011 C 
ATOM     19  C   UNL     1       4.980   4.127   1.575  0.00  0.00    +0.011 C 
ENDBRANCH  14  16
ENDBRANCH   4   7
BRANCH   1  20
ATOM     20  S   UNL     1      -7.462   2.030   1.392  0.00  0.00    -0.074 S 
BRANCH  20  21
ATOM     21  C   UNL     1      -8.442   3.159   0.372  0.00  0.00    +0.137 C 
ATOM     22  C   UNL     1      -8.085   2.955  -1.101  0.00  0.00    +0.029 C 
BRANCH  21  24
ATOM     23  N   UNL     1     -10.826   3.811   0.261  0.00  0.00    -0.282 N 
ATOM     24  C   UNL     1      -9.908   2.876   0.577  0.00  0.00    +0.230 C 
ATOM     25  O   UNL     1     -10.263   1.807   1.027  0.00  0.00    -0.274 OA
ATOM     26  H   UNL     1     -10.502   4.809  -0.071  0.00  0.00    +0.155 HD
BRANCH  23  29
ATOM     27  C   UNL     1     -12.246   1.529  -1.314  0.00  0.00    +0.069 C 
ATOM     28  C   UNL     1     -12.870   2.493  -0.338  0.00  0.00    +0.081 A 
ATOM     29  C   UNL     1     -12.198   3.511   0.354  0.00  0.00    +0.077 A 
ATOM     30  C   UNL     1     -13.105   4.152   1.135  0.00  0.00    +0.057 A 
ATOM     31  N   UNL     1     -14.310   3.560   0.933  0.00  0.00    -0.270 N 
ATOM     32  N   UNL     1     -14.131   2.523   0.009  0.00  0.00    -0.175 NA
ATOM     33  C   UNL     1     -15.573   3.936   1.574  0.00  0.00    +0.172 C 
ATOM     34  C   UNL     1     -12.825   5.311   2.057  0.00  0.00    +0.067 C 
ENDBRANCH  23  29
ENDBRANCH  21  24
ENDBRANCH  20  21
ENDBRANCH   1  20
TORSDOF 6
