REMARK  Name = ZINC00725681
REMARK  10 active torsions:
REMARK  status: ('A' for Active; 'I' for Inactive)
REMARK    1  A    between atoms: C_1  and  C_2
REMARK    2  A    between atoms: C_2  and  O_3
REMARK    3  A    between atoms: O_3  and  C_4
REMARK    4  A    between atoms: C_4  and  C_6
REMARK    5  A    between atoms: C_7  and  C_35
REMARK    6  A    between atoms: C_11  and  C_13
REMARK    7  A    between atoms: C_15  and  O_21
REMARK    8  A    between atoms: C_16  and  O_20
REMARK    9  A    between atoms: O_21  and  C_22
REMARK   10  A    between atoms: C_26  and  C_29
REMARK                            x       y       z     vdW  Elec       q    Type
REMARK                         _______ _______ _______ _____ _____    ______ ____
ROOT
ATOM      1  C   UNL     1       3.637   1.987  -0.454  0.00  0.00    +0.154 C 
ATOM      2  C   UNL     1       3.557   3.328  -0.422  0.00  0.00    +0.031 C 
ATOM      3  N   UNL     1       2.412   3.944   0.000  0.00  0.00    -0.260 NA
ATOM      4  C   UNL     1       1.222   3.267   0.021  0.00  0.00    +0.049 C 
ATOM      5  C   UNL     1       1.201   1.918   0.000  0.00  0.00    +0.025 C 
ATOM      6  C   UNL     1       2.485   1.127  -0.028  0.00  0.00    +0.074 C 
ATOM      7  C   UNL     1      -0.015   1.211   0.004  0.00  0.00    +0.162 C 
ATOM      8  O   UNL     1       0.002  -0.004  -0.003  0.00  0.00    -0.292 OA
ATOM      9  C   UNL     1      -1.335   1.932   0.011  0.00  0.00    +0.088 C 
ATOM     10  C   UNL     1      -1.166   3.295  -0.662  0.00  0.00    +0.032 C 
ATOM     11  C   UNL     1      -0.058   4.064   0.066  0.00  0.00    +0.064 C 
ATOM     12  C   UNL     1       4.738   4.159  -0.855  0.00  0.00    +0.061 C 
ENDROOT
BRANCH   6  13
ATOM     13  C   UNL     1       2.762   0.586   1.351  0.00  0.00    -0.034 A 
ATOM     14  C   UNL     1       2.857  -0.779   1.550  0.00  0.00    +0.053 A 
ATOM     15  C   UNL     1       3.112  -1.279   2.817  0.00  0.00    +0.163 A 
ATOM     16  C   UNL     1       3.273  -0.405   3.887  0.00  0.00    +0.177 A 
ATOM     17  C   UNL     1       3.177   0.963   3.682  0.00  0.00    +0.086 A 
ATOM     18  C   UNL     1       2.927   1.455   2.413  0.00  0.00    +0.028 A 
ATOM     19 CL   UNL     1       3.377   2.057   5.014  0.00  0.00    -0.080 Cl
BRANCH  16  20
ATOM     20  O   UNL     1       3.524  -0.891   5.132  0.00  0.00    -0.502 OA
ATOM     21  H   UNL     1       4.465  -0.995   5.332  0.00  0.00    +0.292 HD
ENDBRANCH  16  20
BRANCH  15  22
ATOM     22  O   UNL     1       3.205  -2.622   3.013  0.00  0.00    -0.491 OA
ATOM     23  C   UNL     1       3.028  -3.459   1.868  0.00  0.00    +0.277 C 
ENDBRANCH  15  22
ENDBRANCH   6  13
BRANCH  10  24
ATOM     24  C   UNL     1      -2.457   4.067  -0.577  0.00  0.00    -0.044 A 
ATOM     25  C   UNL     1      -3.011   4.354   0.657  0.00  0.00    +0.004 A 
ATOM     26  C   UNL     1      -4.193   5.066   0.735  0.00  0.00    +0.000 A 
ATOM     27  C   UNL     1      -4.827   5.483  -0.421  0.00  0.00    +0.000 A 
ATOM     28  C   UNL     1      -4.275   5.192  -1.655  0.00  0.00    +0.000 A 
ATOM     29  C   UNL     1      -3.091   4.484  -1.733  0.00  0.00    +0.004 A 
ENDBRANCH  10  24
BRANCH   1  30
ATOM     30  C   UNL     1       4.831   1.373  -0.901  0.00  0.00    +0.317 C 
ATOM     31  O   UNL     1       5.773   2.059  -1.252  0.00  0.00    -0.250 OA
BRANCH  30  32
ATOM     32  O   UNL     1       4.925   0.028  -0.938  0.00  0.00    -0.464 OA
BRANCH  32  34
ATOM     33  C   UNL     1       6.079  -2.051  -1.372  0.00  0.00    +0.048 C 
ATOM     34  C   UNL     1       6.160  -0.524  -1.401  0.00  0.00    +0.229 C 
ENDBRANCH  32  34
ENDBRANCH  30  32
ENDBRANCH   1  30
TORSDOF 7
