REMARK  Name = ZINC09592388
REMARK  7 active torsions:
REMARK  status: ('A' for Active; 'I' for Inactive)
REMARK    1  A    between atoms: C_1  and  N_2
REMARK    2  A    between atoms: C_6  and  S_7
REMARK    3  A    between atoms: S_7  and  C_8
REMARK    4  A    between atoms: C_11  and  N_14
REMARK    5  A    between atoms: C_15  and  C_17
REMARK    6  A    between atoms: C_18  and  C_19
REMARK    7  A    between atoms: C_23  and  C_25
REMARK                            x       y       z     vdW  Elec       q    Type
REMARK                         _______ _______ _______ _____ _____    ______ ____
ROOT
ATOM      1  N   UNL     1       5.817   2.880  -0.021  0.00  0.00    -0.282 N 
ATOM      2  C   UNL     1       6.694   1.878  -0.232  0.00  0.00    +0.241 C 
ATOM      3  O   UNL     1       6.297   0.732  -0.325  0.00  0.00    -0.270 OA
ATOM      4  H   UNL     1       6.139   3.784   0.121  0.00  0.00    +0.155 HD
ENDROOT
BRANCH   1   8
ATOM      5  C   UNL     1       1.723   2.091   0.025  0.00  0.00    +0.016 A 
ATOM      6  C   UNL     1       2.194   3.290  -0.497  0.00  0.00    +0.017 A 
ATOM      7  C   UNL     1       3.549   3.553  -0.507  0.00  0.00    +0.024 A 
ATOM      8  C   UNL     1       4.442   2.615  -0.005  0.00  0.00    +0.034 A 
ATOM      9  C   UNL     1       3.972   1.415   0.512  0.00  0.00    +0.024 A 
ATOM     10  C   UNL     1       2.617   1.154   0.527  0.00  0.00    +0.017 A 
BRANCH   5  11
ATOM     11  S   UNL     1      -0.007   1.758   0.044  0.00  0.00    -0.050 S 
BRANCH  11  17
ATOM     12  C   UNL     1      -2.969   2.245   1.433  0.00  0.00    +0.152 C 
ATOM     13  N   UNL     1      -1.720   2.709   2.042  0.00  0.00    -0.311 N 
ATOM     14  C   UNL     1      -1.579   3.383   3.223  0.00  0.00    +0.225 A 
ATOM     15  N   UNL     1      -0.306   3.603   3.394  0.00  0.00    -0.137 NA
ATOM     16  N   UNL     1       0.363   3.113   2.412  0.00  0.00    -0.122 NA
ATOM     17  C   UNL     1      -0.456   2.557   1.549  0.00  0.00    +0.196 A 
ENDBRANCH  11  17
ENDBRANCH   5  11
ENDBRANCH   1   8
BRANCH   2  18
ATOM     18  C   UNL     1       8.123   2.170  -0.349  0.00  0.00    +0.068 C 
ATOM     19  C   UNL     1       9.001   1.167  -0.560  0.00  0.00    +0.013 C 
BRANCH  19  20
ATOM     20  C   UNL     1      10.438   1.460  -0.677  0.00  0.00    -0.024 A 
ATOM     21  C   UNL     1      10.898   2.777  -0.571  0.00  0.00    +0.009 A 
ATOM     22  C   UNL     1      12.245   3.044  -0.682  0.00  0.00    +0.021 A 
ATOM     23  C   UNL     1      13.144   2.011  -0.899  0.00  0.00    +0.053 A 
ATOM     24  C   UNL     1      12.696   0.705  -1.006  0.00  0.00    +0.074 A 
ATOM     25  C   UNL     1      11.351   0.423  -0.891  0.00  0.00    +0.021 A 
ATOM     26 CL   UNL     1      14.839   2.357  -1.038  0.00  0.00    -0.083 Cl
BRANCH  24  27
ATOM     27  C   UNL     1      13.681  -0.411  -1.242  0.00  0.00    +0.419 C 
ATOM     28  F   UNL     1      12.997  -1.629  -1.314  0.00  0.00    -0.166 F 
ATOM     29  F   UNL     1      14.360  -0.186  -2.445  0.00  0.00    -0.166 F 
ATOM     30  F   UNL     1      14.600  -0.453  -0.188  0.00  0.00    -0.166 F 
ENDBRANCH  24  27
ENDBRANCH  19  20
ENDBRANCH   2  18
TORSDOF 6
