REMARK  Name = ZINC13191708
REMARK  12 active torsions:
REMARK  status: ('A' for Active; 'I' for Inactive)
REMARK    1  A    between atoms: C_1  and  N_2
REMARK    2  A    between atoms: N_2  and  C_3
REMARK    3  A    between atoms: N_2  and  C_14
REMARK    4  A    between atoms: C_3  and  C_4
REMARK    5  A    between atoms: C_8  and  O_12
REMARK    6  A    between atoms: C_9  and  O_10
REMARK    7  A    between atoms: O_10  and  C_11
REMARK    8  A    between atoms: O_12  and  C_13
REMARK    9  A    between atoms: C_17  and  S_23
REMARK   10  A    between atoms: C_19  and  N_20
REMARK   11  A    between atoms: S_23  and  N_26
REMARK   12  A    between atoms: C_29  and  C_32
REMARK                            x       y       z     vdW  Elec       q    Type
REMARK                         _______ _______ _______ _____ _____    ______ ____
ROOT
ATOM      1  C   UNL     1       1.181   1.788   0.000  0.00  0.00    +0.060 A 
ATOM      2  C   UNL     1      -0.013   1.076   0.008  0.00  0.00    +0.027 A 
ATOM      3  C   UNL     1      -1.217   1.751   0.017  0.00  0.00    +0.030 A 
ATOM      4  C   UNL     1      -1.237   3.134   0.030  0.00  0.00    +0.108 A 
ATOM      5  C   UNL     1      -0.051   3.845   0.022  0.00  0.00    +0.063 A 
ATOM      6  C   UNL     1       1.157   3.176   0.008  0.00  0.00    +0.149 A 
ENDROOT
BRANCH   6   7
ATOM      7  N   UNL     1       2.426   3.939   0.000  0.00  0.00    +0.058 N 
ATOM      8  O   UNL     1       2.405   5.156   0.006  0.00  0.00    -0.126 OA
ATOM      9  O   UNL     1       3.491   3.348  -0.013  0.00  0.00    -0.126 OA
ENDBRANCH   6   7
BRANCH   4  10
ATOM     10  S   UNL     1      -2.776   3.991   0.048  0.00  0.00    +0.061 S 
ATOM     11  O   UNL     1      -3.732   3.097   0.604  0.00  0.00    -0.153 OA
ATOM     12  O   UNL     1      -2.520   5.274   0.603  0.00  0.00    -0.153 OA
BRANCH  10  13
ATOM     13  N   UNL     1      -3.219   4.237  -1.528  0.00  0.00    -0.177 NA
ATOM     14  C   UNL     1      -2.809   5.455  -2.239  0.00  0.00    +0.110 C 
ATOM     15  C   UNL     1      -4.048   6.129  -2.828  0.00  0.00    +0.032 C 
ATOM     16  C   UNL     1      -4.810   5.122  -3.692  0.00  0.00    +0.105 C 
ATOM     17  C   UNL     1      -5.263   3.944  -2.828  0.00  0.00    +0.032 C 
ATOM     18  C   UNL     1      -4.034   3.244  -2.241  0.00  0.00    +0.110 C 
BRANCH  16  19
ATOM     19  C   UNL     1      -6.016   5.793  -4.299  0.00  0.00    +0.359 C 
ATOM     20  O   UNL     1      -7.123   5.372  -4.063  0.00  0.00    -0.246 OA
ATOM     21  O   UNL     1      -5.859   6.858  -5.101  0.00  0.00    -0.246 OA
ENDBRANCH  16  19
ENDBRANCH  10  13
ENDBRANCH   4  10
BRANCH   1  23
ATOM     22  C   UNL     1       2.557   0.332  -1.251  0.00  0.00    +0.129 C 
ATOM     23  N   UNL     1       2.401   1.108  -0.014  0.00  0.00    -0.327 N 
BRANCH  23  24
ATOM     24  C   UNL     1       2.538   0.247   1.169  0.00  0.00    +0.143 C 
BRANCH  24  25
ATOM     25  C   UNL     1       3.949  -0.275   1.248  0.00  0.00    +0.015 A 
ATOM     26  C   UNL     1       4.238  -1.556   0.813  0.00  0.00    +0.009 A 
ATOM     27  C   UNL     1       5.531  -2.038   0.885  0.00  0.00    +0.004 A 
ATOM     28  C   UNL     1       6.542  -1.242   1.392  0.00  0.00    +0.049 A 
ATOM     29  C   UNL     1       6.260   0.041   1.830  0.00  0.00    +0.162 A 
ATOM     30  C   UNL     1       4.958   0.529   1.753  0.00  0.00    +0.166 A 
BRANCH  30  31
ATOM     31  O   UNL     1       4.677   1.790   2.177  0.00  0.00    -0.491 OA
ATOM     32  C   UNL     1       4.312   1.947   3.550  0.00  0.00    +0.277 C 
ENDBRANCH  30  31
BRANCH  29  33
ATOM     33  O   UNL     1       7.253   0.825   2.329  0.00  0.00    -0.491 OA
ATOM     34  C   UNL     1       8.565   0.261   2.372  0.00  0.00    +0.277 C 
ENDBRANCH  29  33
ENDBRANCH  24  25
ENDBRANCH  23  24
ENDBRANCH   1  23
TORSDOF 9
