REMARK  Name = ZINC13298094
REMARK  13 active torsions:
REMARK  status: ('A' for Active; 'I' for Inactive)
REMARK    1  A    between atoms: C_1  and  C_2
REMARK    2  A    between atoms: C_3  and  C_17
REMARK    3  A    between atoms: C_4  and  C_16
REMARK    4  A    between atoms: N_5  and  C_7
REMARK    5  A    between atoms: C_7  and  C_8
REMARK    6  A    between atoms: C_18  and  C_19
REMARK    7  A    between atoms: C_19  and  O_21
REMARK    8  A    between atoms: O_21  and  C_22
REMARK    9  A    between atoms: C_22  and  C_23
REMARK   10  A    between atoms: C_23  and  C_25
REMARK   11  A    between atoms: C_25  and  C_27
REMARK   12  A    between atoms: C_25  and  C_29
REMARK   13  A    between atoms: C_29  and  C_30
REMARK                            x       y       z     vdW  Elec       q    Type
REMARK                         _______ _______ _______ _____ _____    ______ ____
ROOT
ATOM      1  C   UNL     1      -3.288   0.464  -4.569  0.00  0.00    +0.068 C 
ATOM      2  C   UNL     1      -3.094   1.168  -3.251  0.00  0.00    +0.067 A 
ATOM      3  C   UNL     1      -3.078   0.556  -1.976  0.00  0.00    +0.018 A 
ATOM      4  C   UNL     1      -2.875   1.558  -1.045  0.00  0.00    +0.044 A 
ATOM      5  N   UNL     1      -2.773   2.716  -1.719  0.00  0.00    -0.263 N 
ATOM      6  N   UNL     1      -2.918   2.450  -3.085  0.00  0.00    -0.175 NA
ATOM      7  C   UNL     1      -2.783   1.384   0.449  0.00  0.00    +0.066 C 
ENDROOT
BRANCH   3   8
ATOM      8  C   UNL     1      -3.246  -0.876  -1.694  0.00  0.00    +0.018 C 
ATOM      9  C   UNL     1      -4.284  -1.554  -2.233  0.00  0.00    +0.092 C 
BRANCH   9  10
ATOM     10  C   UNL     1      -4.445  -2.934  -1.960  0.00  0.00    +0.332 C 
ATOM     11  O   UNL     1      -3.650  -3.510  -1.242  0.00  0.00    -0.246 OA
BRANCH  10  12
ATOM     12  O   UNL     1      -5.481  -3.611  -2.498  0.00  0.00    -0.454 OA
BRANCH  12  13
ATOM     13  C   UNL     1      -5.583  -5.001  -2.182  0.00  0.00    +0.308 C 
BRANCH  13  14
ATOM     14  C   UNL     1      -6.792  -5.585  -2.866  0.00  0.00    +0.193 C 
ATOM     15  O   UNL     1      -7.493  -4.884  -3.555  0.00  0.00    -0.292 OA
BRANCH  14  16
ATOM     16  C   UNL     1      -7.124  -7.045  -2.692  0.00  0.00    +0.202 C 
BRANCH  16  17
ATOM     17  C   UNL     1      -8.600  -7.254  -2.916  0.00  0.00    +0.008 C 
ATOM     18  C   UNL     1      -9.211  -8.613  -2.690  0.00  0.00    +0.059 C 
ATOM     19  H   UNL     1     -10.293  -6.313  -3.471  0.00  0.00    +0.155 HD
ATOM     20  N   UNL     1      -9.290  -6.223  -3.305  0.00  0.00    -0.404 N 
ATOM     21  H   UNL     1      -8.826  -5.317  -3.445  0.00  0.00    +0.155 HD
ENDBRANCH  16  17
BRANCH  16  22
ATOM     22  C   UNL     1      -6.362  -7.842  -3.667  0.00  0.00    +0.080 C 
ATOM     23  N   UNL     1      -5.773  -8.457  -4.419  0.00  0.00    -0.195 NA
ENDBRANCH  16  22
ENDBRANCH  14  16
ENDBRANCH  13  14
ENDBRANCH  12  13
ENDBRANCH  10  12
ENDBRANCH   9  10
ENDBRANCH   3   8
BRANCH   5  24
ATOM     24  C   UNL     1      -2.553   4.037  -1.124  0.00  0.00    +0.181 C 
BRANCH  24  25
ATOM     25  C   UNL     1      -3.874   4.745  -0.970  0.00  0.00    +0.010 A 
ATOM     26  C   UNL     1      -4.412   5.446  -2.034  0.00  0.00    +0.047 A 
ATOM     27  C   UNL     1      -5.628   6.091  -1.894  0.00  0.00    +0.020 A 
ATOM     28  C   UNL     1      -6.300   6.045  -0.688  0.00  0.00    +0.003 A 
ATOM     29  C   UNL     1      -5.761   5.349   0.378  0.00  0.00    +0.020 A 
ATOM     30  C   UNL     1      -4.548   4.699   0.238  0.00  0.00    +0.047 A 
ATOM     31 CL   UNL     1      -3.871   3.825   1.576  0.00  0.00    -0.083 Cl
ATOM     32 CL   UNL     1      -3.564   5.510  -3.548  0.00  0.00    -0.083 Cl
ENDBRANCH  24  25
ENDBRANCH   5  24
TORSDOF 10
