REMARK  Name = ZINC20563814
REMARK  11 active torsions:
REMARK  status: ('A' for Active; 'I' for Inactive)
REMARK    1  A    between atoms: C_1  and  C_2
REMARK    2  A    between atoms: C_2  and  C_3
REMARK    3  A    between atoms: C_3  and  C_5
REMARK    4  A    between atoms: C_3  and  N_16
REMARK    5  A    between atoms: N_7  and  C_8
REMARK    6  A    between atoms: C_8  and  C_9
REMARK    7  A    between atoms: C_9  and  C_10
REMARK    8  A    between atoms: C_21  and  C_23
REMARK    9  A    between atoms: C_24  and  C_34
REMARK   10  A    between atoms: N_25  and  C_27
REMARK   11  A    between atoms: C_30  and  C_33
REMARK                            x       y       z     vdW  Elec       q    Type
REMARK                         _______ _______ _______ _____ _____    ______ ____
ROOT
ATOM      1  N   UNL     1      -2.596   1.153  -0.106  0.00  0.00    -0.215 N 
ATOM      2  C   UNL     1      -3.416   1.108   0.965  0.00  0.00    +0.296 A 
ATOM      3  O   UNL     1      -3.300   1.914   1.870  0.00  0.00    -0.264 OA
ATOM      4  C   UNL     1      -4.453   0.071   1.014  0.00  0.00    +0.161 A 
ATOM      5  C   UNL     1      -4.522  -0.870  -0.121  0.00  0.00    +0.051 A 
ATOM      6  C   UNL     1      -3.565  -0.706  -1.212  0.00  0.00    +0.070 A 
ATOM      7  N   UNL     1      -2.687   0.250  -1.162  0.00  0.00    -0.172 NA
ATOM      8  C   UNL     1      -3.597  -1.643  -2.392  0.00  0.00    +0.068 C 
ATOM      9  C   UNL     1      -5.559  -1.712   0.193  0.00  0.00    +0.052 A 
ATOM     10  N   UNL     1      -6.044  -1.307   1.385  0.00  0.00    -0.236 N 
ATOM     11  N   UNL     1      -5.404  -0.289   1.841  0.00  0.00    -0.161 NA
ATOM     12  C   UNL     1      -6.059  -2.868  -0.635  0.00  0.00    +0.066 C 
ENDROOT
BRANCH  10  13
ATOM     13  C   UNL     1      -7.116  -1.920   2.046  0.00  0.00    +0.066 A 
ATOM     14  C   UNL     1      -8.091  -1.145   2.660  0.00  0.00    +0.028 A 
ATOM     15  C   UNL     1      -9.150  -1.752   3.305  0.00  0.00    +0.005 A 
ATOM     16  C   UNL     1      -9.234  -3.132   3.351  0.00  0.00    -0.050 A 
ATOM     17  C   UNL     1      -8.262  -3.907   2.747  0.00  0.00    +0.005 A 
ATOM     18  C   UNL     1      -7.203  -3.305   2.094  0.00  0.00    +0.028 A 
ATOM     19  C   UNL     1     -10.387  -3.792   4.062  0.00  0.00    +0.044 C 
ENDBRANCH  10  13
BRANCH   1  20
ATOM     20  C   UNL     1      -1.564   2.192  -0.157  0.00  0.00    +0.196 C 
BRANCH  20  21
ATOM     21  C   UNL     1      -0.204   1.546  -0.226  0.00  0.00    +0.238 C 
ATOM     22  O   UNL     1      -0.107   0.337  -0.232  0.00  0.00    -0.273 OA
ATOM     23  N   UNL     1       0.903   2.312  -0.286  0.00  0.00    -0.313 N 
ATOM     24  H   UNL     1       0.815   3.408  -0.281  0.00  0.00    +0.149 HD
BRANCH  23  25
ATOM     25  C   UNL     1       2.225   1.684  -0.359  0.00  0.00    +0.108 C 
BRANCH  25  26
ATOM     26  C   UNL     1       3.302   2.769  -0.418  0.00  0.00    +0.049 C 
BRANCH  26  27
ATOM     27  C   UNL     1       4.662   2.123  -0.493  0.00  0.00    -0.072 C 
ATOM     28  C   UNL     1       5.189   1.954  -1.663  0.00  0.00    -0.028 C 
ATOM     29  C   UNL     1       6.529   1.318  -1.897  0.00  0.00    +0.027 C 
ATOM     30  C   UNL     1       7.337   1.298  -0.598  0.00  0.00    +0.004 C 
ATOM     31  C   UNL     1       6.452   0.725   0.515  0.00  0.00    +0.005 C 
ATOM     32  C   UNL     1       5.322   1.722   0.793  0.00  0.00    +0.030 C 
ENDBRANCH  26  27
ENDBRANCH  25  26
ENDBRANCH  23  25
ENDBRANCH  20  21
BRANCH  20  34
ATOM     33  C   UNL     1      -3.104   3.816  -1.267  0.00  0.00    +0.006 C 
ATOM     34  C   UNL     1      -1.778   3.063  -1.396  0.00  0.00    +0.033 C 
ENDBRANCH  20  34
ENDBRANCH   1  20
TORSDOF 7
