REMARK  Name = ZINC12881198
REMARK  5 active torsions:
REMARK  status: ('A' for Active; 'I' for Inactive)
REMARK    1  A    between atoms: C_1  and  C_2
REMARK    2  A    between atoms: C_22  and  C_29
REMARK    3  A    between atoms: C_29  and  C_31
REMARK    4  A    between atoms: C_36  and  O_37
REMARK    5  A    between atoms: O_37  and  C_38
REMARK                            x       y       z     vdW  Elec       q    Type
REMARK                         _______ _______ _______ _____ _____    ______ ____
ROOT
ATOM      1  C   UNL     1       6.126   1.532  -3.844  0.00  0.00    +0.044 C 
ATOM      2  C   UNL     1       4.898   2.393  -3.694  0.00  0.00    -0.050 A 
ATOM      3  C   UNL     1       4.053   2.588  -4.772  0.00  0.00    +0.005 A 
ATOM      4  C   UNL     1       2.927   3.375  -4.641  0.00  0.00    +0.024 A 
ATOM      5  C   UNL     1       2.633   3.979  -3.420  0.00  0.00    +0.036 A 
ATOM      6  C   UNL     1       3.491   3.776  -2.344  0.00  0.00    -0.026 A 
ATOM      7  C   UNL     1       4.614   2.990  -2.479  0.00  0.00    +0.008 A 
ATOM      8  C   UNL     1       2.905   4.550  -1.194  0.00  0.00    +0.060 C 
ATOM      9  C   UNL     1       1.655   5.181  -1.754  0.00  0.00    +0.212 C 
ATOM     10  O   UNL     1       0.874   5.892  -1.158  0.00  0.00    -0.277 OA
ATOM     11  N   UNL     1       1.572   4.804  -3.043  0.00  0.00    -0.286 N 
ATOM     12  C   UNL     1       2.580   3.637  -0.015  0.00  0.00    +0.085 C 
ATOM     13  C   UNL     1       1.149   3.192  -0.012  0.00  0.00    -0.011 A 
ATOM     14  C   UNL     1      -0.056   3.859   0.002  0.00  0.00    +0.006 A 
ATOM     15  C   UNL     1      -1.243   3.148  -0.004  0.00  0.00    +0.000 A 
ATOM     16  C   UNL     1      -1.217   1.766  -0.027  0.00  0.00    +0.002 A 
ATOM     17  C   UNL     1      -0.013   1.092  -0.035  0.00  0.00    +0.023 A 
ATOM     18  C   UNL     1       1.186   1.800  -0.030  0.00  0.00    +0.038 A 
ATOM     19  N   UNL     1       2.510   1.352  -0.041  0.00  0.00    -0.285 N 
ATOM     20  C   UNL     1       3.390   2.372  -0.036  0.00  0.00    +0.228 C 
ATOM     21  O   UNL     1       4.600   2.285  -0.046  0.00  0.00    -0.275 OA
ATOM     22  C   UNL     1       2.912   4.493   1.223  0.00  0.00    +0.066 C 
ATOM     23  C   UNL     1       4.127   5.312   0.718  0.00  0.00    -0.055 C 
ATOM     24  C   UNL     1       3.174   6.927  -0.734  0.00  0.00    -0.076 C 
ATOM     25  C   UNL     1       3.918   7.725   0.363  0.00  0.00    -0.020 C 
ATOM     26  C   UNL     1       4.170   6.660   1.454  0.00  0.00    -0.016 C 
ATOM     27  H   UNL     1       0.857   5.073  -3.641  0.00  0.00    +0.155 HD
ATOM     28  H   UNL     1       2.765   0.416  -0.050  0.00  0.00    +0.155 HD
ATOM     29  N   UNL     1       3.827   5.597  -0.678  0.00  0.00    +0.395 N 
ATOM     30  H   UNL     1       4.690   5.606  -1.234  0.00  0.00    -0.079 HD
ENDROOT
BRANCH  22  31
ATOM     31  C   UNL     1       1.761   5.398   1.579  0.00  0.00    +0.169 C 
ATOM     32  O   UNL     1       1.735   6.537   1.164  0.00  0.00    -0.292 OA
BRANCH  31  33
ATOM     33  C   UNL     1       0.672   4.900   2.428  0.00  0.00    +0.059 A 
ATOM     34  C   UNL     1       0.698   3.586   2.909  0.00  0.00    +0.015 A 
ATOM     35  C   UNL     1      -0.328   3.127   3.705  0.00  0.00    +0.001 A 
ATOM     36  C   UNL     1      -1.387   3.959   4.033  0.00  0.00    +0.004 A 
ATOM     37  C   UNL     1      -1.426   5.258   3.565  0.00  0.00    +0.046 A 
ATOM     38  C   UNL     1      -0.401   5.742   2.767  0.00  0.00    +0.131 A 
BRANCH  38  39
ATOM     39  O   UNL     1      -0.435   7.018   2.312  0.00  0.00    -0.494 OA
ATOM     40  C   UNL     1      -1.558   7.814   2.698  0.00  0.00    +0.277 C 
ENDBRANCH  38  39
ENDBRANCH  31  33
ENDBRANCH  22  31
TORSDOF 3
