REMARK  Name = ZINC26920015
REMARK  8 active torsions:
REMARK  status: ('A' for Active; 'I' for Inactive)
REMARK    1  A    between atoms: C_1  and  C_2
REMARK    2  A    between atoms: C_5  and  C_32
REMARK    3  A    between atoms: C_6  and  N_8
REMARK    4  A    between atoms: C_9  and  C_11
REMARK    5  A    between atoms: C_12  and  C_31
REMARK    6  A    between atoms: C_17  and  C_19
REMARK    7  A    between atoms: C_28  and  O_29
REMARK    8  A    between atoms: O_29  and  C_30
REMARK                            x       y       z     vdW  Elec       q    Type
REMARK                         _______ _______ _______ _____ _____    ______ ____
ROOT
ATOM      1  C   UNL     1       3.015   3.972   1.501  0.00  0.00    +0.056 C 
ATOM      2  C   UNL     1       4.342   4.041   1.737  0.00  0.00    +0.017 C 
ATOM      3  N   UNL     1       5.238   3.413   0.919  0.00  0.00    -0.300 N 
ATOM      4  C   UNL     1       4.885   2.696  -0.156  0.00  0.00    +0.135 C 
ATOM      5  S   UNL     1       6.111   1.960  -1.098  0.00  0.00    -0.019 S 
ATOM      6  N   UNL     1       3.598   2.536  -0.520  0.00  0.00    -0.315 N 
ATOM      7  C   UNL     1       2.553   3.174   0.299  0.00  0.00    +0.143 C 
ATOM      8  C   UNL     1       4.845   4.824   2.923  0.00  0.00    +0.061 C 
ATOM      9  H   UNL     1       6.315   3.481   1.128  0.00  0.00    +0.154 HD
ATOM     10  H   UNL     1       3.319   1.945  -1.405  0.00  0.00    +0.149 HD
ENDROOT
BRANCH   7  11
ATOM     11  C   UNL     1       1.621   2.095   0.787  0.00  0.00    +0.027 A 
ATOM     12  C   UNL     1       0.231   2.281   0.723  0.00  0.00    -0.009 A 
ATOM     13  C   UNL     1      -0.324   3.466   0.207  0.00  0.00    +0.009 A 
ATOM     14  C   UNL     1      -1.676   3.611   0.159  0.00  0.00    +0.001 A 
ATOM     15  C   UNL     1      -2.523   2.603   0.616  0.00  0.00    +0.001 A 
ATOM     16  C   UNL     1      -2.022   1.443   1.122  0.00  0.00    +0.008 A 
ATOM     17  C   UNL     1      -0.631   1.256   1.187  0.00  0.00    -0.017 A 
ATOM     18  C   UNL     1      -0.079   0.068   1.698  0.00  0.00    +0.012 A 
ATOM     19  C   UNL     1       1.272  -0.079   1.751  0.00  0.00    +0.046 A 
ATOM     20  C   UNL     1       2.124   0.931   1.294  0.00  0.00    +0.126 A 
BRANCH  20  21
ATOM     21  O   UNL     1       3.470   0.752   1.355  0.00  0.00    -0.495 OA
ATOM     22  C   UNL     1       3.936  -0.486   1.895  0.00  0.00    +0.277 C 
ENDBRANCH  20  21
ENDBRANCH   7  11
BRANCH   1  24
ATOM     23  N   UNL     1       1.709   4.044   3.506  0.00  0.00    -0.281 N 
ATOM     24  C   UNL     1       2.086   4.623   2.349  0.00  0.00    +0.248 C 
ATOM     25  O   UNL     1       1.627   5.705   2.032  0.00  0.00    -0.270 OA
ATOM     26  H   UNL     1       2.150   3.083   3.810  0.00  0.00    +0.155 HD
BRANCH  23  32
ATOM     27  C   UNL     1      -0.598   8.136   4.954  0.00  0.00    +0.044 C 
ATOM     28  C   UNL     1      -0.382   6.647   5.044  0.00  0.00    -0.049 A 
ATOM     29  C   UNL     1      -1.126   5.894   5.933  0.00  0.00    +0.004 A 
ATOM     30  C   UNL     1      -0.931   4.528   6.019  0.00  0.00    +0.005 A 
ATOM     31  C   UNL     1       0.005   3.910   5.212  0.00  0.00    -0.029 A 
ATOM     32  C   UNL     1       0.757   4.665   4.322  0.00  0.00    +0.037 A 
ATOM     33  C   UNL     1       0.559   6.037   4.238  0.00  0.00    +0.027 A 
ATOM     34  C   UNL     1       0.214   2.421   5.302  0.00  0.00    +0.045 C 
ENDBRANCH  23  32
ENDBRANCH   1  24
TORSDOF 4
