REMARK  Name = ZINC15228085
REMARK  7 active torsions:
REMARK  status: ('A' for Active; 'I' for Inactive)
REMARK    1  A    between atoms: C_1  and  C_2
REMARK    2  A    between atoms: C_4  and  C_16
REMARK    3  A    between atoms: C_5  and  C_15
REMARK    4  A    between atoms: N_6  and  C_7
REMARK    5  A    between atoms: N_17  and  N_18
REMARK    6  A    between atoms: C_19  and  C_21
REMARK    7  A    between atoms: C_21  and  N_22
REMARK                            x       y       z     vdW  Elec       q    Type
REMARK                         _______ _______ _______ _____ _____    ______ ____
ROOT
ATOM      1  N   UNL     1      -4.408  -1.456   1.744  0.00  0.00    -0.206 N 
ATOM      2  C   UNL     1      -4.015  -0.195   1.473  0.00  0.00    +0.250 C 
ATOM      3  O   UNL     1      -3.463   0.465   2.329  0.00  0.00    -0.272 OA
ATOM      4  H   UNL     1      -4.849  -1.984   1.060  0.00  0.00    +0.177 HD
ENDROOT
BRANCH   1   6
ATOM      5  C   UNL     1      -4.454  -3.252   3.240  0.00  0.00    +0.140 C 
ATOM      6  N   UNL     1      -4.179  -2.004   3.013  0.00  0.00    -0.188 NA
BRANCH   5  10
ATOM      7  C   UNL     1      -4.948  -5.209  -1.449  0.00  0.00    +0.064 C 
ATOM      8  C   UNL     1      -5.013  -4.992   0.041  0.00  0.00    +0.022 A 
ATOM      9  C   UNL     1      -4.514  -3.930   0.700  0.00  0.00    +0.032 A 
ATOM     10  C   UNL     1      -4.806  -4.144   2.121  0.00  0.00    +0.016 A 
ATOM     11  C   UNL     1      -5.462  -5.339   2.201  0.00  0.00    +0.030 A 
ATOM     12  N   UNL     1      -5.588  -5.842   0.943  0.00  0.00    -0.316 N 
ATOM     13  C   UNL     1      -5.964  -5.988   3.465  0.00  0.00    +0.064 C 
BRANCH  12  14
ATOM     14  C   UNL     1      -6.211  -7.055   0.620  0.00  0.00    +0.066 A 
ATOM     15  C   UNL     1      -5.471  -8.229   0.583  0.00  0.00    +0.028 A 
ATOM     16  C   UNL     1      -6.088  -9.424   0.270  0.00  0.00    +0.004 A 
ATOM     17  C   UNL     1      -7.440  -9.453  -0.018  0.00  0.00    +0.021 A 
ATOM     18  C   UNL     1      -8.181  -8.284   0.013  0.00  0.00    +0.061 A 
ATOM     19  C   UNL     1      -7.570  -7.085   0.331  0.00  0.00    +0.083 A 
ATOM     20 CL   UNL     1      -8.499  -5.619   0.370  0.00  0.00    -0.080 Cl
ATOM     21 CL   UNL     1      -9.878  -8.324  -0.349  0.00  0.00    -0.082 Cl
ENDBRANCH  12  14
ENDBRANCH   5  10
ENDBRANCH   1   6
BRANCH   2  22
ATOM     22  C   UNL     1      -4.261   0.394   0.108  0.00  0.00    +0.211 C 
BRANCH  22  23
ATOM     23  N   UNL     1      -3.746   1.765   0.068  0.00  0.00    -0.258 N 
ATOM     24  C   UNL     1      -2.455   2.117  -0.304  0.00  0.00    +0.046 A 
ATOM     25  C   UNL     1      -1.309   1.465  -0.721  0.00  0.00    +0.024 A 
ATOM     26  C   UNL     1      -0.161   2.197  -1.021  0.00  0.00    +0.002 A 
ATOM     27  C   UNL     1      -0.092   3.560  -0.920  0.00  0.00    +0.008 A 
ATOM     28  C   UNL     1      -1.233   4.259  -0.495  0.00  0.00    -0.015 A 
ATOM     29  C   UNL     1      -2.368   3.502  -0.203  0.00  0.00    +0.016 A 
ATOM     30  C   UNL     1      -3.588   4.042   0.232  0.00  0.00    +0.047 A 
ATOM     31  C   UNL     1      -3.645   5.417   0.372  0.00  0.00    +0.014 A 
ATOM     32  C   UNL     1      -2.520   6.189   0.084  0.00  0.00    +0.001 A 
ATOM     33  C   UNL     1      -1.333   5.652  -0.340  0.00  0.00    +0.008 A 
ATOM     34  C   UNL     1      -4.458   2.873   0.405  0.00  0.00    +0.252 C 
ATOM     35  O   UNL     1      -5.618   2.893   0.775  0.00  0.00    -0.270 OA
ENDBRANCH  22  23
ENDBRANCH   2  22
TORSDOF 5
