REMARK  Name = ZINC32961252
REMARK  7 active torsions:
REMARK  status: ('A' for Active; 'I' for Inactive)
REMARK    1  A    between atoms: C_1  and  C_2
REMARK    2  A    between atoms: C_2  and  C_3
REMARK    3  A    between atoms: C_2  and  S_4
REMARK    4  A    between atoms: S_4  and  C_7
REMARK    5  A    between atoms: C_15  and  C_16
REMARK    6  A    between atoms: C_19  and  C_21
REMARK    7  A    between atoms: C_24  and  N_27
REMARK                            x       y       z     vdW  Elec       q    Type
REMARK                         _______ _______ _______ _____ _____    ______ ____
ROOT
ATOM      1  C   UNL     1      -0.331  -1.485   0.214  0.00  0.00    +0.257 C 
ATOM      2  N   UNL     1      -0.051  -1.715   1.459  0.00  0.00    -0.174 NA
ATOM      3  S   UNL     1      -0.172  -3.380   1.609  0.00  0.00    +0.049 S 
ATOM      4  C   UNL     1      -0.537  -3.768   0.030  0.00  0.00    +0.183 C 
ATOM      5  N   UNL     1      -0.709  -4.940  -0.538  0.00  0.00    -0.152 NA
ATOM      6  C   UNL     1      -0.936  -5.007  -1.864  0.00  0.00    +0.273 C 
ATOM      7  O   UNL     1      -1.231  -6.066  -2.395  0.00  0.00    -0.268 OA
ATOM      8  C   UNL     1      -0.820  -3.765  -2.662  0.00  0.00    +0.080 C 
ATOM      9  C   UNL     1      -0.519  -3.791  -4.015  0.00  0.00    +0.062 C 
ATOM     10  C   UNL     1      -1.043  -2.488  -1.931  0.00  0.00    +0.117 C 
ATOM     11  N   UNL     1      -1.572  -1.427  -2.482  0.00  0.00    -0.386 N 
ATOM     12  N   UNL     1      -0.634  -2.537  -0.584  0.00  0.00    -0.203 N 
ATOM     13  H   UNL     1      -1.719  -1.401  -3.441  0.00  0.00    +0.157 HD
ATOM     14  H   UNL     1      -1.817  -0.666  -1.933  0.00  0.00    +0.157 HD
ENDROOT
BRANCH   9  15
ATOM     15  C   UNL     1      -0.105  -4.989  -4.620  0.00  0.00    +0.129 A 
ATOM     16  C   UNL     1       0.075  -5.194  -5.981  0.00  0.00    +0.050 A 
ATOM     17  C   UNL     1       0.488  -6.517  -6.137  0.00  0.00    +0.050 A 
ATOM     18  C   UNL     1       0.547  -7.074  -4.877  0.00  0.00    +0.136 A 
ATOM     19  O   UNL     1       0.193  -6.139  -3.978  0.00  0.00    -0.455 OA
BRANCH  18  20
ATOM     20  C   UNL     1       0.939  -8.462  -4.567  0.00  0.00    +0.017 A 
ATOM     21  C   UNL     1       1.298  -9.336  -5.596  0.00  0.00    +0.014 A 
ATOM     22  C   UNL     1       1.664 -10.632  -5.299  0.00  0.00    +0.033 A 
ATOM     23  C   UNL     1       1.676 -11.067  -3.985  0.00  0.00    +0.126 A 
ATOM     24  C   UNL     1       1.321 -10.207  -2.961  0.00  0.00    +0.033 A 
ATOM     25  C   UNL     1       0.959  -8.906  -3.243  0.00  0.00    +0.014 A 
BRANCH  23  26
ATOM     26  N   UNL     1       2.069 -12.460  -3.674  0.00  0.00    +0.056 N 
ATOM     27  O   UNL     1       2.379 -13.215  -4.566  0.00  0.00    -0.126 OA
ATOM     28  O   UNL     1       2.081 -12.844  -2.527  0.00  0.00    -0.126 OA
ENDBRANCH  23  26
ENDBRANCH  18  20
ENDBRANCH   9  15
BRANCH   1  29
ATOM     29  S   UNL     1      -0.325   0.157  -0.423  0.00  0.00    +0.031 S 
ATOM     30  O   UNL     1      -1.632   0.652  -0.164  0.00  0.00    -0.166 OA
ATOM     31  O   UNL     1       0.149   0.027  -1.757  0.00  0.00    -0.166 OA
BRANCH  29  33
ATOM     32  C   UNL     1       1.104   2.448   0.016  0.00  0.00    +0.032 C 
ATOM     33  C   UNL     1       0.891   1.045   0.588  0.00  0.00    +0.133 C 
ATOM     34  C   UNL     1       0.378   1.153   2.025  0.00  0.00    +0.032 C 
ENDBRANCH  29  33
ENDBRANCH   1  29
TORSDOF 5
