REMARK  Name = ZINC20467177
REMARK  10 active torsions:
REMARK  status: ('A' for Active; 'I' for Inactive)
REMARK    1  A    between atoms: C_1  and  C_2
REMARK    2  A    between atoms: C_4  and  N_31
REMARK    3  A    between atoms: C_8  and  C_30
REMARK    4  A    between atoms: C_11  and  O_29
REMARK    5  A    between atoms: C_13  and  C_17
REMARK    6  A    between atoms: C_17  and  C_19
REMARK    7  A    between atoms: C_17  and  C_20
REMARK    8  A    between atoms: N_22  and  C_23
REMARK    9  A    between atoms: C_23  and  C_24
REMARK   10  A    between atoms: C_32  and  C_34
REMARK                            x       y       z     vdW  Elec       q    Type
REMARK                         _______ _______ _______ _____ _____    ______ ____
ROOT
ATOM      1  C   UNL     1      -2.372  -2.243   3.291  0.00  0.00    +0.010 C 
ATOM      2  C   UNL     1      -3.652  -1.407   3.237  0.00  0.00    +0.012 C 
ATOM      3  C   UNL     1      -4.853  -2.327   3.008  0.00  0.00    +0.076 C 
ATOM      4  C   UNL     1      -6.133  -1.492   2.954  0.00  0.00    +0.023 C 
ATOM      5  C   UNL     1      -6.037  -0.484   1.807  0.00  0.00    +0.009 C 
ATOM      6  C   UNL     1      -4.836   0.436   2.036  0.00  0.00    -0.027 C 
ATOM      7  C   UNL     1      -3.556  -0.399   2.090  0.00  0.00    +0.028 C 
ATOM      8  C   UNL     1      -2.355   0.521   2.320  0.00  0.00    +0.122 C 
ATOM      9  C   UNL     1      -2.259   1.529   1.172  0.00  0.00    +0.029 C 
ATOM     10  C   UNL     1      -3.539   2.365   1.119  0.00  0.00    +0.007 C 
ATOM     11  C   UNL     1      -4.739   1.444   0.889  0.00  0.00    +0.007 C 
ATOM     12  C   UNL     1      -5.013   1.185   3.359  0.00  0.00    +0.011 C 
ENDROOT
BRANCH   3  13
ATOM     13  N   UNL     1      -4.945  -3.292   4.106  0.00  0.00    -0.307 N 
ATOM     14  C   UNL     1      -5.557  -4.478   3.912  0.00  0.00    +0.263 C 
ATOM     15  O   UNL     1      -6.032  -4.746   2.826  0.00  0.00    -0.269 OA
ATOM     16  H   UNL     1      -4.516  -3.050   5.089  0.00  0.00    +0.149 HD
BRANCH  14  17
ATOM     17  C   UNL     1      -5.650  -5.454   5.023  0.00  0.00    +0.125 A 
ATOM     18  C   UNL     1      -6.284  -6.677   4.816  0.00  0.00    +0.033 A 
ATOM     19  C   UNL     1      -6.363  -7.580   5.865  0.00  0.00    +0.004 A 
ATOM     20  C   UNL     1      -5.806  -7.228   7.084  0.00  0.00    +0.020 A 
ATOM     21  C   UNL     1      -5.191  -5.993   7.219  0.00  0.00    +0.111 A 
ATOM     22  N   UNL     1      -5.125  -5.157   6.205  0.00  0.00    -0.250 NA
ENDBRANCH  14  17
ENDBRANCH   3  13
BRANCH   9  23
ATOM     23  C   UNL     1      -1.058   2.449   1.402  0.00  0.00    +0.077 C 
ATOM     24  C   UNL     1      -1.304   3.308   2.644  0.00  0.00    +0.017 C 
BRANCH  23  25
ATOM     25  C   UNL     1      -0.873   3.342   0.202  0.00  0.00    +0.217 C 
ATOM     26  O   UNL     1      -1.670   3.303  -0.711  0.00  0.00    -0.276 OA
ATOM     27  N   UNL     1       0.175   4.188   0.147  0.00  0.00    -0.308 N 
ATOM     28  H   UNL     1       0.897   4.223   0.975  0.00  0.00    +0.149 HD
BRANCH  27  29
ATOM     29  C   UNL     1       0.351   5.060  -1.017  0.00  0.00    +0.178 C 
BRANCH  29  30
ATOM     30  C   UNL     1       1.589   5.901  -0.832  0.00  0.00    +0.122 A 
ATOM     31  C   UNL     1       2.832   5.565  -1.219  0.00  0.00    +0.046 A 
ATOM     32  C   UNL     1       3.678   6.637  -0.854  0.00  0.00    +0.041 A 
ATOM     33  C   UNL     1       2.902   7.560  -0.258  0.00  0.00    +0.195 A 
ATOM     34  O   UNL     1       1.637   7.109  -0.248  0.00  0.00    -0.466 OA
ENDBRANCH  29  30
ENDBRANCH  27  29
ENDBRANCH  23  25
ENDBRANCH   9  23
BRANCH   8  35
ATOM     35  O   UNL     1      -1.159  -0.259   2.370  0.00  0.00    -0.391 OA
ATOM     36  H   UNL     1      -0.188   0.232   2.529  0.00  0.00    +0.210 HD
ENDBRANCH   8  35
TORSDOF 7
