REMARK  Name = ZINC13123766
REMARK  7 active torsions:
REMARK  status: ('A' for Active; 'I' for Inactive)
REMARK    1  A    between atoms: C_1  and  C_2
REMARK    2  A    between atoms: C_2  and  C_3
REMARK    3  A    between atoms: C_2  and  C_4
REMARK    4  A    between atoms: C_2  and  C_5
REMARK    5  A    between atoms: C_7  and  C_18
REMARK    6  A    between atoms: C_9  and  C_16
REMARK    7  A    between atoms: C_10  and  N_15
REMARK                            x       y       z     vdW  Elec       q    Type
REMARK                         _______ _______ _______ _____ _____    ______ ____
ROOT
ATOM      1  C   UNL     1       1.004  -0.744  -1.472  0.00  0.00    +0.065 C 
ATOM      2  C   UNL     1       1.387   0.156  -2.401  0.00  0.00    +0.052 C 
ATOM      3  C   UNL     1       1.383   1.669  -2.440  0.00  0.00    +0.106 C 
ATOM      4  C   UNL     1       1.916   2.300  -3.714  0.00  0.00    +0.081 C 
ATOM      5  C   UNL     1       2.355   1.444  -4.717  0.00  0.00    +0.134 C 
ATOM      6  N   UNL     1       2.320   0.123  -4.590  0.00  0.00    -0.195 NA
ATOM      7  C   UNL     1       1.876  -0.532  -3.525  0.00  0.00    +0.254 C 
ATOM      8  O   UNL     1       1.780  -1.848  -3.256  0.00  0.00    -0.360 OA
ATOM      9  N   UNL     1       1.234  -1.980  -1.955  0.00  0.00    -0.223 N 
ATOM     10  H   UNL     1       1.054  -2.814  -1.494  0.00  0.00    +0.207 HD
ENDROOT
BRANCH   3  11
ATOM     11  C   UNL     1       2.212   2.173  -1.287  0.00  0.00    +0.003 A 
ATOM     12  C   UNL     1       1.870   3.044  -0.306  0.00  0.00    +0.012 A 
ATOM     13  C   UNL     1       2.804   3.364   0.661  0.00  0.00    +0.008 A 
ATOM     14  C   UNL     1       4.034   2.797   0.601  0.00  0.00    +0.045 A 
ATOM     15  S   UNL     1       3.896   1.770  -0.853  0.00  0.00    -0.101 S 
ENDBRANCH   3  11
BRANCH   1  17
ATOM     16  C   UNL     1      -0.542   0.760  -0.248  0.00  0.00    +0.017 C 
ATOM     17  C   UNL     1       0.424  -0.420  -0.119  0.00  0.00    +0.006 C 
ATOM     18  C   UNL     1       1.553  -0.052   0.846  0.00  0.00    +0.017 C 
ATOM     19  C   UNL     1      -0.329  -1.639   0.417  0.00  0.00    +0.017 C 
ENDBRANCH   1  17
BRANCH   5  20
ATOM     20  N   UNL     1       2.846   1.987  -5.888  0.00  0.00    -0.342 N 
ATOM     21  H   UNL     1       2.880   2.950  -6.000  0.00  0.00    +0.144 HD
ATOM     22  H   UNL     1       3.157   1.405  -6.600  0.00  0.00    +0.144 HD
ENDBRANCH   5  20
BRANCH   4  23
ATOM     23  C   UNL     1       1.964   3.722  -3.877  0.00  0.00    +0.099 C 
ATOM     24  N   UNL     1       2.003   4.850  -4.005  0.00  0.00    -0.191 NA
ENDBRANCH   4  23
TORSDOF 4
