REMARK  Name = ZINC59946960
REMARK  9 active torsions:
REMARK  status: ('A' for Active; 'I' for Inactive)
REMARK    1  A    between atoms: C_1  and  C_2
REMARK    2  A    between atoms: C_5  and  S_8
REMARK    3  A    between atoms: S_8  and  N_11
REMARK    4  A    between atoms: N_11  and  C_12
REMARK    5  A    between atoms: C_15  and  N_32
REMARK    6  A    between atoms: C_17  and  C_18
REMARK    7  A    between atoms: N_19  and  C_20
REMARK    8  A    between atoms: N_28  and  C_29
REMARK    9  A    between atoms: C_29  and  C_30
REMARK                            x       y       z     vdW  Elec       q    Type
REMARK                         _______ _______ _______ _____ _____    ______ ____
ROOT
ATOM      1  C   UNL     1       1.957  -6.271  -0.043  0.00  0.00    +0.083 A 
ATOM      2  C   UNL     1       0.907  -7.304  -0.049  0.00  0.00    +0.029 A 
ATOM      3  C   UNL     1       1.268  -8.619  -0.058  0.00  0.00    +0.034 A 
ATOM      4  C   UNL     1       2.603  -9.003  -0.061  0.00  0.00    +0.127 A 
ATOM      5  C   UNL     1       3.640  -8.077  -0.056  0.00  0.00    +0.044 A 
ATOM      6  C   UNL     1       3.372  -6.715  -0.053  0.00  0.00    +0.020 A 
ENDROOT
BRANCH   4   7
ATOM      7  N   UNL     1       2.932 -10.446  -0.071  0.00  0.00    +0.056 N 
ATOM      8  O   UNL     1       1.967 -11.342  -0.076  0.00  0.00    -0.126 OA
ATOM      9  O   UNL     1       4.191 -10.834  -0.074  0.00  0.00    -0.126 OA
ENDBRANCH   4   7
BRANCH   6  10
ATOM     10  C   UNL     1       4.465  -5.737  -0.054  0.00  0.00    +0.124 C 
ATOM     11  N   UNL     1       4.196  -4.453  -0.046  0.00  0.00    -0.221 NA
BRANCH  11  12
ATOM     12  C   UNL     1       5.197  -3.557  -0.048  0.00  0.00    +0.210 A 
ATOM     13  N   UNL     1       6.509  -3.859  -0.062  0.00  0.00    -0.324 N 
ATOM     14  C   UNL     1       7.229  -2.678  -0.059  0.00  0.00    +0.066 A 
ATOM     15  C   UNL     1       8.588  -2.387  -0.069  0.00  0.00    +0.028 A 
ATOM     16  C   UNL     1       9.009  -1.075  -0.062  0.00  0.00    +0.002 A 
ATOM     17  C   UNL     1       8.083  -0.041  -0.044  0.00  0.00    +0.002 A 
ATOM     18  C   UNL     1       6.732  -0.315  -0.034  0.00  0.00    +0.028 A 
ATOM     19  C   UNL     1       6.294  -1.634  -0.042  0.00  0.00    +0.068 A 
ATOM     20  N   UNL     1       5.041  -2.219  -0.040  0.00  0.00    -0.306 N 
ATOM     21  H   UNL     1       6.885  -4.753  -0.073  0.00  0.00    +0.169 HD
BRANCH  20  22
ATOM     22  C   UNL     1       3.761  -1.506  -0.028  0.00  0.00    +0.152 C 
BRANCH  22  23
ATOM     23  C   UNL     1       3.332  -1.268   1.396  0.00  0.00    -0.013 C 
ATOM     24  C   UNL     1       3.060  -0.053   1.804  0.00  0.00    +0.005 C 
ENDBRANCH  22  23
ENDBRANCH  20  22
ENDBRANCH  11  12
ENDBRANCH   6  10
BRANCH   1  25
ATOM     25  N   UNL     1       1.651  -4.999  -0.034  0.00  0.00    -0.097 NA
BRANCH  25  26
ATOM     26  S   UNL     1       0.063  -4.530  -0.023  0.00  0.00    +0.092 S 
ATOM     27  O   UNL     1      -0.476  -4.950   1.223  0.00  0.00    -0.148 OA
ATOM     28  O   UNL     1      -0.490  -4.937  -1.267  0.00  0.00    -0.148 OA
BRANCH  26  33
ATOM     29  C   UNL     1      -0.018   1.503   0.010  0.00  0.00    +0.044 C 
ATOM     30  C   UNL     1       0.002  -0.004   0.002  0.00  0.00    -0.050 A 
ATOM     31  C   UNL     1       0.006  -0.689  -1.199  0.00  0.00    +0.005 A 
ATOM     32  C   UNL     1       0.025  -2.071  -1.206  0.00  0.00    +0.029 A 
ATOM     33  C   UNL     1       0.040  -2.768  -0.013  0.00  0.00    +0.110 A 
ATOM     34  C   UNL     1       0.037  -2.084   1.188  0.00  0.00    +0.029 A 
ATOM     35  C   UNL     1       0.023  -0.702   1.195  0.00  0.00    +0.005 A 
ENDBRANCH  26  33
ENDBRANCH  25  26
ENDBRANCH   1  25
TORSDOF 8
