REMARK  Name = ZINC66514876
REMARK  7 active torsions:
REMARK  status: ('A' for Active; 'I' for Inactive)
REMARK    1  A    between atoms: C_1  and  C_2
REMARK    2  A    between atoms: C_2  and  C_3
REMARK    3  A    between atoms: C_3  and  N_4
REMARK    4  A    between atoms: C_10  and  N_13
REMARK    5  A    between atoms: C_14  and  C_16
REMARK    6  A    between atoms: C_16  and  N_17
REMARK    7  A    between atoms: N_26  and  C_29
REMARK                            x       y       z     vdW  Elec       q    Type
REMARK                         _______ _______ _______ _____ _____    ______ ____
ROOT
ATOM      1  N   UNL     1      -4.852  -4.814   0.429  0.00  0.00    -0.284 N 
ATOM      2  C   UNL     1      -5.715  -5.840   0.288  0.00  0.00    +0.235 C 
ATOM      3  O   UNL     1      -5.441  -6.766  -0.445  0.00  0.00    -0.274 OA
ATOM      4  H   UNL     1      -5.033  -4.113   1.074  0.00  0.00    +0.155 HD
ENDROOT
BRANCH   1  11
ATOM      5  N   UNL     1      -0.955  -2.863   1.332  0.00  0.00    +0.385 N 
ATOM      6  C   UNL     1      -0.491  -2.997  -0.068  0.00  0.00    -0.042 C 
ATOM      7  C   UNL     1      -1.480  -3.923  -0.739  0.00  0.00    -0.061 A 
ATOM      8  C   UNL     1      -1.408  -4.654  -1.910  0.00  0.00    +0.002 A 
ATOM      9  C   UNL     1      -2.475  -5.438  -2.307  0.00  0.00    +0.002 A 
ATOM     10  C   UNL     1      -3.619  -5.493  -1.534  0.00  0.00    +0.023 A 
ATOM     11  C   UNL     1      -3.695  -4.760  -0.357  0.00  0.00    +0.035 A 
ATOM     12  C   UNL     1      -2.622  -3.974   0.040  0.00  0.00    -0.041 A 
ATOM     13  C   UNL     1      -2.416  -3.084   1.244  0.00  0.00    -0.040 C 
ATOM     14  H   UNL     1      -0.525  -3.563   1.918  0.00  0.00    -0.081 HD
BRANCH   5  15
ATOM     15  C   UNL     1      -0.667  -1.516   1.843  0.00  0.00    -0.078 C 
BRANCH  15  17
ATOM     16  C   UNL     1       1.141   0.046   2.574  0.00  0.00    +0.002 C 
ATOM     17  C   UNL     1       0.841  -1.357   2.042  0.00  0.00    -0.022 C 
ENDBRANCH  15  17
ENDBRANCH   5  15
ENDBRANCH   1  11
BRANCH   2  18
ATOM     18  C   UNL     1      -7.020  -5.835   1.041  0.00  0.00    +0.214 C 
BRANCH  18  19
ATOM     19  N   UNL     1      -7.774  -7.050   0.720  0.00  0.00    -0.215 N 
ATOM     20  C   UNL     1      -8.649  -7.152  -0.301  0.00  0.00    +0.247 C 
ATOM     21  O   UNL     1      -8.952  -6.288  -1.097  0.00  0.00    -0.273 OA
ATOM     22  C   UNL     1      -9.174  -8.568  -0.243  0.00  0.00    +0.115 C 
ATOM     23  C   UNL     1      -8.827  -9.316  -1.526  0.00  0.00    +0.035 C 
ATOM     24  C   UNL     1      -9.340 -10.755  -1.435  0.00  0.00    +0.003 C 
ATOM     25  C   UNL     1     -10.856 -10.743  -1.226  0.00  0.00    +0.000 C 
ATOM     26  C   UNL     1     -11.187 -10.010   0.076  0.00  0.00    +0.003 C 
ATOM     27  C   UNL     1     -10.681  -8.568  -0.009  0.00  0.00    +0.035 C 
ATOM     28  N   UNL     1      -8.475  -9.161   0.904  0.00  0.00    -0.274 N 
ATOM     29  C   UNL     1      -7.674  -8.199   1.400  0.00  0.00    +0.312 C 
ATOM     30  O   UNL     1      -6.945  -8.355   2.360  0.00  0.00    -0.252 OA
ATOM     31  C   UNL     1      -8.617 -10.530   1.406  0.00  0.00    +0.134 C 
ENDBRANCH  18  19
ENDBRANCH   2  18
TORSDOF 5
