REMARK  Name = ZINC36073721
REMARK  11 active torsions:
REMARK  status: ('A' for Active; 'I' for Inactive)
REMARK    1  A    between atoms: C_1  and  C_2
REMARK    2  A    between atoms: C_2  and  O_3
REMARK    3  A    between atoms: O_3  and  C_4
REMARK    4  A    between atoms: C_4  and  C_6
REMARK    5  A    between atoms: C_12  and  C_14
REMARK    6  A    between atoms: C_17  and  C_19
REMARK    7  A    between atoms: C_19  and  N_20
REMARK    8  A    between atoms: N_20  and  C_21
REMARK    9  A    between atoms: N_20  and  C_28
REMARK   10  A    between atoms: C_21  and  C_22
REMARK   11  A    between atoms: C_28  and  C_29
REMARK                            x       y       z     vdW  Elec       q    Type
REMARK                         _______ _______ _______ _____ _____    ______ ____
ROOT
ATOM      1  C   UNL     1       2.204  -8.967  -4.003  0.00  0.00    +0.020 C 
ENDROOT
BRANCH   1   5
ATOM      2  C   UNL     1       0.807  -5.736  -4.860  0.00  0.00    +0.164 A 
ATOM      3  C   UNL     1       0.511  -6.438  -5.988  0.00  0.00    +0.230 A 
ATOM      4  O   UNL     1       0.981  -7.683  -5.809  0.00  0.00    -0.449 OA
ATOM      5  C   UNL     1       1.552  -7.745  -4.599  0.00  0.00    +0.179 A 
ATOM      6  N   UNL     1       1.460  -6.585  -4.021  0.00  0.00    -0.210 NA
BRANCH   2  13
ATOM      7  C   UNL     1       0.153  -2.931  -0.749  0.00  0.00    +0.101 C 
ATOM      8  C   UNL     1      -0.397  -2.161  -1.951  0.00  0.00    +0.033 C 
ATOM      9  C   UNL     1       0.541  -2.351  -3.147  0.00  0.00    +0.109 C 
ATOM     10  N   UNL     1       0.721  -3.790  -3.383  0.00  0.00    -0.296 N 
ATOM     11  C   UNL     1       1.159  -4.640  -2.267  0.00  0.00    +0.109 C 
ATOM     12  C   UNL     1       0.214  -4.424  -1.081  0.00  0.00    +0.033 C 
ATOM     13  C   UNL     1       0.486  -4.321  -4.599  0.00  0.00    +0.268 C 
ATOM     14  O   UNL     1       0.010  -3.633  -5.482  0.00  0.00    -0.268 OA
BRANCH   7  15
ATOM     15  C   UNL     1      -0.750  -2.718   0.439  0.00  0.00    +0.310 C 
ATOM     16  O   UNL     1      -1.289  -3.663   0.966  0.00  0.00    -0.251 OA
BRANCH  15  17
ATOM     17  O   UNL     1      -0.955  -1.479   0.913  0.00  0.00    -0.465 OA
BRANCH  17  19
ATOM     18  C   UNL     1      -1.934   0.123   2.434  0.00  0.00    +0.048 C 
ATOM     19  C   UNL     1      -1.823  -1.351   2.041  0.00  0.00    +0.229 C 
ENDBRANCH  17  19
ENDBRANCH  15  17
ENDBRANCH   7  15
ENDBRANCH   2  13
ENDBRANCH   1   5
BRANCH   1  20
ATOM     20  N   UNL     1       1.190  -9.775  -3.313  0.00  0.00    +0.391 N 
ATOM     21  H   UNL     1       0.662  -9.188  -2.685  0.00  0.00    -0.080 HD
BRANCH  20  22
ATOM     22  C   UNL     1       1.851 -10.840  -2.547  0.00  0.00    -0.042 C 
BRANCH  22  23
ATOM     23  C   UNL     1       2.656 -10.229  -1.429  0.00  0.00    -0.064 A 
ATOM     24  C   UNL     1       3.990  -9.926  -1.623  0.00  0.00    +0.002 A 
ATOM     25  C   UNL     1       4.729  -9.366  -0.598  0.00  0.00    +0.000 A 
ATOM     26  C   UNL     1       4.132  -9.108   0.622  0.00  0.00    +0.000 A 
ATOM     27  C   UNL     1       2.797  -9.411   0.817  0.00  0.00    +0.000 A 
ATOM     28  C   UNL     1       2.058  -9.967  -0.210  0.00  0.00    +0.002 A 
ENDBRANCH  22  23
ENDBRANCH  20  22
BRANCH  20  29
ATOM     29  C   UNL     1       0.283 -10.374  -4.302  0.00  0.00    -0.042 C 
BRANCH  29  30
ATOM     30  C   UNL     1      -0.828 -11.101  -3.590  0.00  0.00    -0.060 A 
ATOM     31  C   UNL     1      -0.676 -12.434  -3.255  0.00  0.00    +0.005 A 
ATOM     32  C   UNL     1      -1.692 -13.105  -2.602  0.00  0.00    +0.050 A 
ATOM     33  C   UNL     1      -2.866 -12.443  -2.280  0.00  0.00    +0.166 A 
ATOM     34  C   UNL     1      -3.019 -11.101  -2.617  0.00  0.00    +0.166 A 
ATOM     35  C   UNL     1      -1.994 -10.432  -3.267  0.00  0.00    +0.051 A 
ATOM     36  O   UNL     1      -4.249 -10.682  -2.197  0.00  0.00    -0.453 OA
ATOM     37  C   UNL     1      -5.006 -11.885  -1.967  0.00  0.00    +0.466 C 
ATOM     38  O   UNL     1      -4.000 -12.866  -1.649  0.00  0.00    -0.453 OA
ENDBRANCH  29  30
ENDBRANCH  20  29
ENDBRANCH   1  20
TORSDOF 10
