REMARK  Name = ZINC50834666
REMARK  10 active torsions:
REMARK  status: ('A' for Active; 'I' for Inactive)
REMARK    1  A    between atoms: C_1  and  C_2
REMARK    2  A    between atoms: C_2  and  C_3
REMARK    3  A    between atoms: C_3  and  C_5
REMARK    4  A    between atoms: C_3  and  C_6
REMARK    5  A    between atoms: N_10  and  C_24
REMARK    6  A    between atoms: N_15  and  S_18
REMARK    7  A    between atoms: S_18  and  C_21
REMARK    8  A    between atoms: C_21  and  C_22
REMARK    9  A    between atoms: C_21  and  C_23
REMARK   10  A    between atoms: C_24  and  C_25
REMARK                            x       y       z     vdW  Elec       q    Type
REMARK                         _______ _______ _______ _____ _____    ______ ____
ROOT
ATOM      1  C   UNL     1       1.405  -3.476   0.717  0.00  0.00    +0.022 C 
ATOM      2  C   UNL     1       0.891  -4.056   2.016  0.00  0.00    +0.201 C 
ATOM      3  O   UNL     1       1.544  -4.692   2.816  0.00  0.00    -0.277 OA
ATOM      4  N   UNL     1      -0.417  -3.746   2.136  0.00  0.00    -0.309 N 
ATOM      5  C   UNL     1      -0.845  -2.975   0.966  0.00  0.00    +0.006 C 
ATOM      6  N   UNL     1       0.387  -2.474   0.318  0.00  0.00    +0.401 N 
ATOM      7  C   UNL     1      -1.609  -3.871  -0.007  0.00  0.00    +0.023 C 
ATOM      8  C   UNL     1      -2.863  -4.418   0.684  0.00  0.00    +0.109 C 
ATOM      9  N   UNL     1      -3.639  -3.289   1.215  0.00  0.00    -0.181 NA
ATOM     10  C   UNL     1      -2.972  -2.326   2.102  0.00  0.00    +0.109 C 
ATOM     11  C   UNL     1      -1.717  -1.798   1.399  0.00  0.00    +0.023 C 
ATOM     12  H   UNL     1       0.629  -1.560   0.671  0.00  0.00    -0.082 HD
ATOM     13  H   UNL     1       0.281  -2.453  -0.685  0.00  0.00    -0.082 HD
ENDROOT
BRANCH   9  14
ATOM     14  S   UNL     1      -5.237  -3.106   0.822  0.00  0.00    +0.034 S 
ATOM     15  O   UNL     1      -5.485  -1.712   0.950  0.00  0.00    -0.158 OA
ATOM     16  O   UNL     1      -5.378  -3.753  -0.435  0.00  0.00    -0.158 OA
BRANCH  14  17
ATOM     17  C   UNL     1      -6.141  -4.021   2.102  0.00  0.00    +0.142 C 
ATOM     18  C   UNL     1      -5.824  -3.425   3.475  0.00  0.00    +0.033 C 
ATOM     19  C   UNL     1      -7.644  -3.919   1.836  0.00  0.00    +0.033 C 
ENDBRANCH  14  17
ENDBRANCH   9  14
BRANCH   1  20
ATOM     20  C   UNL     1       2.761  -2.801   0.934  0.00  0.00    -0.020 C 
ATOM     21  C   UNL     1       3.226  -2.159  -0.374  0.00  0.00    +0.006 C 
BRANCH  20  23
ATOM     22  C   UNL     1       5.106  -3.154   1.719  0.00  0.00    +0.004 C 
ATOM     23  C   UNL     1       3.785  -3.846   1.382  0.00  0.00    -0.001 C 
ENDBRANCH  20  23
ENDBRANCH   1  20
BRANCH   4  24
ATOM     24  C   UNL     1      -1.276  -4.123   3.261  0.00  0.00    +0.141 C 
BRANCH  24  25
ATOM     25  C   UNL     1      -1.155  -3.092   4.353  0.00  0.00    -0.026 A 
ATOM     26  C   UNL     1       0.054  -2.460   4.574  0.00  0.00    +0.009 A 
ATOM     27  C   UNL     1       0.170  -1.512   5.574  0.00  0.00    +0.050 A 
ATOM     28  C   UNL     1      -0.927  -1.194   6.358  0.00  0.00    +0.166 A 
ATOM     29  C   UNL     1      -2.145  -1.831   6.135  0.00  0.00    +0.167 A 
ATOM     30  C   UNL     1      -2.256  -2.775   5.127  0.00  0.00    +0.054 A 
ATOM     31  O   UNL     1      -3.059  -1.349   7.028  0.00  0.00    -0.453 OA
ATOM     32  C   UNL     1      -2.286  -0.712   8.062  0.00  0.00    +0.466 C 
ATOM     33  O   UNL     1      -1.077  -0.314   7.390  0.00  0.00    -0.453 OA
ENDBRANCH  24  25
ENDBRANCH   4  24
TORSDOF 6
