REMARK  Name = ZINC09127211
REMARK  12 active torsions:
REMARK  status: ('A' for Active; 'I' for Inactive)
REMARK    1  A    between atoms: C_1  and  C_2
REMARK    2  A    between atoms: C_2  and  C_4
REMARK    3  A    between atoms: C_2  and  N_60
REMARK    4  A    between atoms: C_7  and  S_16
REMARK    5  A    between atoms: N_8  and  C_9
REMARK    6  A    between atoms: S_16  and  C_17
REMARK    7  A    between atoms: C_17  and  C_19
REMARK    8  A    between atoms: C_17  and  C_20
REMARK    9  A    between atoms: N_22  and  C_23
REMARK   10  A    between atoms: C_23  and  C_29
REMARK   11  A    between atoms: C_31  and  N_60
REMARK   12  A    between atoms: C_32  and  N_60
REMARK                            x       y       z     vdW  Elec       q    Type
REMARK                         _______ _______ _______ _____ _____    ______ ____
ROOT
ATOM      1  C   UNL     1      -6.282   3.539   5.528  0.00  0.00    +0.125 A 
ATOM      2  N   UNL     1      -5.022   3.676   5.833  0.00  0.00    -0.135 NA
ATOM      3  N   UNL     1      -4.285   3.196   4.896  0.00  0.00    -0.122 NA
ATOM      4  C   UNL     1      -5.040   2.730   3.928  0.00  0.00    +0.197 A 
ATOM      5  N   UNL     1      -6.340   2.931   4.302  0.00  0.00    -0.275 N 
ENDROOT
BRANCH   5   6
ATOM      6  C   UNL     1      -7.493   2.586   3.581  0.00  0.00    +0.050 A 
ATOM      7  C   UNL     1      -8.345   3.578   3.117  0.00  0.00    +0.028 A 
ATOM      8  C   UNL     1      -9.477   3.236   2.403  0.00  0.00    +0.022 A 
ATOM      9  C   UNL     1      -9.767   1.905   2.159  0.00  0.00    +0.041 A 
ATOM     10  C   UNL     1      -8.921   0.914   2.625  0.00  0.00    +0.022 A 
ATOM     11  C   UNL     1      -7.786   1.252   3.335  0.00  0.00    +0.028 A 
ATOM     12 CL   UNL     1     -11.194   1.478   1.267  0.00  0.00    -0.084 Cl
ENDBRANCH   5   6
BRANCH   1  14
ATOM     13  C   UNL     1      -7.635   2.997   7.534  0.00  0.00    -0.005 C 
ATOM     14  C   UNL     1      -7.456   3.971   6.368  0.00  0.00    -0.003 C 
BRANCH  14  17
ATOM     15  C   UNL     1      -6.944   6.269   5.801  0.00  0.00    -0.096 C 
ATOM     16  C   UNL     1      -8.341   5.777   7.717  0.00  0.00    -0.096 C 
ATOM     17  N   UNL     1      -7.190   5.321   6.908  0.00  0.00    +0.382 N 
ATOM     18  H   UNL     1      -6.357   5.282   7.506  0.00  0.00    -0.082 HD
ENDBRANCH  14  17
ENDBRANCH   1  14
BRANCH   4  19
ATOM     19  S   UNL     1      -4.483   1.981   2.433  0.00  0.00    -0.073 S 
BRANCH  19  20
ATOM     20  C   UNL     1      -2.693   2.082   2.679  0.00  0.00    +0.137 C 
ATOM     21  C   UNL     1      -2.291   1.209   3.870  0.00  0.00    +0.029 C 
BRANCH  20  22
ATOM     22  C   UNL     1      -1.987   1.596   1.439  0.00  0.00    +0.227 C 
ATOM     23  O   UNL     1      -2.575   0.895   0.643  0.00  0.00    -0.275 OA
ATOM     24  N   UNL     1      -0.704   1.940   1.215  0.00  0.00    -0.296 N 
ATOM     25  H   UNL     1      -0.234   2.501   1.853  0.00  0.00    +0.150 HD
BRANCH  24  26
ATOM     26  C   UNL     1      -0.018   1.468   0.010  0.00  0.00    +0.121 C 
ATOM     27  C   UNL     1      -0.758   1.975  -1.229  0.00  0.00    +0.041 C 
ATOM     28  C   UNL     1      -0.042   1.481  -2.488  0.00  0.00    +0.003 C 
ATOM     29  C   UNL     1       1.394   2.011  -2.499  0.00  0.00    +0.000 C 
ATOM     30  C   UNL     1       2.134   1.504  -1.260  0.00  0.00    +0.003 C 
ATOM     31  C   UNL     1       1.417   1.997  -0.001  0.00  0.00    +0.041 C 
BRANCH  26  32
ATOM     32  C   UNL     1       0.002  -0.004   0.002  0.00  0.00    +0.088 C 
ATOM     33  N   UNL     1       0.018  -1.140  -0.004  0.00  0.00    -0.194 NA
ENDBRANCH  26  32
ENDBRANCH  24  26
ENDBRANCH  20  22
ENDBRANCH  19  20
ENDBRANCH   4  19
TORSDOF 8
