REMARK  Name = ZINC32094944
REMARK  5 active torsions:
REMARK  status: ('A' for Active; 'I' for Inactive)
REMARK    1  A    between atoms: C_1  and  C_2
REMARK    2  A    between atoms: N_8  and  C_28
REMARK    3  A    between atoms: C_13  and  O_27
REMARK    4  A    between atoms: N_19  and  C_20
REMARK    5  A    between atoms: C_28  and  C_29
REMARK                            x       y       z     vdW  Elec       q    Type
REMARK                         _______ _______ _______ _____ _____    ______ ____
ROOT
ATOM      1  C   UNL     1      -0.384   1.491   0.069  0.00  0.00    +0.045 C 
ATOM      2  C   UNL     1      -0.314  -0.014   0.053  0.00  0.00    -0.029 A 
ATOM      3  C   UNL     1      -0.535  -0.734  -1.111  0.00  0.00    +0.005 A 
ATOM      4  C   UNL     1      -0.474  -2.112  -1.139  0.00  0.00    +0.001 A 
ATOM      5  C   UNL     1      -0.187  -2.849   0.006  0.00  0.00    +0.007 A 
ATOM      6  C   UNL     1       0.034  -2.140   1.167  0.00  0.00    -0.006 A 
ATOM      7  C   UNL     1      -0.019  -0.740   1.207  0.00  0.00    +0.044 A 
ATOM      8  N   UNL     1       0.248  -0.286   2.487  0.00  0.00    -0.266 N 
ATOM      9  C   UNL     1       0.492  -1.300   3.343  0.00  0.00    +0.236 C 
ATOM     10  O   UNL     1       0.754  -1.201   4.523  0.00  0.00    -0.274 OA
ATOM     11  C   UNL     1       0.361  -2.584   2.555  0.00  0.00    +0.112 C 
ATOM     12  C   UNL     1      -0.744  -3.467   3.131  0.00  0.00    +0.121 C 
ATOM     13  C   UNL     1      -0.605  -4.891   2.674  0.00  0.00    +0.191 C 
ATOM     14  N   UNL     1       0.537  -5.459   2.428  0.00  0.00    -0.197 NA
ATOM     15  C   UNL     1       1.685  -4.731   2.536  0.00  0.00    +0.164 A 
ATOM     16  C   UNL     1       1.658  -3.342   2.600  0.00  0.00    +0.036 A 
ATOM     17  C   UNL     1       2.963  -2.898   2.701  0.00  0.00    +0.142 A 
ATOM     18  N   UNL     1       3.761  -3.941   2.689  0.00  0.00    -0.173 NA
ATOM     19  N   UNL     1       2.984  -5.106   2.578  0.00  0.00    -0.214 N 
ENDROOT
BRANCH  19  20
ATOM     20  C   UNL     1       3.467  -6.420   2.520  0.00  0.00    +0.069 A 
ATOM     21  C   UNL     1       2.747  -7.452   3.106  0.00  0.00    +0.028 A 
ATOM     22  C   UNL     1       3.225  -8.746   3.048  0.00  0.00    +0.003 A 
ATOM     23  C   UNL     1       4.421  -9.015   2.407  0.00  0.00    +0.020 A 
ATOM     24  C   UNL     1       5.141  -7.989   1.823  0.00  0.00    +0.043 A 
ATOM     25  C   UNL     1       4.664  -6.692   1.872  0.00  0.00    +0.047 A 
ATOM     26 CL   UNL     1       6.643  -8.330   1.020  0.00  0.00    -0.083 Cl
ENDBRANCH  19  20
BRANCH  13  27
ATOM     27  O   UNL     1      -1.728  -5.621   2.510  0.00  0.00    -0.495 OA
ATOM     28  H   UNL     1      -1.569  -6.527   2.215  0.00  0.00    +0.293 HD
ENDBRANCH  13  27
BRANCH   8  29
ATOM     29  C   UNL     1       0.265   1.129   2.867  0.00  0.00    +0.140 C 
BRANCH  29  30
ATOM     30  C   UNL     1      -1.126   1.562   3.253  0.00  0.00    -0.015 C 
ATOM     31  C   UNL     1      -1.339   2.112   4.423  0.00  0.00    +0.005 C 
ENDBRANCH  29  30
ENDBRANCH   8  29
TORSDOF 4
