REMARK  Name = ZINC04195090
REMARK  10 active torsions:
REMARK  status: ('A' for Active; 'I' for Inactive)
REMARK    1  A    between atoms: C_3  and  C_7
REMARK    2  A    between atoms: C_7  and  N_42
REMARK    3  A    between atoms: C_8  and  C_9
REMARK    4  A    between atoms: C_8  and  N_42
REMARK    5  A    between atoms: C_9  and  S_10
REMARK    6  A    between atoms: S_10  and  C_13
REMARK    7  A    between atoms: C_17  and  C_18
REMARK    8  A    between atoms: C_17  and  N_42
REMARK    9  A    between atoms: C_18  and  S_19
REMARK   10  A    between atoms: S_19  and  C_22
REMARK                            x       y       z     vdW  Elec       q    Type
REMARK                         _______ _______ _______ _____ _____    ______ ____
ROOT
ATOM      1  N   UNL     1      -1.159   2.003   3.806  0.00  0.00    +0.383 N 
ATOM      2  H   UNL     1      -2.127   1.662   3.852  0.00  0.00    -0.082 HD
ENDROOT
BRANCH   1   3
ATOM      3  C   UNL     1      -1.165   3.478   3.903  0.00  0.00    -0.047 C 
BRANCH   3   6
ATOM      4  C   UNL     1      -3.603   5.812   4.969  0.00  0.00    +0.030 C 
ATOM      5  C   UNL     1      -2.117   5.427   5.172  0.00  0.00    +0.032 C 
ATOM      6  C   UNL     1      -2.103   3.892   5.038  0.00  0.00    +0.102 C 
ATOM      7  O   UNL     1      -3.446   3.474   4.739  0.00  0.00    -0.378 OA
ATOM      8  C   UNL     1      -4.330   4.480   5.284  0.00  0.00    +0.160 C 
ENDBRANCH   3   6
ENDBRANCH   1   3
BRANCH   1   9
ATOM      9  C   UNL     1      -0.564   1.583   2.520  0.00  0.00    -0.055 C 
BRANCH   9  10
ATOM     10  C   UNL     1      -1.497   2.004   1.383  0.00  0.00    +0.157 C 
BRANCH  10  11
ATOM     11  S   UNL     1      -0.795   1.474  -0.204  0.00  0.00    +0.060 S 
ATOM     12  O   UNL     1      -0.774   0.054  -0.234  0.00  0.00    -0.166 OA
ATOM     13  O   UNL     1       0.415   2.188  -0.420  0.00  0.00    -0.166 OA
BRANCH  11  14
ATOM     14  C   UNL     1      -2.027   2.056  -1.401  0.00  0.00    +0.522 C 
ATOM     15  F   UNL     1      -2.152   3.446  -1.303  0.00  0.00    -0.150 F 
ATOM     16  F   UNL     1      -1.617   1.715  -2.695  0.00  0.00    -0.150 F 
ATOM     17  F   UNL     1      -3.261   1.456  -1.130  0.00  0.00    -0.150 F 
ENDBRANCH  11  14
ENDBRANCH  10  11
ENDBRANCH   9  10
ENDBRANCH   1   9
BRANCH   1  18
ATOM     18  C   UNL     1      -0.393   1.425   4.930  0.00  0.00    -0.055 C 
BRANCH  18  19
ATOM     19  C   UNL     1      -0.777  -0.049   5.079  0.00  0.00    +0.157 C 
BRANCH  19  20
ATOM     20  S   UNL     1       0.023  -0.735   6.555  0.00  0.00    +0.060 S 
ATOM     21  O   UNL     1       1.429  -0.727   6.350  0.00  0.00    -0.166 OA
ATOM     22  O   UNL     1      -0.512  -0.085   7.700  0.00  0.00    -0.166 OA
BRANCH  20  23
ATOM     23  C   UNL     1      -0.547  -2.458   6.555  0.00  0.00    +0.522 C 
ATOM     24  F   UNL     1      -0.133  -3.085   5.375  0.00  0.00    -0.150 F 
ATOM     25  F   UNL     1      -0.003  -3.128   7.656  0.00  0.00    -0.150 F 
ATOM     26  F   UNL     1      -1.943  -2.487   6.634  0.00  0.00    -0.150 F 
ENDBRANCH  20  23
ENDBRANCH  19  20
ENDBRANCH  18  19
ENDBRANCH   1  18
TORSDOF 10
