REMARK  Name = ZINC39509558
REMARK  7 active torsions:
REMARK  status: ('A' for Active; 'I' for Inactive)
REMARK    1  A    between atoms: C_4  and  C_7
REMARK    2  A    between atoms: C_7  and  C_8
REMARK    3  A    between atoms: C_14  and  S_27
REMARK    4  A    between atoms: N_19  and  C_20
REMARK    5  A    between atoms: C_20  and  C_21
REMARK    6  A    between atoms: S_27  and  O_30
REMARK    7  A    between atoms: O_30  and  C_31
REMARK                            x       y       z     vdW  Elec       q    Type
REMARK                         _______ _______ _______ _____ _____    ______ ____
ROOT
ATOM      1  C   UNL     1       4.182  -1.038   1.639  0.00  0.00    -0.008 C 
ATOM      2  C   UNL     1       4.653   0.181   2.472  0.00  0.00    +0.002 C 
ATOM      3  C   UNL     1       5.713  -0.402   3.430  0.00  0.00    -0.010 C 
ATOM      4  C   UNL     1       6.245  -1.682   2.767  0.00  0.00    -0.039 C 
ATOM      5  C   UNL     1       5.490  -1.842   1.431  0.00  0.00    -0.006 C 
ATOM      6  C   UNL     1       7.743  -1.546   2.502  0.00  0.00    +0.161 C 
ATOM      7  C   UNL     1       8.256  -2.822   1.828  0.00  0.00    +0.026 C 
ATOM      8  C   UNL     1       7.920  -4.025   2.715  0.00  0.00    -0.017 C 
ATOM      9  C   UNL     1       6.409  -4.071   2.952  0.00  0.00    -0.077 C 
ATOM     10  N   UNL     1       5.979  -2.839   3.625  0.00  0.00    +0.387 N 
ATOM     11  H   UNL     1       6.484  -2.736   4.492  0.00  0.00    -0.080 HD
ENDROOT
BRANCH   6  12
ATOM     12  S   UNL     1       8.038  -0.125   1.413  0.00  0.00    +0.122 S 
ATOM     13  O   UNL     1       7.606  -0.422   0.092  0.00  0.00    -0.137 OA
ATOM     14  O   UNL     1       7.632   1.076   2.055  0.00  0.00    -0.137 OA
BRANCH  12  15
ATOM     15  O   UNL     1       9.553  -0.018   1.312  0.00  0.00    -0.346 OA
BRANCH  15  16
ATOM     16  C   UNL     1      10.146   0.504   2.417  0.00  0.00    +0.156 A 
ATOM     17  C   UNL     1      10.307   1.877   2.535  0.00  0.00    +0.048 A 
ATOM     18  C   UNL     1      10.909   2.406   3.661  0.00  0.00    +0.004 A 
ATOM     19  C   UNL     1      11.351   1.569   4.668  0.00  0.00    +0.000 A 
ATOM     20  C   UNL     1      11.191   0.200   4.553  0.00  0.00    +0.004 A 
ATOM     21  C   UNL     1      10.584  -0.333   3.432  0.00  0.00    +0.048 A 
ENDBRANCH  15  16
ENDBRANCH  12  15
ENDBRANCH   6  12
BRANCH   1  22
ATOM     22  C   UNL     1       3.604  -0.587   0.297  0.00  0.00    +0.038 C 
BRANCH  22  26
ATOM     23  C   UNL     1      -0.082   1.471   0.950  0.00  0.00    +0.000 A 
ATOM     24  C   UNL     1       1.109   2.173   0.938  0.00  0.00    +0.000 A 
ATOM     25  C   UNL     1       2.302   1.507   0.726  0.00  0.00    +0.003 A 
ATOM     26  C   UNL     1       2.304   0.139   0.528  0.00  0.00    -0.047 A 
ATOM     27  C   UNL     1       1.113  -0.563   0.541  0.00  0.00    +0.003 A 
ATOM     28  C   UNL     1      -0.080   0.103   0.751  0.00  0.00    +0.000 A 
ENDBRANCH  22  26
ENDBRANCH   1  22
BRANCH  10  29
ATOM     29  C   UNL     1       4.539  -2.915   3.908  0.00  0.00    -0.042 C 
BRANCH  29  30
ATOM     30  C   UNL     1       4.279  -4.029   4.888  0.00  0.00    -0.064 A 
ATOM     31  C   UNL     1       4.027  -5.309   4.429  0.00  0.00    +0.002 A 
ATOM     32  C   UNL     1       3.788  -6.331   5.329  0.00  0.00    +0.000 A 
ATOM     33  C   UNL     1       3.801  -6.074   6.687  0.00  0.00    +0.000 A 
ATOM     34  C   UNL     1       4.054  -4.795   7.146  0.00  0.00    +0.000 A 
ATOM     35  C   UNL     1       4.297  -3.774   6.247  0.00  0.00    +0.002 A 
ENDBRANCH  29  30
ENDBRANCH  10  29
TORSDOF 7
