REMARK  Name = ZINC35173915
REMARK  12 active torsions:
REMARK  status: ('A' for Active; 'I' for Inactive)
REMARK    1  A    between atoms: C_1  and  C_2
REMARK    2  A    between atoms: C_9  and  C_11
REMARK    3  A    between atoms: C_11  and  C_12
REMARK    4  A    between atoms: C_11  and  C_13
REMARK    5  A    between atoms: C_11  and  C_14
REMARK    6  A    between atoms: C_15  and  C_17
REMARK    7  A    between atoms: C_17  and  C_18
REMARK    8  A    between atoms: C_18  and  C_19
REMARK    9  A    between atoms: C_19  and  S_20
REMARK   10  A    between atoms: S_20  and  C_21
REMARK   11  A    between atoms: C_24  and  C_32
REMARK   12  A    between atoms: N_25  and  C_26
REMARK                            x       y       z     vdW  Elec       q    Type
REMARK                         _______ _______ _______ _____ _____    ______ ____
ROOT
ATOM      1  C   UNL     1       0.601  -7.396  -2.051  0.00  0.00    +0.078 C 
ENDROOT
BRANCH   1   2
ATOM      2  C   UNL     1       0.431  -5.933  -2.463  0.00  0.00    +0.020 C 
BRANCH   2   3
ATOM      3  C   UNL     1       1.016  -5.026  -1.378  0.00  0.00    +0.097 C 
BRANCH   3  13
ATOM      4  C   UNL     1       0.454   1.052  -0.480  0.00  0.00    +0.029 C 
ATOM      5  C   UNL     1       0.394  -0.458  -0.235  0.00  0.00    +0.090 C 
ATOM      6  C   UNL     1       1.137  -1.191  -1.359  0.00  0.00    +0.130 C 
ATOM      7  N   UNL     1       1.294  -2.601  -0.977  0.00  0.00    -0.298 N 
ATOM      8  C   UNL     1       1.945  -2.920   0.302  0.00  0.00    +0.127 C 
ATOM      9  C   UNL     1       1.202  -2.186   1.426  0.00  0.00    +0.127 C 
ATOM     10  N   UNL     1       1.042  -0.776   1.045  0.00  0.00    -0.295 N 
ATOM     11  C   UNL     1       1.485   0.208   1.853  0.00  0.00    +0.221 C 
ATOM     12  O   UNL     1       1.258   1.367   1.578  0.00  0.00    -0.275 OA
ATOM     13  C   UNL     1       0.849  -3.584  -1.784  0.00  0.00    +0.216 C 
ATOM     14  O   UNL     1       0.313  -3.309  -2.837  0.00  0.00    -0.276 OA
BRANCH  11  15
ATOM     15  C   UNL     1       2.261  -0.133   3.099  0.00  0.00    +0.039 C 
ATOM     16  C   UNL     1       2.685   1.157   3.804  0.00  0.00    +0.020 C 
ATOM     17  C   UNL     1       1.382  -0.962   4.037  0.00  0.00    +0.020 C 
ATOM     18  C   UNL     1       3.505  -0.939   2.720  0.00  0.00    +0.020 C 
ENDBRANCH  11  15
ENDBRANCH   3  13
ENDBRANCH   2   3
ENDBRANCH   1   2
BRANCH   1  19
ATOM     19  S   UNL     1      -0.093  -8.471  -3.337  0.00  0.00    -0.086 S 
BRANCH  19  20
ATOM     20  C   UNL     1       0.177 -10.100  -2.722  0.00  0.00    +0.196 A 
ATOM     21  N   UNL     1       0.749 -10.418  -1.583  0.00  0.00    -0.122 NA
ATOM     22  N   UNL     1       0.785 -11.695  -1.446  0.00  0.00    -0.127 NA
ATOM     23  C   UNL     1       0.237 -12.276  -2.491  0.00  0.00    +0.176 A 
ATOM     24  N   UNL     1      -0.176 -11.270  -3.340  0.00  0.00    -0.270 N 
BRANCH  24  25
ATOM     25  C   UNL     1      -0.818 -11.416  -4.577  0.00  0.00    +0.051 A 
ATOM     26  C   UNL     1      -2.095 -11.959  -4.639  0.00  0.00    +0.026 A 
ATOM     27  C   UNL     1      -2.725 -12.101  -5.859  0.00  0.00    +0.002 A 
ATOM     28  C   UNL     1      -2.087 -11.701  -7.019  0.00  0.00    +0.000 A 
ATOM     29  C   UNL     1      -0.816 -11.160  -6.961  0.00  0.00    +0.002 A 
ATOM     30  C   UNL     1      -0.182 -11.011  -5.743  0.00  0.00    +0.026 A 
ENDBRANCH  24  25
BRANCH  23  31
ATOM     31  C   UNL     1       0.088 -13.723  -2.711  0.00  0.00    +0.057 A 
ATOM     32  C   UNL     1       0.205 -14.751  -1.809  0.00  0.00    +0.019 A 
ATOM     33  C   UNL     1       0.019 -16.042  -2.251  0.00  0.00    +0.008 A 
ATOM     34  C   UNL     1      -0.273 -16.258  -3.559  0.00  0.00    +0.046 A 
ATOM     35  S   UNL     1      -0.300 -14.599  -4.217  0.00  0.00    -0.094 S 
ENDBRANCH  23  31
ENDBRANCH  19  20
ENDBRANCH   1  19
TORSDOF 8
