REMARK  Name = ZINC36606545
REMARK  15 active torsions:
REMARK  status: ('A' for Active; 'I' for Inactive)
REMARK    1  A    between atoms: C_1  and  C_2
REMARK    2  A    between atoms: C_2  and  C_3
REMARK    3  A    between atoms: C_3  and  C_4
REMARK    4  A    between atoms: C_4  and  C_5
REMARK    5  A    between atoms: C_5  and  C_7
REMARK    6  A    between atoms: C_5  and  C_9
REMARK    7  A    between atoms: C_7  and  C_8
REMARK    8  A    between atoms: N_11  and  C_12
REMARK    9  A    between atoms: N_11  and  C_18
REMARK   10  A    between atoms: C_18  and  C_20
REMARK   11  A    between atoms: C_18  and  C_26
REMARK   12  A    between atoms: N_28  and  C_29
REMARK   13  A    between atoms: C_29  and  S_30
REMARK   14  A    between atoms: S_30  and  C_33
REMARK   15  A    between atoms: C_36  and  C_39
REMARK                            x       y       z     vdW  Elec       q    Type
REMARK                         _______ _______ _______ _____ _____    ______ ____
ROOT
ATOM      1  C   UNL     1      -3.289  -6.569   0.357  0.00  0.00    +0.170 C 
ENDROOT
BRANCH   1   2
ATOM      2  C   UNL     1      -3.821  -6.333  -1.058  0.00  0.00    +0.019 C 
ATOM      3  C   UNL     1      -4.322  -7.656  -1.641  0.00  0.00    +0.006 C 
ATOM      4  C   UNL     1      -4.854  -7.420  -3.056  0.00  0.00    +0.000 C 
ATOM      5  C   UNL     1      -3.732  -6.867  -3.937  0.00  0.00    +0.000 C 
ATOM      6  C   UNL     1      -3.231  -5.544  -3.353  0.00  0.00    +0.000 C 
ATOM      7  C   UNL     1      -2.699  -5.780  -1.938  0.00  0.00    +0.006 C 
ENDBRANCH   1   2
BRANCH   1   8
ATOM      8  C   UNL     1      -4.404  -7.074   1.236  0.00  0.00    +0.235 C 
ATOM      9  O   UNL     1      -5.090  -6.290   1.857  0.00  0.00    -0.274 OA
ATOM     10  N   UNL     1      -4.640  -8.398   1.331  0.00  0.00    -0.295 N 
ATOM     11  H   UNL     1      -4.082  -9.026   0.847  0.00  0.00    +0.150 HD
BRANCH  10  12
ATOM     12  C   UNL     1      -5.739  -8.888   2.166  0.00  0.00    +0.278 C 
BRANCH  12  13
ATOM     13  S   UNL     1      -7.227  -9.093   1.148  0.00  0.00    +0.013 S 
ATOM     14  O   UNL     1      -8.283  -9.635   1.929  0.00  0.00    -0.168 OA
ATOM     15  O   UNL     1      -7.436  -7.936   0.349  0.00  0.00    -0.168 OA
BRANCH  13  16
ATOM     16  C   UNL     1      -6.818 -10.365  -0.000  0.00  0.00    +0.090 A 
ATOM     17  C   UNL     1      -6.376 -10.035  -1.268  0.00  0.00    +0.027 A 
ATOM     18  C   UNL     1      -6.055 -11.033  -2.169  0.00  0.00    +0.005 A 
ATOM     19  C   UNL     1      -6.176 -12.361  -1.802  0.00  0.00    -0.050 A 
ATOM     20  C   UNL     1      -6.617 -12.690  -0.534  0.00  0.00    +0.005 A 
ATOM     21  C   UNL     1      -6.934 -11.692   0.368  0.00  0.00    +0.027 A 
ATOM     22  C   UNL     1      -5.827 -13.449  -2.785  0.00  0.00    +0.044 C 
ENDBRANCH  13  16
ENDBRANCH  12  13
ENDBRANCH  10  12
ENDBRANCH   1   8
BRANCH   1  25
ATOM     23  C   UNL     1      -1.456  -5.180   1.161  0.00  0.00    +0.224 C 
ATOM     24  O   UNL     1      -0.685  -6.063   0.850  0.00  0.00    -0.275 OA
ATOM     25  N   UNL     1      -2.772  -5.311   0.901  0.00  0.00    -0.259 N 
BRANCH  25  26
ATOM     26  C   UNL     1      -3.644  -4.245   1.149  0.00  0.00    +0.037 A 
ATOM     27  C   UNL     1      -3.889  -3.301   0.161  0.00  0.00    +0.023 A 
ATOM     28  C   UNL     1      -4.750  -2.251   0.409  0.00  0.00    +0.002 A 
ATOM     29  C   UNL     1      -5.368  -2.138   1.641  0.00  0.00    +0.000 A 
ATOM     30  C   UNL     1      -5.126  -3.076   2.628  0.00  0.00    +0.002 A 
ATOM     31  C   UNL     1      -4.270  -4.132   2.384  0.00  0.00    +0.023 A 
ENDBRANCH  25  26
BRANCH  23  32
ATOM     32  C   UNL     1      -0.942  -3.935   1.838  0.00  0.00    +0.075 C 
BRANCH  32  33
ATOM     33  C   UNL     1      -1.100  -4.077   3.353  0.00  0.00    +0.009 C 
ATOM     34  C   UNL     1      -0.280  -5.273   3.842  0.00  0.00    +0.004 C 
ENDBRANCH  32  33
BRANCH  32  35
ATOM     35  C   UNL     1       0.536  -3.741   1.495  0.00  0.00    +0.013 C 
BRANCH  35  36
ATOM     36  C   UNL     1       1.017  -2.400   2.051  0.00  0.00    +0.000 C 
BRANCH  36  38
ATOM     37  C   UNL     1       2.997  -0.904   2.344  0.00  0.00    +0.004 C 
ATOM     38  C   UNL     1       2.517  -2.246   1.788  0.00  0.00    -0.003 C 
ENDBRANCH  36  38
ENDBRANCH  35  36
ENDBRANCH  32  35
ENDBRANCH  23  32
ENDBRANCH   1  25
TORSDOF 12
