REMARK  Name = ZINC08182867
REMARK  8 active torsions:
REMARK  status: ('A' for Active; 'I' for Inactive)
REMARK    1  A    between atoms: C_1  and  C_2
REMARK    2  A    between atoms: C_3  and  N_9
REMARK    3  A    between atoms: N_9  and  C_10
REMARK    4  A    between atoms: C_10  and  N_12
REMARK    5  A    between atoms: N_12  and  N_13
REMARK    6  A    between atoms: C_14  and  C_15
REMARK    7  A    between atoms: C_18  and  O_22
REMARK    8  A    between atoms: C_20  and  O_21
REMARK                            x       y       z     vdW  Elec       q    Type
REMARK                         _______ _______ _______ _____ _____    ______ ____
ROOT
ATOM      1  N   UNL     1      -0.021   5.490  -0.173  0.00  0.00    -0.218 N 
ATOM      2  H   UNL     1      -0.864   5.966  -0.236  0.00  0.00    +0.176 HD
ENDROOT
BRANCH   1   3
ATOM      3  C   UNL     1      -0.011   4.146  -0.078  0.00  0.00    +0.154 C 
ATOM      4  S   UNL     1      -1.486   3.278  -0.069  0.00  0.00    -0.017 S 
BRANCH   3   5
ATOM      5  N   UNL     1       1.161   3.485   0.009  0.00  0.00    -0.295 N 
ATOM      6  H   UNL     1       1.992   3.980   0.084  0.00  0.00    +0.154 HD
BRANCH   5   9
ATOM      7  C   UNL     1       2.821   2.139   1.888  0.00  0.00    +0.047 C 
ATOM      8  C   UNL     1       1.974   1.390   0.891  0.00  0.00    -0.011 A 
ATOM      9  C   UNL     1       1.178   2.087  -0.008  0.00  0.00    +0.037 A 
ATOM     10  C   UNL     1       0.399   1.393  -0.924  0.00  0.00    +0.023 A 
ATOM     11  C   UNL     1       0.418   0.012  -0.940  0.00  0.00    +0.003 A 
ATOM     12  C   UNL     1       1.211  -0.680  -0.043  0.00  0.00    +0.020 A 
ATOM     13  C   UNL     1       1.989   0.008   0.872  0.00  0.00    +0.046 A 
ATOM     14 CL   UNL     1       2.983  -0.865   1.995  0.00  0.00    -0.083 Cl
ENDBRANCH   5   9
ENDBRANCH   3   5
ENDBRANCH   1   3
BRANCH   1  15
ATOM     15  N   UNL     1       1.187   6.201  -0.180  0.00  0.00    -0.188 NA
ATOM     16  C   UNL     1       1.177   7.496  -0.272  0.00  0.00    +0.141 C 
BRANCH  16  17
ATOM     17  C   UNL     1       2.447   8.243  -0.280  0.00  0.00    +0.036 A 
ATOM     18  C   UNL     1       2.440   9.637  -0.378  0.00  0.00    +0.016 A 
ATOM     19  C   UNL     1       3.630  10.332  -0.385  0.00  0.00    +0.046 A 
ATOM     20  C   UNL     1       4.838   9.652  -0.294  0.00  0.00    +0.120 A 
ATOM     21  C   UNL     1       4.856   8.268  -0.196  0.00  0.00    +0.091 A 
ATOM     22  C   UNL     1       3.667   7.559  -0.183  0.00  0.00    +0.129 A 
BRANCH  22  23
ATOM     23  O   UNL     1       3.683   6.205  -0.082  0.00  0.00    -0.506 OA
ATOM     24  H   UNL     1       3.720   5.747  -0.933  0.00  0.00    +0.292 HD
ENDBRANCH  22  23
BRANCH  20  25
ATOM     25  O   UNL     1       6.007  10.344  -0.301  0.00  0.00    -0.507 OA
ATOM     26  H   UNL     1       6.314  10.607   0.577  0.00  0.00    +0.292 HD
ENDBRANCH  20  25
ENDBRANCH  16  17
ENDBRANCH   1  15
TORSDOF 7
