REMARK  Name = ZINC13500565
REMARK  14 active torsions:
REMARK  status: ('A' for Active; 'I' for Inactive)
REMARK    1  A    between atoms: C_1  and  C_2
REMARK    2  A    between atoms: C_4  and  C_34
REMARK    3  A    between atoms: C_9  and  C_14
REMARK    4  A    between atoms: C_14  and  N_69
REMARK    5  A    between atoms: C_15  and  C_16
REMARK    6  A    between atoms: C_15  and  N_69
REMARK    7  A    between atoms: C_16  and  C_17
REMARK    8  A    between atoms: C_17  and  O_18
REMARK    9  A    between atoms: C_19  and  C_21
REMARK   10  A    between atoms: C_19  and  C_31
REMARK   11  A    between atoms: C_19  and  N_69
REMARK   12  A    between atoms: N_25  and  C_26
REMARK   13  A    between atoms: C_31  and  C_32
REMARK   14  A    between atoms: C_31  and  C_33
REMARK                            x       y       z     vdW  Elec       q    Type
REMARK                         _______ _______ _______ _____ _____    ______ ____
ROOT
ATOM      1  N   UNL     1      -1.972   2.694  -1.622  0.00  0.00    +0.389 N 
ATOM      2  H   UNL     1      -1.954   2.015  -2.391  0.00  0.00    -0.080 HD
ENDROOT
BRANCH   1   3
ATOM      3  C   UNL     1      -1.036   2.250  -0.567  0.00  0.00    -0.037 C 
BRANCH   3  12
ATOM      4  C   UNL     1       5.948   3.605  -2.803  0.00  0.00    +0.044 C 
ATOM      5  C   UNL     1       4.767   2.679  -2.671  0.00  0.00    -0.050 A 
ATOM      6  C   UNL     1       4.850   1.383  -3.164  0.00  0.00    +0.008 A 
ATOM      7  C   UNL     1       3.782   0.519  -3.054  0.00  0.00    -0.026 A 
ATOM      8  C   UNL     1       2.607   0.948  -2.444  0.00  0.00    +0.052 A 
ATOM      9  C   UNL     1       2.527   2.261  -1.946  0.00  0.00    -0.001 A 
ATOM     10  C   UNL     1       3.624   3.121  -2.068  0.00  0.00    +0.013 A 
ATOM     11  C   UNL     1       1.286   2.703  -1.306  0.00  0.00    +0.017 A 
ATOM     12  C   UNL     1       0.257   1.826  -1.215  0.00  0.00    +0.001 A 
ATOM     13  C   UNL     1       0.389   0.518  -1.731  0.00  0.00    +0.251 A 
ATOM     14  O   UNL     1      -0.549  -0.254  -1.639  0.00  0.00    -0.268 OA
ATOM     15  N   UNL     1       1.524   0.104  -2.321  0.00  0.00    -0.322 N 
ATOM     16  H   UNL     1       1.581  -0.801  -2.665  0.00  0.00    +0.169 HD
ATOM     17  C   UNL     1       3.886  -0.884  -3.593  0.00  0.00    +0.046 C 
ENDBRANCH   3  12
ENDBRANCH   1   3
BRANCH   1  18
ATOM     18  C   UNL     1      -1.561   4.016  -2.138  0.00  0.00    -0.075 C 
BRANCH  18  19
ATOM     19  C   UNL     1      -2.299   4.282  -3.452  0.00  0.00    +0.009 C 
BRANCH  19  20
ATOM     20  C   UNL     1      -1.797   5.592  -4.063  0.00  0.00    +0.154 C 
BRANCH  20  21
ATOM     21  O   UNL     1      -2.486   5.840  -5.290  0.00  0.00    -0.395 OA
ATOM     22  H   UNL     1      -2.217   6.656  -5.733  0.00  0.00    +0.209 HD
ENDBRANCH  20  21
ENDBRANCH  19  20
ENDBRANCH  18  19
ENDBRANCH   1  18
BRANCH   1  23
ATOM     23  C   UNL     1      -3.345   2.768  -1.080  0.00  0.00    +0.006 C 
BRANCH  23  24
ATOM     24  C   UNL     1      -3.367   3.571   0.196  0.00  0.00    +0.139 A 
ATOM     25  N   UNL     1      -2.650   3.351   1.271  0.00  0.00    -0.115 NA
ATOM     26  N   UNL     1      -2.952   4.252   2.141  0.00  0.00    -0.023 NA
ATOM     27  N   UNL     1      -3.848   5.036   1.652  0.00  0.00    -0.044 NA
ATOM     28  N   UNL     1      -4.131   4.649   0.454  0.00  0.00    -0.228 N 
BRANCH  28  29
ATOM     29  C   UNL     1      -5.101   5.266  -0.454  0.00  0.00    +0.111 C 
ATOM     30  C   UNL     1      -4.736   6.746  -0.690  0.00  0.00    +0.027 C 
ATOM     31  C   UNL     1      -6.106   7.467  -0.762  0.00  0.00    +0.002 C 
ATOM     32  C   UNL     1      -6.940   6.726   0.313  0.00  0.00    +0.002 C 
ATOM     33  C   UNL     1      -6.501   5.253   0.183  0.00  0.00    +0.027 C 
ENDBRANCH  28  29
ENDBRANCH  23  24
BRANCH  23  34
ATOM     34  C   UNL     1      -3.841   1.349  -0.797  0.00  0.00    -0.024 C 
ATOM     35  C   UNL     1      -5.295   1.401  -0.325  0.00  0.00    +0.006 C 
ATOM     36  C   UNL     1      -3.750   0.513  -2.076  0.00  0.00    +0.006 C 
ENDBRANCH  23  34
ENDBRANCH   1  23
TORSDOF 10
