REMARK  Name = ZINC36641667
REMARK  16 active torsions:
REMARK  status: ('A' for Active; 'I' for Inactive)
REMARK    1  A    between atoms: C_1  and  C_2
REMARK    2  A    between atoms: C_2  and  N_3
REMARK    3  A    between atoms: N_3  and  C_4
REMARK    4  A    between atoms: N_3  and  C_6
REMARK    5  A    between atoms: C_4  and  C_5
REMARK    6  A    between atoms: C_6  and  C_7
REMARK    7  A    between atoms: C_7  and  N_8
REMARK    8  A    between atoms: C_12  and  O_18
REMARK    9  A    between atoms: O_18  and  C_19
REMARK   10  A    between atoms: C_19  and  C_20
REMARK   11  A    between atoms: C_21  and  C_23
REMARK   12  A    between atoms: C_24  and  C_25
REMARK   13  A    between atoms: C_28  and  O_33
REMARK   14  A    between atoms: C_29  and  O_31
REMARK   15  A    between atoms: O_31  and  C_32
REMARK   16  A    between atoms: O_33  and  C_34
REMARK                            x       y       z     vdW  Elec       q    Type
REMARK                         _______ _______ _______ _____ _____    ______ ____
ROOT
ATOM      1  N   UNL     1      -2.901  -4.091   0.188  0.00  0.00    -0.249 N 
ATOM      2  C   UNL     1      -3.063  -4.636   1.450  0.00  0.00    +0.168 A 
ATOM      3  N   UNL     1      -3.080  -5.899   1.805  0.00  0.00    -0.221 NA
ATOM      4  C   UNL     1      -3.249  -6.291   3.087  0.00  0.00    +0.122 A 
ATOM      5  C   UNL     1      -3.287  -7.612   3.601  0.00  0.00    +0.147 A 
ATOM      6  C   UNL     1      -3.469  -7.836   4.946  0.00  0.00    +0.048 A 
ATOM      7  C   UNL     1      -3.621  -6.786   5.840  0.00  0.00    +0.005 A 
ATOM      8  C   UNL     1      -3.588  -5.486   5.371  0.00  0.00    +0.017 A 
ATOM      9  C   UNL     1      -3.407  -5.251   4.029  0.00  0.00    +0.044 A 
ATOM     10  S   UNL     1      -3.295  -3.799   3.012  0.00  0.00    -0.052 S 
ATOM     11  C   UNL     1      -2.737  -4.898  -0.879  0.00  0.00    +0.245 C 
ATOM     12  O   UNL     1      -2.731  -6.106  -0.733  0.00  0.00    -0.270 OA
ENDROOT
BRANCH  11  13
ATOM     13  C   UNL     1      -2.565  -4.322  -2.212  0.00  0.00    +0.068 C 
ATOM     14  C   UNL     1      -2.401  -5.130  -3.281  0.00  0.00    +0.013 C 
BRANCH  14  15
ATOM     15  C   UNL     1      -2.228  -4.551  -4.621  0.00  0.00    -0.021 A 
ATOM     16  C   UNL     1      -2.228  -3.162  -4.790  0.00  0.00    +0.012 A 
ATOM     17  C   UNL     1      -2.066  -2.622  -6.047  0.00  0.00    +0.050 A 
ATOM     18  C   UNL     1      -1.903  -3.453  -7.148  0.00  0.00    +0.162 A 
ATOM     19  C   UNL     1      -1.902  -4.838  -6.987  0.00  0.00    +0.162 A 
ATOM     20  C   UNL     1      -2.058  -5.388  -5.730  0.00  0.00    +0.057 A 
BRANCH  19  21
ATOM     21  O   UNL     1      -1.742  -5.647  -8.068  0.00  0.00    -0.491 OA
ATOM     22  C   UNL     1      -1.752  -7.056  -7.830  0.00  0.00    +0.277 C 
ENDBRANCH  19  21
BRANCH  18  23
ATOM     23  O   UNL     1      -1.745  -2.914  -8.385  0.00  0.00    -0.491 OA
ATOM     24  C   UNL     1      -1.757  -1.488  -8.478  0.00  0.00    +0.277 C 
ENDBRANCH  18  23
ENDBRANCH  14  15
ENDBRANCH  11  13
BRANCH   1  25
ATOM     25  C   UNL     1      -2.907  -2.636   0.012  0.00  0.00    +0.097 C 
BRANCH  25  26
ATOM     26  C   UNL     1      -1.480  -2.100   0.147  0.00  0.00    -0.059 C 
BRANCH  26  27
ATOM     27  N   UNL     1      -1.468  -0.661  -0.149  0.00  0.00    +0.380 N 
ATOM     28  H   UNL     1      -1.874  -0.502  -1.059  0.00  0.00    -0.082 HD
BRANCH  27  30
ATOM     29  C   UNL     1      -2.340   1.536   0.491  0.00  0.00    -0.017 C 
ATOM     30  C   UNL     1      -2.248   0.055   0.868  0.00  0.00    -0.082 C 
ENDBRANCH  27  30
BRANCH  27  31
ATOM     31  C   UNL     1      -0.083  -0.171  -0.139  0.00  0.00    -0.082 C 
ATOM     32  C   UNL     1       0.690  -0.802  -1.300  0.00  0.00    -0.017 C 
ENDBRANCH  27  31
ENDBRANCH  26  27
ENDBRANCH  25  26
ENDBRANCH   1  25
BRANCH   5  33
ATOM     33  O   UNL     1      -3.142  -8.668   2.757  0.00  0.00    -0.490 OA
BRANCH  33  34
ATOM     34  C   UNL     1      -3.190  -9.973   3.336  0.00  0.00    +0.226 C 
ATOM     35  C   UNL     1      -3.010 -11.025   2.239  0.00  0.00    +0.048 C 
ENDBRANCH  33  34
ENDBRANCH   5  33
TORSDOF 11
