REMARK  Name = ZINC33051317
REMARK  6 active torsions:
REMARK  status: ('A' for Active; 'I' for Inactive)
REMARK    1  A    between atoms: C_1  and  C_2
REMARK    2  A    between atoms: N_5  and  C_7
REMARK    3  A    between atoms: C_18  and  C_33
REMARK    4  A    between atoms: N_24  and  C_25
REMARK    5  A    between atoms: C_25  and  C_26
REMARK    6  A    between atoms: C_26  and  C_27
REMARK                            x       y       z     vdW  Elec       q    Type
REMARK                         _______ _______ _______ _____ _____    ______ ____
ROOT
ATOM      1  C   UNL     1       0.996   9.098   1.292  0.00  0.00    +0.068 C 
ATOM      2  C   UNL     1       0.471   7.825   0.678  0.00  0.00    +0.067 A 
ATOM      3  C   UNL     1      -0.610   7.726  -0.192  0.00  0.00    +0.035 A 
ATOM      4  C   UNL     1      -0.776   6.404  -0.494  0.00  0.00    +0.146 A 
ATOM      5  N   UNL     1       0.192   5.707   0.130  0.00  0.00    -0.215 N 
ATOM      6  N   UNL     1       0.952   6.620   0.879  0.00  0.00    -0.169 NA
ATOM      7  N   UNL     1      -1.850   5.984  -1.287  0.00  0.00    -0.303 N 
ATOM      8  C   UNL     1      -1.896   5.102  -2.312  0.00  0.00    +0.093 A 
ATOM      9  C   UNL     1      -3.156   5.102  -2.804  0.00  0.00    +0.020 A 
ATOM     10  C   UNL     1      -3.914   6.008  -2.029  0.00  0.00    +0.025 A 
ATOM     11  C   UNL     1      -3.100   6.514  -1.090  0.00  0.00    +0.050 A 
ATOM     12  C   UNL     1      -3.428   7.451   0.036  0.00  0.00    +0.155 C 
ATOM     13  N   UNL     1      -2.835   8.791  -0.182  0.00  0.00    -0.269 N 
ATOM     14  C   UNL     1      -1.471   8.815  -0.761  0.00  0.00    +0.151 C 
ATOM     15  C   UNL     1      -3.498   9.922   0.128  0.00  0.00    +0.303 C 
ATOM     16  O   UNL     1      -4.617   9.861   0.601  0.00  0.00    -0.253 OA
ATOM     17  N   UNL     1      -2.922  11.121  -0.086  0.00  0.00    -0.299 N 
ATOM     18  H   UNL     1      -1.910  11.177  -0.514  0.00  0.00    +0.150 HD
ENDROOT
BRANCH   5  19
ATOM     19  C   UNL     1       0.399   4.323   0.051  0.00  0.00    +0.068 A 
ATOM     20  C   UNL     1       1.690   3.811   0.076  0.00  0.00    +0.028 A 
ATOM     21  C   UNL     1       1.891   2.446  -0.001  0.00  0.00    +0.002 A 
ATOM     22  C   UNL     1       0.809   1.591  -0.104  0.00  0.00    +0.000 A 
ATOM     23  C   UNL     1      -0.477   2.099  -0.136  0.00  0.00    +0.002 A 
ATOM     24  C   UNL     1      -0.685   3.462  -0.053  0.00  0.00    +0.028 A 
ENDBRANCH   5  19
BRANCH  12  25
ATOM     25  C   UNL     1      -2.894   6.880   1.324  0.00  0.00    -0.021 A 
ATOM     26  C   UNL     1      -2.975   5.521   1.563  0.00  0.00    +0.006 A 
ATOM     27  C   UNL     1      -2.481   4.996   2.743  0.00  0.00    +0.000 A 
ATOM     28  C   UNL     1      -1.914   5.831   3.687  0.00  0.00    +0.000 A 
ATOM     29  C   UNL     1      -1.837   7.191   3.450  0.00  0.00    +0.000 A 
ATOM     30  C   UNL     1      -2.327   7.715   2.268  0.00  0.00    +0.006 A 
ENDBRANCH  12  25
BRANCH  17  31
ATOM     31  C   UNL     1      -3.642  12.351   0.251  0.00  0.00    +0.110 C 
BRANCH  31  32
ATOM     32  C   UNL     1      -2.771  13.562  -0.088  0.00  0.00    +0.054 C 
BRANCH  32  33
ATOM     33  C   UNL     1      -3.512  14.828   0.258  0.00  0.00    -0.046 A 
ATOM     34  C   UNL     1      -4.316  15.439  -0.686  0.00  0.00    +0.004 A 
ATOM     35  C   UNL     1      -5.000  16.597  -0.366  0.00  0.00    +0.000 A 
ATOM     36  C   UNL     1      -4.872  17.150   0.894  0.00  0.00    +0.000 A 
ATOM     37  C   UNL     1      -4.065  16.541   1.837  0.00  0.00    +0.000 A 
ATOM     38  C   UNL     1      -3.385  15.380   1.519  0.00  0.00    +0.004 A 
ENDBRANCH  32  33
ENDBRANCH  31  32
ENDBRANCH  17  31
TORSDOF 5
