REMARK  Name = ZINC32634326
REMARK  4 active torsions:
REMARK  status: ('A' for Active; 'I' for Inactive)
REMARK    1  A    between atoms: C_5  and  C_7
REMARK    2  A    between atoms: C_7  and  C_8
REMARK    3  A    between atoms: C_8  and  N_10
REMARK    4  A    between atoms: N_12  and  C_23
REMARK                            x       y       z     vdW  Elec       q    Type
REMARK                         _______ _______ _______ _____ _____    ______ ____
ROOT
ATOM      1  N   UNL     1       0.920  -4.135   1.770  0.00  0.00    -0.159 NA
ATOM      2  C   UNL     1       1.409  -4.514   2.945  0.00  0.00    +0.154 C 
ATOM      3  N   UNL     1       1.756  -3.705   4.023  0.00  0.00    -0.273 N 
ATOM      4  C   UNL     1       2.488  -4.366   5.059  0.00  0.00    +0.116 C 
ATOM      5  C   UNL     1       2.751  -3.767   6.430  0.00  0.00    +0.190 C 
ATOM      6  S   UNL     1       3.335  -5.274   7.336  0.00  0.00    -0.028 S 
ATOM      7  O   UNL     1       2.489  -5.500   8.455  0.00  0.00    -0.174 OA
ATOM      8  O   UNL     1       4.740  -5.185   7.527  0.00  0.00    -0.174 OA
ATOM      9  C   UNL     1       2.979  -6.552   6.040  0.00  0.00    +0.182 C 
ATOM     10  C   UNL     1       1.863  -5.795   5.287  0.00  0.00    +0.097 C 
ATOM     11  S   UNL     1       1.762  -6.189   3.500  0.00  0.00    -0.086 S 
ENDROOT
BRANCH   3  12
ATOM     12  C   UNL     1       1.416  -2.349   4.088  0.00  0.00    +0.073 A 
ATOM     13  C   UNL     1       2.340  -1.380   3.715  0.00  0.00    +0.064 A 
ATOM     14  C   UNL     1       2.000  -0.042   3.781  0.00  0.00    +0.022 A 
ATOM     15  C   UNL     1       0.743   0.334   4.217  0.00  0.00    +0.003 A 
ATOM     16  C   UNL     1      -0.179  -0.627   4.590  0.00  0.00    +0.022 A 
ATOM     17  C   UNL     1       0.152  -1.968   4.521  0.00  0.00    +0.064 A 
ATOM     18 CL   UNL     1      -1.009  -3.174   4.981  0.00  0.00    -0.082 Cl
ATOM     19 CL   UNL     1       3.919  -1.851   3.167  0.00  0.00    -0.082 Cl
ENDBRANCH   3  12
BRANCH   1  20
ATOM     20  C   UNL     1       0.859  -2.842   1.460  0.00  0.00    +0.243 C 
ATOM     21  O   UNL     1       1.851  -2.147   1.557  0.00  0.00    -0.273 OA
BRANCH  20  22
ATOM     22  C   UNL     1      -0.440  -2.240   0.990  0.00  0.00    +0.134 C 
BRANCH  22  27
ATOM     23  C   UNL     1      -0.358   1.510   1.419  0.00  0.00    +0.000 A 
ATOM     24  C   UNL     1       0.124   1.919   0.190  0.00  0.00    +0.001 A 
ATOM     25  C   UNL     1       0.423   0.983  -0.781  0.00  0.00    +0.020 A 
ATOM     26  C   UNL     1       0.241  -0.365  -0.523  0.00  0.00    +0.045 A 
ATOM     27  C   UNL     1      -0.241  -0.773   0.708  0.00  0.00    -0.020 A 
ATOM     28  C   UNL     1      -0.540   0.164   1.678  0.00  0.00    +0.005 A 
ATOM     29 CL   UNL     1       0.617  -1.541  -1.743  0.00  0.00    -0.083 Cl
ENDBRANCH  22  27
ENDBRANCH  20  22
ENDBRANCH   1  20
TORSDOF 4
