REMARK  Name = ZINC32101861
REMARK  8 active torsions:
REMARK  status: ('A' for Active; 'I' for Inactive)
REMARK    1  A    between atoms: C_1  and  C_2
REMARK    2  A    between atoms: C_2  and  O_3
REMARK    3  A    between atoms: O_3  and  C_4
REMARK    4  A    between atoms: C_4  and  C_6
REMARK    5  A    between atoms: C_6  and  O_7
REMARK    6  A    between atoms: O_7  and  C_8
REMARK    7  A    between atoms: C_11  and  C_15
REMARK    8  A    between atoms: N_21  and  C_22
REMARK                            x       y       z     vdW  Elec       q    Type
REMARK                         _______ _______ _______ _____ _____    ______ ____
ROOT
ATOM      1  C   UNL     1       3.873  -6.524  -6.730  0.00  0.00    +0.028 C 
ATOM      2  C   UNL     1       4.524  -7.692  -6.499  0.00  0.00    +0.078 C 
ATOM      3  C   UNL     1       5.315  -8.523  -7.428  0.00  0.00    +0.256 C 
ATOM      4  O   UNL     1       5.469  -8.204  -8.592  0.00  0.00    -0.269 OA
ATOM      5  N   UNL     1       5.849  -9.628  -6.937  0.00  0.00    -0.260 N 
ATOM      6  C   UNL     1       5.663  -9.971  -5.615  0.00  0.00    +0.166 C 
ATOM      7  N   UNL     1       6.118 -11.023  -4.973  0.00  0.00    -0.226 NA
ATOM      8  S   UNL     1       4.660  -8.634  -4.987  0.00  0.00    -0.049 S 
ATOM      9  H   UNL     1       6.377 -10.203  -7.513  0.00  0.00    +0.157 HD
ENDROOT
BRANCH   1  13
ATOM     10  C   UNL     1       1.384  -4.853  -3.730  0.00  0.00    +0.135 A 
ATOM     11  C   UNL     1       1.821  -4.063  -4.787  0.00  0.00    +0.047 A 
ATOM     12  C   UNL     1       2.629  -4.600  -5.764  0.00  0.00    +0.011 A 
ATOM     13  C   UNL     1       3.011  -5.946  -5.691  0.00  0.00    -0.023 A 
ATOM     14  C   UNL     1       2.570  -6.737  -4.624  0.00  0.00    +0.027 A 
ATOM     15  C   UNL     1       1.765  -6.188  -3.650  0.00  0.00    +0.060 A 
ATOM     16 BR   UNL     1       1.172  -7.253  -2.204  0.00  0.00    -0.046 Br
BRANCH  10  17
ATOM     17  O   UNL     1       0.587  -4.317  -2.770  0.00  0.00    -0.480 OA
BRANCH  17  18
ATOM     18  C   UNL     1       0.234  -2.940  -2.914  0.00  0.00    +0.349 C 
BRANCH  18  19
ATOM     19  C   UNL     1      -0.647  -2.525  -1.764  0.00  0.00    +0.345 C 
ATOM     20  O   UNL     1      -0.942  -3.326  -0.908  0.00  0.00    -0.247 OA
BRANCH  19  21
ATOM     21  O   UNL     1      -1.105  -1.266  -1.689  0.00  0.00    -0.463 OA
BRANCH  21  23
ATOM     22  C   UNL     1      -2.356   0.527  -0.658  0.00  0.00    +0.048 C 
ATOM     23  C   UNL     1      -1.935  -0.942  -0.572  0.00  0.00    +0.229 C 
ENDBRANCH  21  23
ENDBRANCH  19  21
ENDBRANCH  18  19
ENDBRANCH  17  18
ENDBRANCH  10  17
ENDBRANCH   1  13
BRANCH   7  24
ATOM     24  C   UNL     1       5.825 -11.194  -3.646  0.00  0.00    +0.067 A 
ATOM     25  C   UNL     1       5.926 -10.119  -2.761  0.00  0.00    +0.030 A 
ATOM     26  C   UNL     1       5.629 -10.298  -1.426  0.00  0.00    +0.040 A 
ATOM     27  C   UNL     1       5.231 -11.541  -0.963  0.00  0.00    +0.124 A 
ATOM     28  C   UNL     1       5.129 -12.612  -1.836  0.00  0.00    +0.040 A 
ATOM     29  C   UNL     1       5.418 -12.444  -3.174  0.00  0.00    +0.030 A 
ATOM     30  F   UNL     1       4.941 -11.710   0.346  0.00  0.00    -0.205 F 
ENDBRANCH   7  24
TORSDOF 7
