REMARK  Name = ZINC09591067
REMARK  8 active torsions:
REMARK  status: ('A' for Active; 'I' for Inactive)
REMARK    1  A    between atoms: C_1  and  C_2
REMARK    2  A    between atoms: C_7  and  C_8
REMARK    3  A    between atoms: C_14  and  C_16
REMARK    4  A    between atoms: C_16  and  S_17
REMARK    5  A    between atoms: S_17  and  C_18
REMARK    6  A    between atoms: C_22  and  C_26
REMARK    7  A    between atoms: C_23  and  C_25
REMARK    8  A    between atoms: N_29  and  C_30
REMARK                            x       y       z     vdW  Elec       q    Type
REMARK                         _______ _______ _______ _____ _____    ______ ____
ROOT
ATOM      1  S   UNL     1      -0.584  11.069   0.269  0.00  0.00    -0.078 S 
ENDROOT
BRANCH   1   2
ATOM      2  C   UNL     1      -2.021  11.871   0.897  0.00  0.00    +0.178 A 
ATOM      3  N   UNL     1      -3.161  11.212   0.956  0.00  0.00    -0.215 NA
ATOM      4  C   UNL     1      -4.258  11.788   1.430  0.00  0.00    +0.117 A 
ATOM      5  C   UNL     1      -4.267  13.122   1.880  0.00  0.00    +0.076 A 
ATOM      6  C   UNL     1      -5.553  13.598   2.362  0.00  0.00    -0.026 A 
ATOM      7  C   UNL     1      -6.606  12.767   2.347  0.00  0.00    -0.008 A 
ATOM      8  S   UNL     1      -5.935  11.259   1.673  0.00  0.00    -0.073 S 
ATOM      9  C   UNL     1      -8.018  13.042   2.794  0.00  0.00    +0.052 C 
ATOM     10  C   UNL     1      -5.701  15.008   2.872  0.00  0.00    +0.045 C 
ATOM     11  C   UNL     1      -3.018  13.815   1.800  0.00  0.00    +0.268 A 
ATOM     12  O   UNL     1      -2.931  14.974   2.166  0.00  0.00    -0.267 OA
ATOM     13  N   UNL     1      -1.941  13.170   1.314  0.00  0.00    -0.255 N 
BRANCH  13  14
ATOM     14  C   UNL     1      -0.716  13.844   1.233  0.00  0.00    +0.052 A 
ATOM     15  C   UNL     1       0.323  13.503   2.090  0.00  0.00    +0.026 A 
ATOM     16  C   UNL     1       1.532  14.165   2.004  0.00  0.00    +0.002 A 
ATOM     17  C   UNL     1       1.706  15.174   1.074  0.00  0.00    +0.000 A 
ATOM     18  C   UNL     1       0.671  15.520   0.224  0.00  0.00    +0.002 A 
ATOM     19  C   UNL     1      -0.538  14.858   0.301  0.00  0.00    +0.026 A 
ENDBRANCH  13  14
ENDBRANCH   1   2
BRANCH   1  20
ATOM     20  C   UNL     1      -1.272   9.438  -0.107  0.00  0.00    +0.173 C 
BRANCH  20  27
ATOM     21  C   UNL     1       1.232   4.479  -2.398  0.00  0.00    +0.130 A 
ATOM     22  N   UNL     1       0.256   5.230  -1.902  0.00  0.00    -0.205 NA
ATOM     23  C   UNL     1       0.528   6.467  -1.555  0.00  0.00    +0.230 A 
ATOM     24  N   UNL     1       1.752   6.931  -1.705  0.00  0.00    -0.174 NA
ATOM     25  S   UNL     1       2.574   5.578  -2.356  0.00  0.00    +0.035 S 
ATOM     26  N   UNL     1      -0.475   7.286  -1.029  0.00  0.00    -0.253 N 
ATOM     27  C   UNL     1      -0.191   8.555  -0.674  0.00  0.00    +0.230 C 
ATOM     28  O   UNL     1       0.934   8.986  -0.811  0.00  0.00    -0.274 OA
ATOM     29  H   UNL     1      -1.496   6.895  -0.904  0.00  0.00    +0.158 HD
BRANCH  21  36
ATOM     30  C   UNL     1      -0.900   3.613  -4.151  0.00  0.00    +0.044 C 
ATOM     31  C   UNL     1       0.165   2.645  -3.704  0.00  0.00    -0.041 A 
ATOM     32  C   UNL     1       0.130   1.333  -4.130  0.00  0.00    +0.004 A 
ATOM     33  C   UNL     1       1.107   0.444  -3.721  0.00  0.00    +0.000 A 
ATOM     34  C   UNL     1       2.124   0.862  -2.882  0.00  0.00    +0.001 A 
ATOM     35  C   UNL     1       2.171   2.171  -2.449  0.00  0.00    +0.011 A 
ATOM     36  C   UNL     1       1.188   3.074  -2.858  0.00  0.00    +0.012 A 
ENDBRANCH  21  36
ENDBRANCH  20  27
ENDBRANCH   1  20
TORSDOF 5
