REMARK  Name = ZINC11998734
REMARK  6 active torsions:
REMARK  status: ('A' for Active; 'I' for Inactive)
REMARK    1  A    between atoms: C_3  and  C_15
REMARK    2  A    between atoms: C_5  and  N_7
REMARK    3  A    between atoms: N_17  and  C_18
REMARK    4  A    between atoms: C_18  and  C_19
REMARK    5  A    between atoms: C_19  and  C_21
REMARK    6  A    between atoms: C_19  and  N_58
REMARK                            x       y       z     vdW  Elec       q    Type
REMARK                         _______ _______ _______ _____ _____    ______ ____
ROOT
ATOM      1  C   UNL     1       2.797   1.016   0.933  0.00  0.00    +0.244 C 
ATOM      2  O   UNL     1       3.855   1.441   1.355  0.00  0.00    -0.270 OA
ATOM      3  N   UNL     1       2.710  -0.254   0.488  0.00  0.00    -0.312 N 
ATOM      4  H   UNL     1       1.866  -0.593   0.151  0.00  0.00    +0.149 HD
ENDROOT
BRANCH   1   7
ATOM      5  C   UNL     1      -0.720   2.225   0.400  0.00  0.00    +0.003 A 
ATOM      6  C   UNL     1       0.389   1.405   0.427  0.00  0.00    +0.013 A 
ATOM      7  C   UNL     1       1.605   1.891   0.910  0.00  0.00    +0.039 A 
ATOM      8  C   UNL     1       1.692   3.204   1.370  0.00  0.00    +0.038 A 
ATOM      9  C   UNL     1       0.571   4.019   1.344  0.00  0.00    +0.060 A 
ATOM     10  C   UNL     1      -0.635   3.526   0.861  0.00  0.00    +0.025 A 
BRANCH   9  11
ATOM     11  N   UNL     1       0.654   5.338   1.805  0.00  0.00    -0.144 N 
ATOM     12  C   UNL     1       1.537   5.808   2.698  0.00  0.00    +0.240 C 
ATOM     13  O   UNL     1       2.389   5.084   3.169  0.00  0.00    -0.274 OA
ATOM     14  C   UNL     1       1.451   7.250   3.098  0.00  0.00    +0.122 C 
ATOM     15  C   UNL     1       0.628   8.015   2.027  0.00  0.00    +0.198 C 
ATOM     16  S   UNL     1      -0.337   6.606   1.343  0.00  0.00    +0.052 S 
ATOM     17  O   UNL     1      -0.311   6.617  -0.078  0.00  0.00    -0.155 OA
ATOM     18  O   UNL     1      -1.550   6.427   2.059  0.00  0.00    -0.155 OA
ENDBRANCH   9  11
ENDBRANCH   1   7
BRANCH   3  19
ATOM     19  C   UNL     1       3.890  -1.121   0.511  0.00  0.00    +0.097 C 
BRANCH  19  20
ATOM     20  C   UNL     1       3.523  -2.498  -0.045  0.00  0.00    +0.016 C 
BRANCH  20  27
ATOM     21  C   UNL     1       2.678  -3.091   2.155  0.00  0.00    -0.078 C 
ATOM     22  C   UNL     1       1.661  -3.883   2.931  0.00  0.00    -0.019 C 
ATOM     23  C   UNL     1       2.166  -5.336   3.060  0.00  0.00    -0.002 C 
ATOM     24  C   UNL     1       1.952  -6.104   1.839  0.00  0.00    -0.002 C 
ATOM     25  C   UNL     1       2.705  -5.505   0.633  0.00  0.00    -0.019 C 
ATOM     26  C   UNL     1       1.927  -4.322   0.124  0.00  0.00    -0.078 C 
ATOM     27  N   UNL     1       2.351  -2.997   0.692  0.00  0.00    +0.387 N 
ATOM     28  H   UNL     1       1.578  -2.332   0.575  0.00  0.00    -0.081 HD
ENDBRANCH  20  27
BRANCH  20  29
ATOM     29  C   UNL     1       4.702  -3.426   0.092  0.00  0.00    +0.093 A 
ATOM     30  C   UNL     1       5.376  -3.997  -0.922  0.00  0.00    +0.043 A 
ATOM     31  C   UNL     1       6.398  -4.784  -0.344  0.00  0.00    +0.041 A 
ATOM     32  C   UNL     1       6.287  -4.647   0.990  0.00  0.00    +0.195 A 
ATOM     33  O   UNL     1       5.262  -3.819   1.248  0.00  0.00    -0.469 OA
ENDBRANCH  20  29
ENDBRANCH  19  20
ENDBRANCH   3  19
TORSDOF 6
