REMARK  Name = ZINC21076655
REMARK  6 active torsions:
REMARK  status: ('A' for Active; 'I' for Inactive)
REMARK    1  A    between atoms: C_1  and  N_2
REMARK    2  A    between atoms: N_7  and  C_10
REMARK    3  A    between atoms: C_12  and  S_14
REMARK    4  A    between atoms: S_14  and  C_15
REMARK    5  A    between atoms: N_20  and  N_21
REMARK    6  A    between atoms: C_22  and  C_23
REMARK                            x       y       z     vdW  Elec       q    Type
REMARK                         _______ _______ _______ _____ _____    ______ ____
ROOT
ATOM      1  C   UNL     1      -5.362  -3.236   0.011  0.00  0.00    +0.218 A 
ATOM      2  N   UNL     1      -6.596  -3.751   0.009  0.00  0.00    -0.186 NA
ATOM      3  C   UNL     1      -6.527  -5.066   0.002  0.00  0.00    +0.232 A 
ATOM      4  N   UNL     1      -5.222  -5.415  -0.000  0.00  0.00    -0.245 N 
ATOM      5  N   UNL     1      -4.491  -4.217   0.001  0.00  0.00    -0.144 NA
ATOM      6  N   UNL     1      -7.601  -5.936  -0.001  0.00  0.00    -0.205 N 
ATOM      7  H   UNL     1      -7.449  -6.894  -0.005  0.00  0.00    +0.177 HD
ATOM      8  H   UNL     1      -4.862  -6.316  -0.004  0.00  0.00    +0.192 HD
ENDROOT
BRANCH   6   9
ATOM      9  N   UNL     1      -8.909  -5.434   0.002  0.00  0.00    -0.187 NA
ATOM     10  C   UNL     1      -9.918  -6.252  -0.001  0.00  0.00    +0.140 C 
BRANCH  10  11
ATOM     11  C   UNL     1     -11.293  -5.725   0.003  0.00  0.00    +0.020 A 
ATOM     12  C   UNL     1     -12.442  -6.452   0.006  0.00  0.00    +0.093 A 
ATOM     13  N   UNL     1     -13.517  -5.612   0.009  0.00  0.00    -0.360 N 
ATOM     14  H   UNL     1     -14.444  -5.897   0.012  0.00  0.00    +0.165 HD
ATOM     15  C   UNL     1     -13.097  -4.299   0.007  0.00  0.00    +0.047 A 
ATOM     16  C   UNL     1     -11.692  -4.306   0.009  0.00  0.00    +0.008 A 
ATOM     17  C   UNL     1     -10.988  -3.104   0.013  0.00  0.00    +0.010 A 
ATOM     18  C   UNL     1     -11.676  -1.911   0.019  0.00  0.00    +0.001 A 
ATOM     19  C   UNL     1     -13.063  -1.902   0.021  0.00  0.00    +0.002 A 
ATOM     20  C   UNL     1     -13.773  -3.083   0.008  0.00  0.00    +0.026 A 
ENDBRANCH  10  11
ENDBRANCH   6   9
BRANCH   1  21
ATOM     21  S   UNL     1      -4.970  -1.519   0.018  0.00  0.00    -0.009 S 
BRANCH  21  33
ATOM     22  C   UNL     1      -0.018   1.461   0.010  0.00  0.00    +0.155 C 
ATOM     23  N   UNL     1       0.002  -0.004   0.002  0.00  0.00    -0.279 N 
ATOM     24  C   UNL     1      -1.187  -0.712   0.004  0.00  0.00    +0.171 A 
ATOM     25  C   UNL     1      -1.141  -2.125  -0.005  0.00  0.00    +0.173 A 
ATOM     26  C   UNL     1       0.098  -2.760  -0.014  0.00  0.00    +0.284 A 
ATOM     27  O   UNL     1       0.175  -4.104  -0.023  0.00  0.00    -0.265 OA
ATOM     28  N   UNL     1       1.235  -2.004  -0.015  0.00  0.00    -0.262 N 
ATOM     29  C   UNL     1       1.177  -0.662  -0.013  0.00  0.00    +0.333 A 
ATOM     30  O   UNL     1       2.213  -0.024  -0.019  0.00  0.00    -0.246 OA
ATOM     31  C   UNL     1       2.540  -2.669  -0.025  0.00  0.00    +0.157 C 
ATOM     32  N   UNL     1      -2.431  -2.549  -0.001  0.00  0.00    -0.213 NA
ATOM     33  C   UNL     1      -3.208  -1.484   0.009  0.00  0.00    +0.199 A 
ATOM     34  N   UNL     1      -2.465  -0.374   0.012  0.00  0.00    -0.202 NA
ENDBRANCH  21  33
ENDBRANCH   1  21
TORSDOF 4
