REMARK  Name = ZINC36901716
REMARK  4 active torsions:
REMARK  status: ('A' for Active; 'I' for Inactive)
REMARK    1  A    between atoms: C_1  and  C_2
REMARK    2  A    between atoms: C_3  and  C_8
REMARK    3  A    between atoms: C_8  and  N_9
REMARK    4  A    between atoms: N_9  and  C_10
REMARK                            x       y       z     vdW  Elec       q    Type
REMARK                         _______ _______ _______ _____ _____    ______ ____
ROOT
ATOM      1  N   UNL     1       1.347   0.058  -2.960  0.00  0.00    -0.338 N 
ATOM      2  H   UNL     1       1.632   0.626  -2.228  0.00  0.00    +0.146 HD
ENDROOT
BRANCH   1   3
ATOM      3  C   UNL     1       1.606   0.438  -4.281  0.00  0.00    +0.056 A 
ATOM      4  C   UNL     1       0.564   0.842  -5.106  0.00  0.00    +0.041 A 
ATOM      5  C   UNL     1       0.824   1.217  -6.411  0.00  0.00    +0.032 A 
ATOM      6  C   UNL     1       2.119   1.190  -6.895  0.00  0.00    +0.020 A 
ATOM      7  C   UNL     1       3.159   0.787  -6.076  0.00  0.00    +0.032 A 
ATOM      8  C   UNL     1       2.907   0.416  -4.769  0.00  0.00    +0.041 A 
ATOM      9 BR   UNL     1       4.329  -0.127  -3.647  0.00  0.00    -0.048 Br
ATOM     10 BR   UNL     1       2.470   1.703  -8.681  0.00  0.00    -0.050 Br
ATOM     11 BR   UNL     1      -1.207   0.879  -4.446  0.00  0.00    -0.048 Br
ENDBRANCH   1   3
BRANCH   1  12
ATOM     12  C   UNL     1       0.644  -1.197  -2.683  0.00  0.00    +0.140 C 
BRANCH  12  15
ATOM     13  C   UNL     1      -0.475  -0.190   0.105  0.00  0.00    +0.068 C 
ATOM     14  C   UNL     1       0.558  -1.269  -0.096  0.00  0.00    +0.064 A 
ATOM     15  C   UNL     1       1.051  -1.712  -1.327  0.00  0.00    +0.010 A 
ATOM     16  C   UNL     1       1.959  -2.687  -1.085  0.00  0.00    +0.110 A 
ATOM     17  N   UNL     1       2.037  -2.853   0.252  0.00  0.00    -0.284 N 
ATOM     18  H   UNL     1       2.607  -3.486   0.716  0.00  0.00    +0.188 HD
ATOM     19  N   UNL     1       1.151  -1.948   0.851  0.00  0.00    -0.179 NA
ENDBRANCH  12  15
ENDBRANCH   1  12
TORSDOF 3
