REMARK  Name = ZINC35890765
REMARK  12 active torsions:
REMARK  status: ('A' for Active; 'I' for Inactive)
REMARK    1  A    between atoms: C_1  and  C_2
REMARK    2  A    between atoms: C_6  and  O_8
REMARK    3  A    between atoms: O_8  and  C_9
REMARK    4  A    between atoms: C_9  and  C_11
REMARK    5  A    between atoms: C_9  and  C_30
REMARK    6  A    between atoms: C_11  and  N_12
REMARK    7  A    between atoms: N_12  and  C_13
REMARK    8  A    between atoms: N_12  and  C_23
REMARK    9  A    between atoms: C_13  and  C_14
REMARK   10  A    between atoms: C_23  and  C_24
REMARK   11  A    between atoms: N_32  and  C_33
REMARK   12  A    between atoms: C_33  and  C_34
REMARK                            x       y       z     vdW  Elec       q    Type
REMARK                         _______ _______ _______ _____ _____    ______ ____
ROOT
ATOM      1  C   UNL     1       0.178  -4.585   1.906  0.00  0.00    +0.242 C 
ENDROOT
BRANCH   1   2
ATOM      2  C   UNL     1      -1.082  -5.382   1.685  0.00  0.00    +0.252 C 
ATOM      3  O   UNL     1      -2.146  -4.814   1.564  0.00  0.00    -0.272 OA
ATOM      4  N   UNL     1      -1.025  -6.727   1.621  0.00  0.00    -0.305 N 
ATOM      5  H   UNL     1      -0.173  -7.182   1.717  0.00  0.00    +0.149 HD
BRANCH   4   6
ATOM      6  C   UNL     1      -2.249  -7.503   1.405  0.00  0.00    +0.178 C 
BRANCH   6   7
ATOM      7  C   UNL     1      -1.914  -8.972   1.374  0.00  0.00    +0.122 A 
ATOM      8  C   UNL     1      -1.897  -9.798   2.436  0.00  0.00    +0.046 A 
ATOM      9  C   UNL     1      -1.533 -11.076   1.954  0.00  0.00    +0.041 A 
ATOM     10  C   UNL     1      -1.349 -10.955   0.627  0.00  0.00    +0.195 A 
ATOM     11  O   UNL     1      -1.587  -9.680   0.281  0.00  0.00    -0.466 OA
ENDBRANCH   6   7
ENDBRANCH   4   6
ENDBRANCH   1   2
BRANCH   1  12
ATOM     12  O   UNL     1      -0.121  -3.190   1.820  0.00  0.00    -0.482 OA
BRANCH  12  18
ATOM     13  C   UNL     1      -0.960   0.683  -1.030  0.00  0.00    +0.044 C 
ATOM     14  C   UNL     1      -0.569  -0.762  -0.852  0.00  0.00    -0.047 A 
ATOM     15  C   UNL     1      -0.255  -1.533  -1.956  0.00  0.00    +0.003 A 
ATOM     16  C   UNL     1       0.104  -2.858  -1.796  0.00  0.00    +0.004 A 
ATOM     17  C   UNL     1       0.150  -3.416  -0.533  0.00  0.00    +0.046 A 
ATOM     18  C   UNL     1      -0.165  -2.644   0.576  0.00  0.00    +0.122 A 
ATOM     19  C   UNL     1      -0.519  -1.312   0.413  0.00  0.00    +0.049 A 
ENDBRANCH  12  18
ENDBRANCH   1  12
BRANCH   1  20
ATOM     20  C   UNL     1       0.744  -4.900   3.292  0.00  0.00    -0.023 C 
BRANCH  20  21
ATOM     21  N   UNL     1       2.071  -4.285   3.430  0.00  0.00    +0.387 N 
ATOM     22  H   UNL     1       2.650  -4.553   2.648  0.00  0.00    -0.081 HD
BRANCH  21  23
ATOM     23  C   UNL     1       1.932  -2.823   3.457  0.00  0.00    -0.043 C 
BRANCH  23  24
ATOM     24  C   UNL     1       3.296  -2.191   3.564  0.00  0.00    -0.060 A 
ATOM     25  C   UNL     1       3.843  -1.936   4.808  0.00  0.00    +0.005 A 
ATOM     26  C   UNL     1       5.094  -1.357   4.911  0.00  0.00    +0.050 A 
ATOM     27  C   UNL     1       5.803  -1.029   3.767  0.00  0.00    +0.166 A 
ATOM     28  C   UNL     1       5.252  -1.286   2.514  0.00  0.00    +0.166 A 
ATOM     29  C   UNL     1       4.000  -1.872   2.418  0.00  0.00    +0.051 A 
ATOM     30  O   UNL     1       6.136  -0.877   1.557  0.00  0.00    -0.453 OA
ATOM     31  C   UNL     1       7.054   0.003   2.232  0.00  0.00    +0.466 C 
ATOM     32  O   UNL     1       7.032  -0.460   3.595  0.00  0.00    -0.453 OA
ENDBRANCH  23  24
ENDBRANCH  21  23
BRANCH  21  33
ATOM     33  C   UNL     1       2.695  -4.741   4.679  0.00  0.00    -0.046 C 
BRANCH  33  34
ATOM     34  C   UNL     1       2.972  -6.243   4.592  0.00  0.00    +0.102 C 
ATOM     35  C   UNL     1       3.579  -6.741   5.922  0.00  0.00    +0.032 C 
ATOM     36  C   UNL     1       4.648  -7.757   5.436  0.00  0.00    +0.030 C 
ATOM     37  C   UNL     1       5.113  -7.087   4.119  0.00  0.00    +0.160 C 
ATOM     38  O   UNL     1       3.926  -6.501   3.556  0.00  0.00    -0.378 OA
ENDBRANCH  33  34
ENDBRANCH  21  33
ENDBRANCH  20  21
ENDBRANCH   1  20
TORSDOF 11
