REMARK  Name = ZINC43518054
REMARK  6 active torsions:
REMARK  status: ('A' for Active; 'I' for Inactive)
REMARK    1  A    between atoms: C_1  and  C_2
REMARK    2  A    between atoms: C_2  and  C_4
REMARK    3  A    between atoms: C_2  and  O_6
REMARK    4  A    between atoms: O_6  and  C_7
REMARK    5  A    between atoms: C_10  and  N_16
REMARK    6  A    between atoms: C_12  and  C_13
REMARK                            x       y       z     vdW  Elec       q    Type
REMARK                         _______ _______ _______ _____ _____    ______ ____
ROOT
ATOM      1  C   UNL     1      -1.868  -0.817   1.220  0.00  0.00    +0.137 A 
ATOM      2  C   UNL     1      -1.157  -0.556   2.382  0.00  0.00    +0.048 A 
ATOM      3  C   UNL     1      -1.693  -0.879   3.611  0.00  0.00    +0.026 A 
ATOM      4  C   UNL     1      -2.951  -1.469   3.697  0.00  0.00    +0.026 A 
ATOM      5  C   UNL     1      -3.673  -1.736   2.548  0.00  0.00    +0.041 A 
ATOM      6  C   UNL     1      -3.139  -1.406   1.298  0.00  0.00    +0.106 A 
ENDROOT
BRANCH   6   7
ATOM      7  C   UNL     1      -3.903  -1.681   0.070  0.00  0.00    +0.390 C 
ATOM      8  O   UNL     1      -5.011  -2.194   0.142  0.00  0.00    -0.240 OA
ATOM      9  O   UNL     1      -3.430  -1.395  -1.021  0.00  0.00    -0.240 OA
ENDBRANCH   6   7
BRANCH   4  10
ATOM     10  N   UNL     1      -3.486  -1.793   4.949  0.00  0.00    -0.358 N 
ATOM     11  H   UNL     1      -2.981  -1.607   5.755  0.00  0.00    +0.142 HD
ATOM     12  H   UNL     1      -4.363  -2.204   5.010  0.00  0.00    +0.142 HD
ENDBRANCH   4  10
BRANCH   1  13
ATOM     13  O   UNL     1      -1.339  -0.499   0.012  0.00  0.00    -0.474 OA
BRANCH  13  15
ATOM     14  C   UNL     1      -0.004   1.500   0.266  0.00  0.00    +0.068 C 
ATOM     15  C   UNL     1       0.003  -0.007   0.001  0.00  0.00    +0.271 C 
BRANCH  15  16
ATOM     16  C   UNL     1       0.612  -0.272  -1.313  0.00  0.00    +0.107 C 
ATOM     17  N   UNL     1       1.082  -0.476  -2.326  0.00  0.00    -0.193 NA
ENDBRANCH  15  16
ENDBRANCH  13  15
ENDBRANCH   1  13
TORSDOF 5
