REMARK  Name = ZINC00685672
REMARK  11 active torsions:
REMARK  status: ('A' for Active; 'I' for Inactive)
REMARK    1  A    between atoms: C_1  and  C_2
REMARK    2  A    between atoms: C_2  and  C_3
REMARK    3  A    between atoms: C_15  and  C_31
REMARK    4  A    between atoms: C_21  and  C_23
REMARK    5  A    between atoms: C_26  and  O_29
REMARK    6  A    between atoms: O_29  and  C_30
REMARK    7  A    between atoms: C_34  and  N_37
REMARK    8  A    between atoms: N_37  and  C_38
REMARK    9  A    between atoms: N_37  and  C_40
REMARK   10  A    between atoms: C_38  and  C_39
REMARK   11  A    between atoms: C_40  and  C_41
REMARK                            x       y       z     vdW  Elec       q    Type
REMARK                         _______ _______ _______ _____ _____    ______ ____
ROOT
ATOM      1  C   UNL     1       0.743  -0.399   1.362  0.00  0.00    +0.220 C 
ATOM      2  O   UNL     1       1.276   0.328   2.174  0.00  0.00    -0.275 OA
ATOM      3  N   UNL     1       0.837  -1.737   1.492  0.00  0.00    -0.258 N 
ATOM      4  C   UNL     1       0.225  -2.563   0.548  0.00  0.00    +0.058 A 
ATOM      5  C   UNL     1      -1.152  -2.596   0.399  0.00  0.00    +0.025 A 
ATOM      6  C   UNL     1      -1.716  -3.466  -0.518  0.00  0.00    +0.002 A 
ATOM      7  C   UNL     1      -0.915  -4.300  -1.277  0.00  0.00    +0.002 A 
ATOM      8  C   UNL     1       0.462  -4.257  -1.142  0.00  0.00    +0.025 A 
ATOM      9  C   UNL     1       1.028  -3.372  -0.241  0.00  0.00    +0.053 A 
ATOM     10  N   UNL     1       2.403  -3.196  -0.137  0.00  0.00    -0.316 N 
ATOM     11  C   UNL     1       3.137  -3.458   0.975  0.00  0.00    +0.017 C 
ATOM     12  C   UNL     1       4.420  -4.231   0.724  0.00  0.00    +0.059 C 
ATOM     13  C   UNL     1       4.739  -5.116   1.928  0.00  0.00    +0.032 C 
ATOM     14  C   UNL     1       4.899  -4.203   3.149  0.00  0.00    +0.088 C 
ATOM     15  C   UNL     1       3.643  -3.400   3.312  0.00  0.00    +0.163 C 
ATOM     16  O   UNL     1       3.333  -3.017   4.423  0.00  0.00    -0.292 OA
ATOM     17  C   UNL     1       2.807  -3.071   2.219  0.00  0.00    +0.037 C 
ATOM     18  C   UNL     1       1.576  -2.296   2.604  0.00  0.00    +0.147 C 
ATOM     19  H   UNL     1       2.873  -2.863  -0.917  0.00  0.00    +0.152 HD
ENDROOT
BRANCH  18  20
ATOM     20  C   UNL     1       0.660  -3.212   3.374  0.00  0.00    -0.022 A 
ATOM     21  C   UNL     1       0.095  -4.308   2.748  0.00  0.00    +0.009 A 
ATOM     22  C   UNL     1      -0.745  -5.149   3.451  0.00  0.00    +0.046 A 
ATOM     23  C   UNL     1      -1.021  -4.894   4.786  0.00  0.00    +0.120 A 
ATOM     24  C   UNL     1      -0.453  -3.795   5.412  0.00  0.00    +0.046 A 
ATOM     25  C   UNL     1       0.391  -2.959   4.706  0.00  0.00    +0.009 A 
BRANCH  23  26
ATOM     26  O   UNL     1      -1.848  -5.720   5.480  0.00  0.00    -0.495 OA
ATOM     27  C   UNL     1      -2.087  -5.396   6.851  0.00  0.00    +0.277 C 
ENDBRANCH  23  26
ENDBRANCH  18  20
BRANCH  13  28
ATOM     28  C   UNL     1       6.020  -5.871   1.682  0.00  0.00    -0.043 A 
ATOM     29  C   UNL     1       7.198  -5.181   1.466  0.00  0.00    +0.006 A 
ATOM     30  C   UNL     1       8.373  -5.874   1.240  0.00  0.00    +0.022 A 
ATOM     31  C   UNL     1       8.370  -7.256   1.232  0.00  0.00    +0.013 A 
ATOM     32  C   UNL     1       7.192  -7.946   1.449  0.00  0.00    +0.022 A 
ATOM     33  C   UNL     1       6.018  -7.253   1.678  0.00  0.00    +0.006 A 
BRANCH  31  34
ATOM     34  N   UNL     1       9.558  -7.957   1.003  0.00  0.00    -0.394 NA
ATOM     35  H   UNL     1      10.313  -7.302   0.865  0.00  0.00    +0.126 HD
BRANCH  34  36
ATOM     36  C   UNL     1       9.855  -8.809   2.161  0.00  0.00    +0.081 C 
ATOM     37  C   UNL     1      11.216  -9.480   1.966  0.00  0.00    +0.022 C 
ENDBRANCH  34  36
BRANCH  34  38
ATOM     38  C   UNL     1       9.410  -8.793  -0.196  0.00  0.00    +0.081 C 
ATOM     39  C   UNL     1       9.225  -7.898  -1.423  0.00  0.00    +0.022 C 
ENDBRANCH  34  38
ENDBRANCH  31  34
ENDBRANCH  13  28
BRANCH   1  41
ATOM     40  C   UNL     1       0.025   1.722   0.295  0.00  0.00    +0.013 C 
ATOM     41  C   UNL     1      -0.023   0.195   0.208  0.00  0.00    +0.093 C 
ENDBRANCH   1  41
TORSDOF 7
