REMARK  Name = ZINC19592416
REMARK  8 active torsions:
REMARK  status: ('A' for Active; 'I' for Inactive)
REMARK    1  A    between atoms: C_1  and  O_2
REMARK    2  A    between atoms: O_2  and  C_3
REMARK    3  A    between atoms: C_3  and  C_5
REMARK    4  A    between atoms: C_5  and  C_32
REMARK    5  A    between atoms: C_10  and  C_13
REMARK    6  A    between atoms: N_22  and  C_25
REMARK    7  A    between atoms: C_32  and  C_33
REMARK    8  A    between atoms: C_36  and  O_39
REMARK                            x       y       z     vdW  Elec       q    Type
REMARK                         _______ _______ _______ _____ _____    ______ ____
ROOT
ATOM      1  C   UNL     1       0.679  -2.115   1.088  0.00  0.00    +0.133 C 
ATOM      2  C   UNL     1       0.756  -2.593   2.554  0.00  0.00    +0.121 C 
ATOM      3  C   UNL     1      -0.714  -2.893   2.953  0.00  0.00    +0.111 C 
ATOM      4  C   UNL     1      -1.542  -2.554   1.696  0.00  0.00    +0.098 C 
ATOM      5  N   UNL     1      -0.580  -2.705   0.566  0.00  0.00    -0.293 NA
ATOM      6  C   UNL     1      -0.715  -4.389   3.179  0.00  0.00    +0.232 C 
ATOM      7  O   UNL     1      -1.678  -5.046   3.509  0.00  0.00    -0.274 OA
ATOM      8  N   UNL     1       0.512  -4.873   2.956  0.00  0.00    -0.207 N 
ATOM      9  C   UNL     1       1.431  -3.945   2.601  0.00  0.00    +0.232 C 
ATOM     10  O   UNL     1       2.601  -4.153   2.358  0.00  0.00    -0.274 OA
ATOM     11  H   UNL     1      -0.904  -2.204  -0.248  0.00  0.00    +0.124 HD
ENDROOT
BRANCH   4  12
ATOM     12  C   UNL     1      -2.678  -3.533   1.536  0.00  0.00    -0.027 A 
ATOM     13  C   UNL     1      -2.442  -4.782   0.994  0.00  0.00    +0.005 A 
ATOM     14  C   UNL     1      -3.482  -5.680   0.847  0.00  0.00    +0.003 A 
ATOM     15  C   UNL     1      -4.760  -5.330   1.241  0.00  0.00    +0.038 A 
ATOM     16  C   UNL     1      -4.997  -4.079   1.784  0.00  0.00    +0.124 A 
ATOM     17  C   UNL     1      -3.953  -3.182   1.937  0.00  0.00    +0.043 A 
ATOM     18  F   UNL     1      -6.245  -3.735   2.170  0.00  0.00    -0.205 F 
ENDBRANCH   4  12
BRANCH   8  19
ATOM     19  C   UNL     1       0.827  -6.234   3.086  0.00  0.00    +0.079 A 
ATOM     20  C   UNL     1       0.710  -7.082   1.994  0.00  0.00    +0.027 A 
ATOM     21  C   UNL     1       1.020  -8.422   2.125  0.00  0.00    +0.002 A 
ATOM     22  C   UNL     1       1.447  -8.919   3.343  0.00  0.00    +0.003 A 
ATOM     23  C   UNL     1       1.565  -8.078   4.434  0.00  0.00    +0.040 A 
ATOM     24  C   UNL     1       1.261  -6.734   4.308  0.00  0.00    +0.145 A 
ATOM     25  F   UNL     1       1.381  -5.911   5.373  0.00  0.00    -0.204 F 
ENDBRANCH   8  19
BRANCH   1  26
ATOM     26  C   UNL     1       0.618  -0.611   1.029  0.00  0.00    +0.328 C 
ATOM     27  O   UNL     1       1.124   0.049   1.905  0.00  0.00    -0.249 OA
BRANCH  26  29
ATOM     28  C   UNL     1      -0.017   1.425   0.010  0.00  0.00    +0.280 C 
ATOM     29  O   UNL     1       0.002  -0.004   0.002  0.00  0.00    -0.467 OA
ENDBRANCH  26  29
ENDBRANCH   1  26
BRANCH   1  30
ATOM     30  C   UNL     1       1.879  -2.631   0.293  0.00  0.00    +0.069 C 
BRANCH  30  31
ATOM     31  C   UNL     1       1.760  -2.187  -1.142  0.00  0.00    -0.045 A 
ATOM     32  C   UNL     1       1.097  -2.983  -2.058  0.00  0.00    +0.007 A 
ATOM     33  C   UNL     1       0.987  -2.578  -3.374  0.00  0.00    +0.045 A 
ATOM     34  C   UNL     1       1.541  -1.371  -3.776  0.00  0.00    +0.117 A 
ATOM     35  C   UNL     1       2.205  -0.574  -2.855  0.00  0.00    +0.045 A 
ATOM     36  C   UNL     1       2.308  -0.981  -1.539  0.00  0.00    +0.007 A 
BRANCH  34  37
ATOM     37  O   UNL     1       1.434  -0.971  -5.071  0.00  0.00    -0.507 OA
ATOM     38  H   UNL     1       0.645  -0.443  -5.255  0.00  0.00    +0.292 HD
ENDBRANCH  34  37
ENDBRANCH  30  31
ENDBRANCH   1  30
TORSDOF 7
