REMARK  Name = ZINC12496866
REMARK  10 active torsions:
REMARK  status: ('A' for Active; 'I' for Inactive)
REMARK    1  A    between atoms: C_1  and  C_2
REMARK    2  A    between atoms: C_7  and  C_8
REMARK    3  A    between atoms: N_16  and  C_19
REMARK    4  A    between atoms: C_26  and  C_27
REMARK    5  A    between atoms: C_26  and  C_31
REMARK    6  A    between atoms: C_27  and  C_28
REMARK    7  A    between atoms: C_28  and  S_29
REMARK    8  A    between atoms: S_29  and  C_30
REMARK    9  A    between atoms: C_31  and  O_33
REMARK   10  A    between atoms: O_33  and  C_34
REMARK                            x       y       z     vdW  Elec       q    Type
REMARK                         _______ _______ _______ _____ _____    ______ ____
ROOT
ATOM      1  C   UNL     1      -2.506   0.944   0.138  0.00  0.00    -0.026 C 
ATOM      2  C   UNL     1      -3.023   0.826  -1.250  0.00  0.00    +0.077 C 
ATOM      3  C   UNL     1      -2.208  -0.429  -1.768  0.00  0.00    +0.086 C 
ATOM      4  C   UNL     1      -2.788  -0.506  -3.127  0.00  0.00    +0.229 C 
ATOM      5  O   UNL     1      -3.025  -1.506  -3.770  0.00  0.00    -0.275 OA
ATOM      6  N   UNL     1      -2.997   0.794  -3.506  0.00  0.00    -0.210 N 
ATOM      7  C   UNL     1      -2.949   1.665  -2.446  0.00  0.00    +0.229 C 
ATOM      8  O   UNL     1      -2.854   2.873  -2.486  0.00  0.00    -0.275 OA
ATOM      9  C   UNL     1      -2.502  -1.357  -0.613  0.00  0.00    +0.044 C 
ATOM     10  N   UNL     1      -2.279  -0.466   0.566  0.00  0.00    +0.395 N 
ATOM     11  H   UNL     1      -2.937  -0.711   1.315  0.00  0.00    -0.083 HD
ATOM     12  H   UNL     1      -1.316  -0.575   0.906  0.00  0.00    -0.083 HD
ENDROOT
BRANCH   1  19
ATOM     13  C   UNL     1      -2.548   3.828   0.314  0.00  0.00    +0.044 C 
ATOM     14  C   UNL     1      -1.233   3.097   0.237  0.00  0.00    -0.049 A 
ATOM     15  C   UNL     1      -0.046   3.806   0.245  0.00  0.00    +0.003 A 
ATOM     16  C   UNL     1       1.161   3.136   0.175  0.00  0.00    +0.000 A 
ATOM     17  C   UNL     1       1.181   1.756   0.097  0.00  0.00    +0.000 A 
ATOM     18  C   UNL     1      -0.005   1.046   0.088  0.00  0.00    +0.002 A 
ATOM     19  C   UNL     1      -1.212   1.717   0.153  0.00  0.00    -0.058 A 
ENDBRANCH   1  19
BRANCH   6  20
ATOM     20  C   UNL     1      -3.235   1.192  -4.830  0.00  0.00    +0.044 A 
ATOM     21  C   UNL     1      -3.262   0.245  -5.845  0.00  0.00    +0.027 A 
ATOM     22  C   UNL     1      -3.502   0.637  -7.147  0.00  0.00    +0.040 A 
ATOM     23  C   UNL     1      -3.704   1.975  -7.442  0.00  0.00    +0.124 A 
ATOM     24  C   UNL     1      -3.672   2.921  -6.431  0.00  0.00    +0.040 A 
ATOM     25  C   UNL     1      -3.439   2.532  -5.127  0.00  0.00    +0.027 A 
ATOM     26  F   UNL     1      -3.933   2.358  -8.717  0.00  0.00    -0.205 F 
ENDBRANCH   6  20
BRANCH   9  27
ATOM     27  C   UNL     1      -1.547  -2.523  -0.602  0.00  0.00    +0.297 C 
ATOM     28  O   UNL     1      -1.091  -2.941  -1.640  0.00  0.00    -0.252 OA
BRANCH  27  29
ATOM     29  O   UNL     1      -1.203  -3.098   0.561  0.00  0.00    -0.469 OA
ATOM     30  C   UNL     1      -0.279  -4.216   0.496  0.00  0.00    +0.280 C 
ENDBRANCH  27  29
ENDBRANCH   9  27
BRANCH   9  31
ATOM     31  C   UNL     1      -3.951  -1.844  -0.661  0.00  0.00    +0.010 C 
BRANCH  31  32
ATOM     32  C   UNL     1      -4.288  -2.570   0.643  0.00  0.00    +0.068 C 
BRANCH  32  33
ATOM     33  S   UNL     1      -6.007  -3.148   0.586  0.00  0.00    -0.164 S 
ATOM     34  C   UNL     1      -6.245  -3.976   2.182  0.00  0.00    +0.084 C 
ENDBRANCH  32  33
ENDBRANCH  31  32
ENDBRANCH   9  31
TORSDOF 7
