REMARK  Name = ZINC05415050
REMARK  6 active torsions:
REMARK  status: ('A' for Active; 'I' for Inactive)
REMARK    1  A    between atoms: C_4  and  O_34
REMARK    2  A    between atoms: C_5  and  C_7
REMARK    3  A    between atoms: C_7  and  N_56
REMARK    4  A    between atoms: C_18  and  C_23
REMARK    5  A    between atoms: C_26  and  O_29
REMARK    6  A    between atoms: O_29  and  C_30
REMARK                            x       y       z     vdW  Elec       q    Type
REMARK                         _______ _______ _______ _____ _____    ______ ____
ROOT
ATOM      1  C   UNL     1       3.848   2.976  -1.592  0.00  0.00    -0.073 C 
ATOM      2  C   UNL     1       3.649   3.111  -0.090  0.00  0.00    -0.007 C 
ATOM      3  C   UNL     1       3.576   1.734   0.575  0.00  0.00    +0.011 C 
ATOM      4  C   UNL     1       2.437   0.957  -0.095  0.00  0.00    +0.020 C 
ATOM      5  C   UNL     1       2.777   0.803  -1.586  0.00  0.00    -0.069 C 
ATOM      6  C   UNL     1       1.161   1.764   0.001  0.00  0.00    +0.023 A 
ATOM      7  C   UNL     1      -0.013   1.076   0.008  0.00  0.00    +0.022 A 
ATOM      8  C   UNL     1      -1.236   1.749   0.018  0.00  0.00    +0.015 A 
ATOM      9  C   UNL     1      -1.231   3.135  -0.002  0.00  0.00    +0.047 A 
ATOM     10  C   UNL     1       0.010   3.810  -0.022  0.00  0.00    +0.259 A 
ATOM     11  O   UNL     1       0.036   5.026  -0.112  0.00  0.00    -0.267 OA
ATOM     12  N   UNL     1       1.173   3.117   0.058  0.00  0.00    -0.311 N 
ATOM     13  C   UNL     1       2.388   3.889   0.245  0.00  0.00    +0.126 C 
ATOM     14  N   UNL     1       2.772   2.156  -2.186  0.00  0.00    +0.383 N 
ATOM     15  H   UNL     1       1.867   2.603  -1.993  0.00  0.00    -0.081 HD
ENDROOT
BRANCH   9  16
ATOM     16  C   UNL     1      -2.503   3.894  -0.007  0.00  0.00    -0.012 A 
ATOM     17  C   UNL     1      -2.846   4.675  -1.111  0.00  0.00    +0.012 A 
ATOM     18  C   UNL     1      -4.033   5.377  -1.115  0.00  0.00    +0.046 A 
ATOM     19  C   UNL     1      -4.881   5.315  -0.018  0.00  0.00    +0.130 A 
ATOM     20  C   UNL     1      -4.540   4.543   1.085  0.00  0.00    +0.046 A 
ATOM     21  C   UNL     1      -3.357   3.835   1.093  0.00  0.00    +0.012 A 
BRANCH  19  22
ATOM     22  O   UNL     1      -6.048   6.012  -0.022  0.00  0.00    -0.406 OA
BRANCH  22  23
ATOM     23  C   UNL     1      -6.337   6.785  -1.189  0.00  0.00    +0.575 C 
ATOM     24  F   UNL     1      -6.398   5.942  -2.304  0.00  0.00    -0.133 F 
ATOM     25  F   UNL     1      -7.566   7.433  -1.026  0.00  0.00    -0.133 F 
ATOM     26  F   UNL     1      -5.330   7.737  -1.378  0.00  0.00    -0.133 F 
ENDBRANCH  22  23
ENDBRANCH  19  22
ENDBRANCH   9  16
BRANCH  14  27
ATOM     27  C   UNL     1       2.958   2.062  -3.648  0.00  0.00    -0.039 C 
BRANCH  27  32
ATOM     28  C   UNL     1       0.643  -0.511  -5.157  0.00  0.00    +0.000 A 
ATOM     29  C   UNL     1      -0.506   0.232  -5.360  0.00  0.00    +0.004 A 
ATOM     30  C   UNL     1      -0.537   1.567  -5.010  0.00  0.00    +0.045 A 
ATOM     31  C   UNL     1       0.585   2.164  -4.454  0.00  0.00    +0.118 A 
ATOM     32  C   UNL     1       1.736   1.417  -4.251  0.00  0.00    -0.022 A 
ATOM     33  C   UNL     1       1.764   0.083  -4.608  0.00  0.00    +0.005 A 
BRANCH  31  34
ATOM     34  O   UNL     1       0.557   3.478  -4.107  0.00  0.00    -0.507 OA
ATOM     35  H   UNL     1       0.832   4.077  -4.814  0.00  0.00    +0.292 HD
ENDBRANCH  31  34
ENDBRANCH  27  32
ENDBRANCH  14  27
TORSDOF 6
