REMARK  Name = ZINC39422032
REMARK  11 active torsions:
REMARK  status: ('A' for Active; 'I' for Inactive)
REMARK    1  A    between atoms: C_1  and  C_2
REMARK    2  A    between atoms: C_2  and  C_33
REMARK    3  A    between atoms: C_4  and  N_10
REMARK    4  A    between atoms: C_6  and  C_8
REMARK    5  A    between atoms: C_6  and  C_9
REMARK    6  A    between atoms: N_10  and  C_11
REMARK    7  A    between atoms: N_10  and  C_19
REMARK    8  A    between atoms: C_11  and  C_12
REMARK    9  A    between atoms: C_19  and  N_21
REMARK   10  A    between atoms: N_21  and  C_22
REMARK   11  A    between atoms: C_27  and  C_28
REMARK                            x       y       z     vdW  Elec       q    Type
REMARK                         _______ _______ _______ _____ _____    ______ ____
ROOT
ATOM      1  N   UNL     1      -2.869  -2.425   0.137  0.00  0.00    -0.305 N 
ENDROOT
BRANCH   1   5
ATOM      2  C   UNL     1       1.802  -3.935   0.176  0.00  0.00    -0.010 C 
ATOM      3  C   UNL     1       0.917  -2.667   0.175  0.00  0.00    -0.072 C 
ATOM      4  C   UNL     1      -0.533  -3.123   0.297  0.00  0.00    +0.009 C 
ATOM      5  C   UNL     1      -1.483  -1.952   0.044  0.00  0.00    +0.073 C 
ATOM      6  C   UNL     1      -1.223  -1.425  -1.367  0.00  0.00    +0.009 C 
ATOM      7  C   UNL     1       0.222  -0.955  -1.502  0.00  0.00    -0.072 C 
ATOM      8  N   UNL     1       1.190  -1.940  -1.052  0.00  0.00    +0.386 N 
ATOM      9  C   UNL     1       0.403   0.379  -0.771  0.00  0.00    -0.010 C 
ATOM     10  C   UNL     1       0.483  -0.690  -3.003  0.00  0.00    -0.010 C 
ATOM     11  C   UNL     1       1.308  -1.845   1.408  0.00  0.00    -0.010 C 
ATOM     12  H   UNL     1       2.098  -1.475  -0.956  0.00  0.00    -0.084 HD
ATOM     13  H   UNL     1       1.326  -2.622  -1.805  0.00  0.00    -0.084 HD
ENDBRANCH   1   5
BRANCH   1  14
ATOM     14  C   UNL     1      -3.664  -1.990   1.135  0.00  0.00    +0.138 C 
ATOM     15  S   UNL     1      -5.250  -2.613   1.300  0.00  0.00    -0.018 S 
BRANCH  14  16
ATOM     16  N   UNL     1      -3.211  -1.064   2.003  0.00  0.00    -0.296 N 
ATOM     17  H   UNL     1      -2.899  -1.333   2.881  0.00  0.00    +0.154 HD
BRANCH  16  18
ATOM     18  C   UNL     1      -3.190   0.287   1.637  0.00  0.00    +0.044 A 
ATOM     19  C   UNL     1      -3.739   0.689   0.426  0.00  0.00    +0.025 A 
ATOM     20  C   UNL     1      -3.717   2.022   0.069  0.00  0.00    +0.022 A 
ATOM     21  C   UNL     1      -3.149   2.958   0.915  0.00  0.00    +0.042 A 
ATOM     22  C   UNL     1      -2.601   2.561   2.122  0.00  0.00    +0.034 A 
ATOM     23  C   UNL     1      -2.625   1.229   2.487  0.00  0.00    +0.077 A 
ATOM     24 CL   UNL     1      -3.122   4.634   0.461  0.00  0.00    -0.084 Cl
BRANCH  23  25
ATOM     25  C   UNL     1      -2.033   0.797   3.804  0.00  0.00    +0.419 C 
ATOM     26  F   UNL     1      -1.529   1.915   4.478  0.00  0.00    -0.166 F 
ATOM     27  F   UNL     1      -3.023   0.190   4.584  0.00  0.00    -0.166 F 
ATOM     28  F   UNL     1      -0.997  -0.114   3.573  0.00  0.00    -0.166 F 
ENDBRANCH  23  25
ENDBRANCH  16  18
ENDBRANCH  14  16
ENDBRANCH   1  14
BRANCH   1  29
ATOM     29  C   UNL     1      -3.389  -3.369  -0.855  0.00  0.00    +0.142 C 
BRANCH  29  30
ATOM     30  C   UNL     1      -3.200  -4.778  -0.355  0.00  0.00    -0.030 A 
ATOM     31  C   UNL     1      -2.105  -5.515  -0.765  0.00  0.00    +0.008 A 
ATOM     32  C   UNL     1      -1.930  -6.807  -0.306  0.00  0.00    +0.038 A 
ATOM     33  C   UNL     1      -2.852  -7.363   0.564  0.00  0.00    +0.123 A 
ATOM     34  C   UNL     1      -3.948  -6.623   0.975  0.00  0.00    +0.038 A 
ATOM     35  C   UNL     1      -4.118  -5.330   0.519  0.00  0.00    +0.008 A 
ATOM     36  F   UNL     1      -2.682  -8.626   1.013  0.00  0.00    -0.205 F 
ENDBRANCH  29  30
ENDBRANCH   1  29
TORSDOF 7
