REMARK  Name = ZINC08836986
REMARK  16 active torsions:
REMARK  status: ('A' for Active; 'I' for Inactive)
REMARK    1  A    between atoms: C_1  and  C_2
REMARK    2  A    between atoms: C_2  and  C_3
REMARK    3  A    between atoms: C_2  and  O_4
REMARK    4  A    between atoms: O_4  and  C_5
REMARK    5  A    between atoms: C_8  and  C_11
REMARK    6  A    between atoms: C_14  and  C_15
REMARK    7  A    between atoms: C_14  and  O_25
REMARK    8  A    between atoms: C_18  and  O_21
REMARK    9  A    between atoms: O_21  and  C_22
REMARK   10  A    between atoms: C_22  and  C_23
REMARK   11  A    between atoms: C_22  and  C_24
REMARK   12  A    between atoms: N_30  and  C_31
REMARK   13  A    between atoms: C_31  and  C_32
REMARK   14  A    between atoms: C_32  and  N_68
REMARK   15  A    between atoms: C_33  and  N_68
REMARK   16  A    between atoms: C_34  and  N_68
REMARK                            x       y       z     vdW  Elec       q    Type
REMARK                         _______ _______ _______ _____ _____    ______ ____
ROOT
ATOM      1  C   UNL     1      -5.560   3.165  -0.257  0.00  0.00    +0.144 C 
ATOM      2  C   UNL     1      -4.255   2.915   0.464  0.00  0.00    +0.071 C 
ATOM      3  C   UNL     1      -3.608   1.703   0.613  0.00  0.00    +0.133 C 
ATOM      4  C   UNL     1      -3.830   4.162   0.945  0.00  0.00    +0.249 C 
ATOM      5  O   UNL     1      -2.811   4.373   1.578  0.00  0.00    -0.282 OA
ATOM      6  C   UNL     1      -4.839   5.181   0.549  0.00  0.00    +0.288 C 
ATOM      7  O   UNL     1      -4.772   6.364   0.811  0.00  0.00    -0.266 OA
ATOM      8  N   UNL     1      -5.835   4.600  -0.140  0.00  0.00    -0.285 N 
ENDROOT
BRANCH   1  12
ATOM      9  C   UNL     1      -8.700   0.926   1.585  0.00  0.00    +0.121 A 
ATOM     10  C   UNL     1      -8.121   0.473   0.409  0.00  0.00    +0.046 A 
ATOM     11  C   UNL     1      -7.106   1.198  -0.185  0.00  0.00    +0.009 A 
ATOM     12  C   UNL     1      -6.667   2.375   0.393  0.00  0.00    -0.022 A 
ATOM     13  C   UNL     1      -7.239   2.826   1.569  0.00  0.00    +0.009 A 
ATOM     14  C   UNL     1      -8.258   2.107   2.163  0.00  0.00    +0.046 A 
BRANCH   9  15
ATOM     15  O   UNL     1      -9.698   0.214   2.171  0.00  0.00    -0.489 OA
BRANCH  15  17
ATOM     16  C   UNL     1     -11.238   1.802   3.143  0.00  0.00    +0.051 C 
ATOM     17  C   UNL     1     -10.204   0.707   3.413  0.00  0.00    +0.167 C 
ATOM     18  C   UNL     1     -10.863  -0.437   4.186  0.00  0.00    +0.051 C 
ENDBRANCH  15  17
ENDBRANCH   9  15
ENDBRANCH   1  12
BRANCH   3  19
ATOM     19  C   UNL     1      -2.291   1.648   1.266  0.00  0.00    +0.017 A 
ATOM     20  C   UNL     1      -1.233   2.424   0.779  0.00  0.00    +0.015 A 
ATOM     21  C   UNL     1      -0.001   2.365   1.391  0.00  0.00    +0.046 A 
ATOM     22  C   UNL     1       0.193   1.535   2.490  0.00  0.00    +0.121 A 
ATOM     23  C   UNL     1      -0.856   0.762   2.977  0.00  0.00    +0.046 A 
ATOM     24  C   UNL     1      -2.091   0.815   2.373  0.00  0.00    +0.015 A 
BRANCH  22  25
ATOM     25  O   UNL     1       1.409   1.481   3.090  0.00  0.00    -0.489 OA
BRANCH  25  26
ATOM     26  C   UNL     1       1.521   0.663   4.256  0.00  0.00    +0.167 C 
ATOM     27  C   UNL     1       1.760  -0.790   3.839  0.00  0.00    +0.051 C 
ATOM     28  C   UNL     1       2.694   1.149   5.109  0.00  0.00    +0.051 C 
ENDBRANCH  25  26
ENDBRANCH  22  25
ENDBRANCH   3  19
BRANCH   3  29
ATOM     29  O   UNL     1      -4.185   0.570   0.159  0.00  0.00    -0.506 OA
ATOM     30  H   UNL     1      -3.585  -0.208   0.347  0.00  0.00    +0.292 HD
ENDBRANCH   3  29
BRANCH   8  31
ATOM     31  C   UNL     1      -7.005   5.289  -0.690  0.00  0.00    +0.090 C 
BRANCH  31  32
ATOM     32  C   UNL     1      -6.696   5.760  -2.113  0.00  0.00    -0.060 C 
BRANCH  32  35
ATOM     33  C   UNL     1      -7.537   7.123  -3.929  0.00  0.00    -0.097 C 
ATOM     34  C   UNL     1      -8.993   5.523  -2.841  0.00  0.00    -0.097 C 
ATOM     35  N   UNL     1      -7.877   6.472  -2.646  0.00  0.00    +0.377 N 
ATOM     36  H   UNL     1      -8.164   7.192  -1.973  0.00  0.00    -0.083 HD
ENDBRANCH  32  35
ENDBRANCH  31  32
ENDBRANCH   8  31
TORSDOF 10
