REMARK  Name = ZINC40427358
REMARK  7 active torsions:
REMARK  status: ('A' for Active; 'I' for Inactive)
REMARK    1  A    between atoms: C_1  and  N_2
REMARK    2  A    between atoms: C_6  and  C_8
REMARK    3  A    between atoms: C_8  and  C_9
REMARK    4  A    between atoms: C_9  and  N_10
REMARK    5  A    between atoms: C_19  and  C_22
REMARK    6  A    between atoms: C_22  and  O_23
REMARK    7  A    between atoms: O_23  and  C_24
REMARK                            x       y       z     vdW  Elec       q    Type
REMARK                         _______ _______ _______ _____ _____    ______ ____
ROOT
ATOM      1  N   UNL     1       2.086   2.966   1.688  0.00  0.00    -0.298 N 
ATOM      2  C   UNL     1       2.857   3.948   1.178  0.00  0.00    +0.321 C 
ATOM      3  O   UNL     1       3.224   3.894   0.020  0.00  0.00    -0.251 OA
ATOM      4  N   UNL     1       3.220   4.990   1.952  0.00  0.00    -0.189 N 
ATOM      5  C   UNL     1       2.760   5.062   3.343  0.00  0.00    +0.146 C 
ATOM      6  C   UNL     1       2.072   6.408   3.606  0.00  0.00    +0.098 C 
ATOM      7  S   UNL     1       3.320   7.729   3.450  0.00  0.00    -0.083 S 
ATOM      8  C   UNL     1       4.169   7.244   1.980  0.00  0.00    +0.209 A 
ATOM      9  N   UNL     1       4.038   5.994   1.428  0.00  0.00    -0.212 N 
ATOM     10  C   UNL     1       4.836   5.991   0.331  0.00  0.00    +0.189 A 
ATOM     11  N   UNL     1       5.397   7.170   0.259  0.00  0.00    -0.128 NA
ATOM     12  N   UNL     1       4.994   7.917   1.236  0.00  0.00    -0.121 NA
ATOM     13  H   UNL     1       1.853   2.973   2.629  0.00  0.00    +0.150 HD
ENDROOT
BRANCH   1  14
ATOM     14  C   UNL     1       1.602   1.890   0.820  0.00  0.00    +0.104 C 
BRANCH  14  15
ATOM     15  C   UNL     1       0.757   0.914   1.640  0.00  0.00    +0.003 C 
BRANCH  15  21
ATOM     16  C   UNL     1      -0.728  -0.655   2.880  0.00  0.00    -0.096 C 
ATOM     17  N   UNL     1      -0.508  -1.192   1.530  0.00  0.00    +0.380 N 
ATOM     18  C   UNL     1       0.168  -2.504   1.621  0.00  0.00    -0.079 C 
ATOM     19  C   UNL     1       1.128  -2.539   0.405  0.00  0.00    -0.020 C 
ATOM     20  C   UNL     1       1.608  -1.065   0.343  0.00  0.00    -0.017 C 
ATOM     21  C   UNL     1       0.352  -0.273   0.764  0.00  0.00    -0.068 C 
ATOM     22  H   UNL     1      -1.394  -1.301   1.059  0.00  0.00    -0.082 HD
ENDBRANCH  15  21
ENDBRANCH  14  15
ENDBRANCH   1  14
BRANCH  10  23
ATOM     23  C   UNL     1       5.039   4.844  -0.625  0.00  0.00    +0.307 C 
BRANCH  23  24
ATOM     24  O   UNL     1       4.054   4.906  -1.659  0.00  0.00    -0.481 OA
BRANCH  24  25
ATOM     25  C   UNL     1       4.097   3.936  -2.611  0.00  0.00    +0.156 A 
ATOM     26  C   UNL     1       5.062   2.943  -2.548  0.00  0.00    +0.048 A 
ATOM     27  C   UNL     1       5.104   1.958  -3.516  0.00  0.00    +0.004 A 
ATOM     28  C   UNL     1       4.184   1.962  -4.549  0.00  0.00    +0.003 A 
ATOM     29  C   UNL     1       3.220   2.951  -4.616  0.00  0.00    +0.042 A 
ATOM     30  C   UNL     1       3.169   3.935  -3.645  0.00  0.00    +0.165 A 
ATOM     31  F   UNL     1       2.224   4.898  -3.707  0.00  0.00    -0.202 F 
ENDBRANCH  24  25
ENDBRANCH  23  24
ENDBRANCH  10  23
TORSDOF 6
