REMARK  Name = ZINC59333165
REMARK  13 active torsions:
REMARK  status: ('A' for Active; 'I' for Inactive)
REMARK    1  A    between atoms: C_1  and  C_2
REMARK    2  A    between atoms: C_2  and  C_3
REMARK    3  A    between atoms: C_2  and  C_4
REMARK    4  A    between atoms: C_2  and  C_5
REMARK    5  A    between atoms: C_7  and  C_16
REMARK    6  A    between atoms: C_9  and  C_12
REMARK    7  A    between atoms: C_10  and  O_11
REMARK    8  A    between atoms: C_12  and  C_13
REMARK    9  A    between atoms: C_12  and  C_14
REMARK   10  A    between atoms: C_12  and  C_15
REMARK   11  A    between atoms: C_17  and  C_18
REMARK   12  A    between atoms: C_17  and  C_20
REMARK   13  A    between atoms: N_25  and  C_28
REMARK                            x       y       z     vdW  Elec       q    Type
REMARK                         _______ _______ _______ _____ _____    ______ ____
ROOT
ATOM      1  C   UNL     1       2.201   0.970  -4.300  0.00  0.00    +0.032 C 
ATOM      2  C   UNL     1       2.575   0.528  -5.550  0.00  0.00    +0.114 C 
ENDROOT
BRANCH   2   3
ATOM      3  C   UNL     1       2.117  -0.784  -6.034  0.00  0.00    +0.257 C 
ATOM      4  O   UNL     1       2.896  -1.716  -6.093  0.00  0.00    -0.269 OA
ATOM      5  N   UNL     1       0.834  -0.952  -6.413  0.00  0.00    -0.294 N 
ATOM      6  C   UNL     1      -0.141   0.136  -6.255  0.00  0.00    +0.127 C 
ATOM      7  C   UNL     1      -0.787   0.415  -7.618  0.00  0.00    +0.124 C 
ATOM      8  N   UNL     1      -1.236  -0.859  -8.195  0.00  0.00    -0.327 N 
ATOM      9  C   UNL     1      -0.260  -1.948  -8.352  0.00  0.00    +0.124 C 
ATOM     10  C   UNL     1       0.387  -2.225  -6.995  0.00  0.00    +0.127 C 
BRANCH   8  11
ATOM     11  C   UNL     1      -2.565  -1.034  -8.587  0.00  0.00    +0.030 A 
ATOM     12  C   UNL     1      -3.447   0.038  -8.552  0.00  0.00    +0.023 A 
ATOM     13  C   UNL     1      -4.761  -0.138  -8.941  0.00  0.00    +0.002 A 
ATOM     14  C   UNL     1      -5.198  -1.379  -9.364  0.00  0.00    +0.000 A 
ATOM     15  C   UNL     1      -4.322  -2.449  -9.401  0.00  0.00    +0.002 A 
ATOM     16  C   UNL     1      -3.006  -2.279  -9.019  0.00  0.00    +0.023 A 
ENDBRANCH   8  11
ENDBRANCH   2   3
BRANCH   1  19
ATOM     17  C   UNL     1      -0.155  -0.241  -1.668  0.00  0.00    +0.000 A 
ATOM     18  C   UNL     1       0.519   0.597  -2.510  0.00  0.00    +0.015 A 
ATOM     19  C   UNL     1       1.475   0.077  -3.395  0.00  0.00    -0.023 A 
ATOM     20  C   UNL     1       1.733  -1.301  -3.409  0.00  0.00    +0.015 A 
ATOM     21  C   UNL     1       1.053  -2.129  -2.562  0.00  0.00    +0.000 A 
ATOM     22  C   UNL     1       0.109  -1.607  -1.683  0.00  0.00    +0.124 A 
BRANCH  17  24
ATOM     23  C   UNL     1      -1.281   1.831  -0.901  0.00  0.00    +0.015 C 
ATOM     24  C   UNL     1      -1.183   0.315  -0.717  0.00  0.00    -0.009 C 
ATOM     25  C   UNL     1      -0.768   0.002   0.723  0.00  0.00    +0.015 C 
ATOM     26  C   UNL     1      -2.543  -0.323  -1.005  0.00  0.00    +0.015 C 
ENDBRANCH  17  24
BRANCH  21  27
ATOM     27  C   UNL     1       1.329  -3.611  -2.575  0.00  0.00    -0.009 C 
ATOM     28  C   UNL     1       2.404  -3.919  -3.619  0.00  0.00    +0.015 C 
ATOM     29  C   UNL     1       1.819  -4.051  -1.194  0.00  0.00    +0.015 C 
ATOM     30  C   UNL     1       0.046  -4.366  -2.926  0.00  0.00    +0.015 C 
ENDBRANCH  21  27
BRANCH  22  31
ATOM     31  O   UNL     1      -0.560  -2.434  -0.840  0.00  0.00    -0.506 OA
ATOM     32  H   UNL     1      -1.381  -2.789  -1.207  0.00  0.00    +0.292 HD
ENDBRANCH  22  31
ENDBRANCH   1  19
BRANCH   2  33
ATOM     33  C   UNL     1       3.410   1.345  -6.379  0.00  0.00    +0.104 C 
ATOM     34  N   UNL     1       4.072   1.993  -7.036  0.00  0.00    -0.191 NA
ENDBRANCH   2  33
TORSDOF 7
