REMARK  Name = ZINC39325439
REMARK  6 active torsions:
REMARK  status: ('A' for Active; 'I' for Inactive)
REMARK    1  A    between atoms: C_1  and  C_2
REMARK    2  A    between atoms: C_8  and  C_14
REMARK    3  A    between atoms: C_14  and  N_15
REMARK    4  A    between atoms: N_15  and  C_16
REMARK    5  A    between atoms: N_15  and  S_22
REMARK    6  A    between atoms: S_22  and  C_25
REMARK                            x       y       z     vdW  Elec       q    Type
REMARK                         _______ _______ _______ _____ _____    ______ ____
ROOT
ATOM      1  N   UNL     1      -1.164  -1.688   5.835  0.00  0.00    -0.172 NA
ENDROOT
BRANCH   1   2
ATOM      2  C   UNL     1      -1.367  -0.264   6.110  0.00  0.00    +0.080 C 
ATOM      3  C   UNL     1      -2.865   0.044   6.123  0.00  0.00    +0.020 C 
ATOM      4  C   UNL     1      -3.077   1.532   6.410  0.00  0.00    +0.002 C 
ATOM      5  C   UNL     1      -2.395   2.364   5.322  0.00  0.00    +0.000 C 
ATOM      6  C   UNL     1      -0.896   2.056   5.309  0.00  0.00    +0.002 C 
ATOM      7  C   UNL     1      -0.684   0.568   5.022  0.00  0.00    +0.020 C 
ENDBRANCH   1   2
BRANCH   1   8
ATOM      8  S   UNL     1      -0.435  -2.654   6.965  0.00  0.00    +0.062 S 
ATOM      9  O   UNL     1      -0.822  -2.153   8.238  0.00  0.00    -0.153 OA
ATOM     10  O   UNL     1      -0.678  -3.997   6.570  0.00  0.00    -0.153 OA
BRANCH   8  11
ATOM     11  C   UNL     1       1.303  -2.396   6.830  0.00  0.00    +0.119 A 
ATOM     12  C   UNL     1       1.991  -1.771   7.853  0.00  0.00    +0.029 A 
ATOM     13  C   UNL     1       3.354  -1.569   7.746  0.00  0.00    +0.002 A 
ATOM     14  C   UNL     1       4.030  -1.992   6.617  0.00  0.00    +0.001 A 
ATOM     15  C   UNL     1       3.343  -2.616   5.593  0.00  0.00    +0.017 A 
ATOM     16  C   UNL     1       1.979  -2.824   5.702  0.00  0.00    +0.044 A 
ATOM     17 BR   UNL     1       1.040  -3.685   4.305  0.00  0.00    -0.048 Br
ENDBRANCH   8  11
ENDBRANCH   1   8
BRANCH   1  18
ATOM     18  C   UNL     1      -1.605  -2.258   4.559  0.00  0.00    +0.126 C 
BRANCH  18  26
ATOM     19  C   UNL     1      -5.014  -7.247   5.641  0.00  0.00    +0.045 C 
ATOM     20  C   UNL     1      -4.826  -6.418   4.396  0.00  0.00    -0.029 A 
ATOM     21  C   UNL     1      -5.216  -6.912   3.192  0.00  0.00    +0.005 A 
ATOM     22  C   UNL     1      -5.070  -6.197   2.003  0.00  0.00    +0.001 A 
ATOM     23  C   UNL     1      -4.524  -4.954   1.987  0.00  0.00    +0.009 A 
ATOM     24  C   UNL     1      -4.082  -4.361   3.250  0.00  0.00    -0.007 A 
ATOM     25  C   UNL     1      -3.528  -3.116   3.283  0.00  0.00    -0.003 C 
ATOM     26  C   UNL     1      -3.099  -2.581   4.635  0.00  0.00    +0.114 C 
ATOM     27  C   UNL     1      -3.320  -3.472   5.837  0.00  0.00    +0.225 C 
ATOM     28  O   UNL     1      -2.994  -3.093   6.946  0.00  0.00    -0.275 OA
ATOM     29  N   UNL     1      -3.869  -4.664   5.677  0.00  0.00    -0.284 N 
ATOM     30  C   UNL     1      -4.253  -5.136   4.491  0.00  0.00    +0.043 A 
ATOM     31  H   UNL     1      -4.002  -5.220   6.461  0.00  0.00    +0.155 HD
ENDBRANCH  18  26
ENDBRANCH   1  18
TORSDOF 5
