REMARK  Name = ZINC14008269
REMARK  6 active torsions:
REMARK  status: ('A' for Active; 'I' for Inactive)
REMARK    1  A    between atoms: C_1  and  C_2
REMARK    2  A    between atoms: C_2  and  C_3
REMARK    3  A    between atoms: C_8  and  N_9
REMARK    4  A    between atoms: C_10  and  C_12
REMARK    5  A    between atoms: C_12  and  C_13
REMARK    6  A    between atoms: N_24  and  C_27
REMARK                            x       y       z     vdW  Elec       q    Type
REMARK                         _______ _______ _______ _____ _____    ______ ____
ROOT
ATOM      1  C   UNL     1      -4.919   2.584   0.081  0.00  0.00    +0.112 C 
ATOM      2  C   UNL     1      -5.591   3.957   0.226  0.00  0.00    +0.103 C 
ATOM      3  S   UNL     1      -4.134   5.065   0.216  0.00  0.00    -0.085 S 
ATOM      4  C   UNL     1      -2.845   3.848   0.042  0.00  0.00    +0.174 A 
ATOM      5  N   UNL     1      -3.460   2.630  -0.009  0.00  0.00    -0.283 N 
ATOM      6  C   UNL     1      -2.657   1.524  -0.144  0.00  0.00    +0.266 A 
ATOM      7  O   UNL     1      -3.153   0.412  -0.195  0.00  0.00    -0.267 OA
ATOM      8  C   UNL     1      -1.257   1.679  -0.222  0.00  0.00    +0.103 A 
ATOM      9  C   UNL     1      -0.174   0.783  -0.359  0.00  0.00    +0.150 A 
ATOM     10  N   UNL     1       0.932   1.472  -0.384  0.00  0.00    -0.172 NA
ATOM     11  N   UNL     1       0.638   2.835  -0.261  0.00  0.00    -0.214 N 
ATOM     12  C   UNL     1      -0.712   2.972  -0.157  0.00  0.00    +0.171 A 
ATOM     13  N   UNL     1      -1.543   4.010  -0.020  0.00  0.00    -0.203 NA
ENDROOT
BRANCH  11  14
ATOM     14  C   UNL     1       1.573   3.879  -0.248  0.00  0.00    +0.068 A 
ATOM     15  C   UNL     1       1.261   5.099  -0.833  0.00  0.00    +0.028 A 
ATOM     16  C   UNL     1       2.183   6.127  -0.815  0.00  0.00    +0.002 A 
ATOM     17  C   UNL     1       3.419   5.939  -0.224  0.00  0.00    +0.000 A 
ATOM     18  C   UNL     1       3.734   4.724   0.354  0.00  0.00    +0.002 A 
ATOM     19  C   UNL     1       2.815   3.693   0.344  0.00  0.00    +0.028 A 
ENDBRANCH  11  14
BRANCH   1  20
ATOM     20  C   UNL     1      -5.303   1.725   1.287  0.00  0.00    +0.122 C 
BRANCH  20  22
ATOM     21  N   UNL     1      -7.381   0.911   2.354  0.00  0.00    -0.285 N 
ATOM     22  C   UNL     1      -6.798   1.530   1.309  0.00  0.00    +0.219 C 
ATOM     23  O   UNL     1      -7.475   1.931   0.386  0.00  0.00    -0.275 OA
ATOM     24  H   UNL     1      -6.848   0.646   3.121  0.00  0.00    +0.155 HD
BRANCH  21  30
ATOM     25  C   UNL     1      -9.254  -0.499   2.935  0.00  0.00    -0.026 A 
ATOM     26  C   UNL     1     -10.613  -0.751   2.919  0.00  0.00    +0.005 A 
ATOM     27  C   UNL     1     -11.474   0.133   2.295  0.00  0.00    +0.000 A 
ATOM     28  C   UNL     1     -10.979   1.274   1.690  0.00  0.00    +0.002 A 
ATOM     29  C   UNL     1      -9.623   1.535   1.708  0.00  0.00    +0.023 A 
ATOM     30  C   UNL     1      -8.756   0.649   2.334  0.00  0.00    +0.037 A 
BRANCH  25  32
ATOM     31  C   UNL     1      -8.055  -1.005   5.046  0.00  0.00    +0.009 C 
ATOM     32  C   UNL     1      -8.316  -1.465   3.610  0.00  0.00    +0.033 C 
ENDBRANCH  25  32
ENDBRANCH  21  30
ENDBRANCH  20  22
ENDBRANCH   1  20
TORSDOF 5
