REMARK  Name = ZINC41584594
REMARK  7 active torsions:
REMARK  status: ('A' for Active; 'I' for Inactive)
REMARK    1  A    between atoms: C_1  and  C_2
REMARK    2  A    between atoms: C_6  and  C_7
REMARK    3  A    between atoms: C_12  and  C_33
REMARK    4  A    between atoms: C_14  and  O_32
REMARK    5  A    between atoms: C_15  and  C_18
REMARK    6  A    between atoms: C_18  and  N_19
REMARK    7  A    between atoms: C_24  and  C_26
REMARK                            x       y       z     vdW  Elec       q    Type
REMARK                         _______ _______ _______ _____ _____    ______ ____
ROOT
ATOM      1  C   UNL     1      -0.542  -0.736   1.045  0.00  0.00    +0.065 C 
ATOM      2  C   UNL     1      -0.656  -1.425   2.218  0.00  0.00    +0.177 C 
ATOM      3  C   UNL     1      -0.949  -0.859   3.487  0.00  0.00    +0.232 C 
ATOM      4  O   UNL     1      -1.147   0.317   3.747  0.00  0.00    -0.283 OA
ATOM      5  C   UNL     1      -0.964  -1.997   4.423  0.00  0.00    +0.071 A 
ATOM      6  C   UNL     1      -1.186  -2.110   5.795  0.00  0.00    -0.033 A 
ATOM      7  C   UNL     1      -1.131  -3.336   6.395  0.00  0.00    +0.050 A 
ATOM      8  C   UNL     1      -0.852  -4.473   5.641  0.00  0.00    +0.122 A 
ATOM      9  C   UNL     1      -0.629  -4.376   4.277  0.00  0.00    +0.020 A 
ATOM     10  C   UNL     1      -0.682  -3.137   3.653  0.00  0.00    +0.145 A 
ATOM     11  O   UNL     1      -0.514  -2.763   2.366  0.00  0.00    -0.451 OA
ATOM     12  C   UNL     1      -1.487  -0.881   6.615  0.00  0.00    +0.045 C 
ENDROOT
BRANCH   1  18
ATOM     13  C   UNL     1      -0.399   0.526  -1.773  0.00  0.00    +0.045 C 
ATOM     14  C   UNL     1      -0.193  -0.932  -1.456  0.00  0.00    -0.036 A 
ATOM     15  C   UNL     1       0.093  -1.859  -2.428  0.00  0.00    +0.011 A 
ATOM     16  C   UNL     1       0.268  -3.157  -2.072  0.00  0.00    +0.046 A 
ATOM     17  S   UNL     1       0.050  -3.163  -0.407  0.00  0.00    -0.097 S 
ATOM     18  C   UNL     1      -0.273  -1.428  -0.157  0.00  0.00    +0.019 A 
ENDBRANCH   1  18
BRANCH   8  19
ATOM     19  O   UNL     1      -0.798  -5.686   6.247  0.00  0.00    -0.506 OA
ATOM     20  H   UNL     1      -1.646  -6.151   6.274  0.00  0.00    +0.292 HD
ENDBRANCH   8  19
BRANCH   9  21
ATOM     21  C   UNL     1      -0.328  -5.614   3.472  0.00  0.00    -0.035 C 
BRANCH  21  22
ATOM     22  N   UNL     1       1.103  -5.931   3.577  0.00  0.00    +0.387 N 
ATOM     23  C   UNL     1       1.887  -4.858   2.954  0.00  0.00    -0.078 C 
ATOM     24  C   UNL     1       3.380  -5.143   3.132  0.00  0.00    -0.019 C 
ATOM     25  C   UNL     1       3.722  -6.480   2.468  0.00  0.00    -0.003 C 
ATOM     26  C   UNL     1       2.845  -7.579   3.074  0.00  0.00    -0.011 C 
ATOM     27  C   UNL     1       1.372  -7.204   2.898  0.00  0.00    -0.036 C 
ATOM     28  H   UNL     1       1.358  -6.009   4.550  0.00  0.00    -0.080 HD
BRANCH  27  29
ATOM     29  C   UNL     1       0.505  -8.283   3.494  0.00  0.00    -0.043 A 
ATOM     30  C   UNL     1      -0.194  -9.155   2.672  0.00  0.00    +0.005 A 
ATOM     31  C   UNL     1      -0.979 -10.132   3.264  0.00  0.00    +0.020 A 
ATOM     32  C   UNL     1      -1.039 -10.205   4.643  0.00  0.00    +0.111 A 
ATOM     33  N   UNL     1      -0.361  -9.358   5.393  0.00  0.00    -0.263 NA
ATOM     34  C   UNL     1       0.401  -8.420   4.865  0.00  0.00    +0.112 A 
ENDBRANCH  27  29
ENDBRANCH  21  22
ENDBRANCH   9  21
TORSDOF 5
