REMARK  Name = ZINC20138716
REMARK  10 active torsions:
REMARK  status: ('A' for Active; 'I' for Inactive)
REMARK    1  A    between atoms: C_1  and  C_2
REMARK    2  A    between atoms: C_4  and  N_29
REMARK    3  A    between atoms: C_9  and  N_12
REMARK    4  A    between atoms: C_13  and  C_15
REMARK    5  A    between atoms: C_15  and  C_16
REMARK    6  A    between atoms: C_16  and  C_17
REMARK    7  A    between atoms: C_21  and  C_28
REMARK    8  A    between atoms: C_24  and  C_27
REMARK    9  A    between atoms: C_31  and  C_38
REMARK   10  A    between atoms: C_34  and  C_37
REMARK                            x       y       z     vdW  Elec       q    Type
REMARK                         _______ _______ _______ _____ _____    ______ ____
ROOT
ATOM      1  C   UNL     1      -0.345   1.959   0.097  0.00  0.00    +0.044 C 
ATOM      2  C   UNL     1      -0.416   0.463  -0.068  0.00  0.00    -0.038 A 
ATOM      3  C   UNL     1      -0.553  -0.098  -1.302  0.00  0.00    +0.045 A 
ATOM      4  C   UNL     1      -0.616  -1.493  -1.432  0.00  0.00    +0.099 A 
ATOM      5  N   UNL     1      -0.546  -2.286  -0.383  0.00  0.00    -0.343 N 
ATOM      6  C   UNL     1      -0.412  -1.793   0.854  0.00  0.00    +0.048 A 
ATOM      7  C   UNL     1      -0.336  -0.392   1.050  0.00  0.00    +0.003 A 
ATOM      8  C   UNL     1      -0.190   0.120   2.348  0.00  0.00    +0.033 A 
ATOM      9  C   UNL     1      -0.116  -0.747   3.415  0.00  0.00    +0.034 A 
ATOM     10  C   UNL     1      -0.186  -2.130   3.214  0.00  0.00    +0.025 A 
ATOM     11  C   UNL     1      -0.339  -2.649   1.966  0.00  0.00    +0.028 A 
ATOM     12  H   UNL     1      -0.594  -3.247  -0.510  0.00  0.00    +0.167 HD
ENDROOT
BRANCH   4  13
ATOM     13  N   UNL     1      -0.755  -2.050  -2.695  0.00  0.00    -0.316 N 
ATOM     14  C   UNL     1      -0.952  -1.194  -3.873  0.00  0.00    +0.109 C 
ATOM     15  C   UNL     1       0.106  -1.550  -4.923  0.00  0.00    +0.004 C 
ATOM     16  C   UNL     1       0.042  -3.050  -5.218  0.00  0.00    +0.009 C 
ATOM     17  C   UNL     1       0.345  -3.836  -3.940  0.00  0.00    +0.004 C 
ATOM     18  C   UNL     1      -0.704  -3.506  -2.881  0.00  0.00    +0.109 C 
ATOM     19  C   UNL     1       0.314  -5.336  -4.244  0.00  0.00    +0.009 C 
ATOM     20  C   UNL     1      -0.164  -0.764  -6.207  0.00  0.00    +0.009 C 
ENDBRANCH   4  13
BRANCH   9  21
ATOM     21  N   UNL     1       0.030  -0.241   4.712  0.00  0.00    -0.285 N 
ATOM     22  C   UNL     1       0.764  -0.915   5.620  0.00  0.00    +0.218 C 
ATOM     23  O   UNL     1       1.379  -1.906   5.287  0.00  0.00    -0.275 OA
ATOM     24  H   UNL     1      -0.397   0.595   4.958  0.00  0.00    +0.155 HD
BRANCH  22  25
ATOM     25  C   UNL     1       0.821  -0.437   7.048  0.00  0.00    +0.105 C 
BRANCH  25  26
ATOM     26  C   UNL     1       1.716  -1.372   7.864  0.00  0.00    +0.105 C 
BRANCH  26  27
ATOM     27  C   UNL     1       1.773  -0.894   9.292  0.00  0.00    +0.216 C 
ATOM     28  O   UNL     1       1.158   0.097   9.624  0.00  0.00    -0.276 OA
ATOM     29  N   UNL     1       2.506  -1.568  10.199  0.00  0.00    -0.301 N 
ATOM     30  C   UNL     1       3.261  -2.767   9.810  0.00  0.00    +0.111 C 
ATOM     31  C   UNL     1       4.723  -2.588  10.234  0.00  0.00    +0.004 C 
ATOM     32  C   UNL     1       4.781  -2.267  11.729  0.00  0.00    +0.009 C 
ATOM     33  C   UNL     1       4.036  -0.958  12.000  0.00  0.00    +0.004 C 
ATOM     34  C   UNL     1       2.572  -1.114  11.595  0.00  0.00    +0.111 C 
ATOM     35  C   UNL     1       4.671   0.170  11.183  0.00  0.00    +0.009 C 
ATOM     36  C   UNL     1       5.496  -3.880   9.958  0.00  0.00    +0.009 C 
ENDBRANCH  26  27
ENDBRANCH  25  26
ENDBRANCH  22  25
ENDBRANCH   9  21
TORSDOF 5
