REMARK  Name = ZINC12485835
REMARK  7 active torsions:
REMARK  status: ('A' for Active; 'I' for Inactive)
REMARK    1  A    between atoms: C_1  and  C_2
REMARK    2  A    between atoms: C_3  and  C_29
REMARK    3  A    between atoms: N_4  and  C_23
REMARK    4  A    between atoms: C_5  and  N_9
REMARK    5  A    between atoms: C_6  and  C_7
REMARK    6  A    between atoms: C_10  and  C_12
REMARK    7  A    between atoms: C_12  and  N_13
REMARK                            x       y       z     vdW  Elec       q    Type
REMARK                         _______ _______ _______ _____ _____    ______ ____
ROOT
ATOM      1  N   UNL     1      -2.260   5.801  -3.292  0.00  0.00    -0.272 N 
ATOM      2  C   UNL     1      -2.003   4.955  -2.274  0.00  0.00    +0.202 C 
ATOM      3  O   UNL     1      -2.209   5.303  -1.130  0.00  0.00    -0.278 OA
ATOM      4  H   UNL     1      -2.078   5.485  -4.329  0.00  0.00    +0.156 HD
ENDROOT
BRANCH   1   9
ATOM      5  C   UNL     1      -4.862  10.127  -3.526  0.00  0.00    +0.047 C 
ATOM      6  C   UNL     1      -3.912   9.036  -3.107  0.00  0.00    -0.010 A 
ATOM      7  C   UNL     1      -3.071   9.063  -2.060  0.00  0.00    +0.027 A 
ATOM      8  N   UNL     1      -2.373   7.884  -2.009  0.00  0.00    -0.301 N 
ATOM      9  C   UNL     1      -2.754   7.071  -3.030  0.00  0.00    +0.128 A 
ATOM     10  C   UNL     1      -3.721   7.739  -3.769  0.00  0.00    +0.095 A 
ATOM     11  C   UNL     1      -2.920  10.209  -1.093  0.00  0.00    +0.064 C 
BRANCH   8  12
ATOM     12  C   UNL     1      -1.406   7.564  -1.045  0.00  0.00    +0.048 A 
ATOM     13  C   UNL     1      -1.772   7.425   0.287  0.00  0.00    +0.026 A 
ATOM     14  C   UNL     1      -0.818   7.106   1.234  0.00  0.00    +0.002 A 
ATOM     15  C   UNL     1       0.501   6.934   0.857  0.00  0.00    +0.000 A 
ATOM     16  C   UNL     1       0.869   7.077  -0.468  0.00  0.00    +0.002 A 
ATOM     17  C   UNL     1      -0.081   7.391  -1.420  0.00  0.00    +0.026 A 
ENDBRANCH   8  12
BRANCH  10  18
ATOM     18  C   UNL     1      -4.397   7.259  -4.936  0.00  0.00    +0.103 C 
ATOM     19  N   UNL     1      -4.934   6.879  -5.862  0.00  0.00    -0.191 NA
ENDBRANCH  10  18
ENDBRANCH   1   9
BRANCH   2  20
ATOM     20  C   UNL     1      -1.461   3.578  -2.557  0.00  0.00    +0.019 C 
BRANCH  20  21
ATOM     21  N   UNL     1      -1.126   2.914  -1.290  0.00  0.00    +0.388 N 
ATOM     22  C   UNL     1      -0.003   3.589  -0.622  0.00  0.00    -0.073 C 
ATOM     23  C   UNL     1       0.062   3.104   0.827  0.00  0.00    +0.017 C 
ATOM     24  C   UNL     1       0.037   1.597   0.864  0.00  0.00    -0.048 A 
ATOM     25  C   UNL     1       0.438   0.958   2.027  0.00  0.00    +0.004 A 
ATOM     26  C   UNL     1       0.426  -0.420   2.105  0.00  0.00    +0.000 A 
ATOM     27  C   UNL     1       0.013  -1.167   1.017  0.00  0.00    +0.000 A 
ATOM     28  C   UNL     1      -0.387  -0.533  -0.137  0.00  0.00    +0.002 A 
ATOM     29  C   UNL     1      -0.374   0.852  -0.219  0.00  0.00    -0.061 A 
ATOM     30  C   UNL     1      -0.812   1.498  -1.507  0.00  0.00    -0.042 C 
ATOM     31  H   UNL     1      -2.010   2.975  -0.638  0.00  0.00    -0.081 HD
ENDBRANCH  20  21
ENDBRANCH   2  20
TORSDOF 5
