REMARK  Name = ZINC35091876
REMARK  9 active torsions:
REMARK  status: ('A' for Active; 'I' for Inactive)
REMARK    1  A    between atoms: C_1  and  C_2
REMARK    2  A    between atoms: C_2  and  C_3
REMARK    3  A    between atoms: C_8  and  N_9
REMARK    4  A    between atoms: C_19  and  C_20
REMARK    5  A    between atoms: C_20  and  C_22
REMARK    6  A    between atoms: C_20  and  N_23
REMARK    7  A    between atoms: N_23  and  C_24
REMARK    8  A    between atoms: C_24  and  C_25
REMARK    9  A    between atoms: N_28  and  C_29
REMARK                            x       y       z     vdW  Elec       q    Type
REMARK                         _______ _______ _______ _____ _____    ______ ____
ROOT
ATOM      1  N   UNL     1      -1.322  -0.472   2.534  0.00  0.00    -0.263 N 
ATOM      2  C   UNL     1      -2.244  -1.451   2.387  0.00  0.00    +0.266 A 
ATOM      3  O   UNL     1      -1.919  -2.589   2.102  0.00  0.00    -0.267 OA
ATOM      4  C   UNL     1      -3.655  -1.088   2.585  0.00  0.00    +0.065 A 
ATOM      5  C   UNL     1      -4.681  -2.022   2.457  0.00  0.00    +0.015 A 
ATOM      6  C   UNL     1      -5.986  -1.627   2.654  0.00  0.00    +0.001 A 
ATOM      7  C   UNL     1      -6.285  -0.309   2.977  0.00  0.00    +0.002 A 
ATOM      8  C   UNL     1      -5.286   0.629   3.108  0.00  0.00    +0.028 A 
ATOM      9  C   UNL     1      -3.955   0.253   2.914  0.00  0.00    +0.078 A 
ATOM     10  N   UNL     1      -2.939   1.145   3.033  0.00  0.00    -0.231 NA
ATOM     11  C   UNL     1      -1.702   0.794   2.858  0.00  0.00    +0.138 A 
ENDROOT
BRANCH   1  17
ATOM     12  C   UNL     1       0.599  -0.717   1.088  0.00  0.00    -0.024 A 
ATOM     13  C   UNL     1       1.940  -1.002   0.918  0.00  0.00    +0.005 A 
ATOM     14  C   UNL     1       2.720  -1.340   2.007  0.00  0.00    +0.000 A 
ATOM     15  C   UNL     1       2.162  -1.394   3.272  0.00  0.00    +0.002 A 
ATOM     16  C   UNL     1       0.822  -1.110   3.449  0.00  0.00    +0.026 A 
ATOM     17  C   UNL     1       0.036  -0.765   2.357  0.00  0.00    +0.054 A 
BRANCH  12  19
ATOM     18  C   UNL     1      -0.263   1.172  -0.268  0.00  0.00    +0.009 C 
ATOM     19  C   UNL     1      -0.252  -0.349  -0.100  0.00  0.00    +0.034 C 
ENDBRANCH  12  19
ENDBRANCH   1  17
BRANCH  11  20
ATOM     20  C   UNL     1      -0.632   1.844   3.015  0.00  0.00    +0.141 C 
ATOM     21  C   UNL     1       0.049   1.678   4.375  0.00  0.00    +0.036 C 
BRANCH  20  22
ATOM     22  N   UNL     1      -1.238   3.175   2.931  0.00  0.00    -0.276 N 
ATOM     23  C   UNL     1      -0.847   4.033   1.968  0.00  0.00    +0.307 C 
ATOM     24  O   UNL     1       0.008   3.703   1.170  0.00  0.00    -0.252 OA
ATOM     25  N   UNL     1      -1.404   5.258   1.891  0.00  0.00    -0.268 N 
ATOM     26  H   UNL     1      -2.048   5.541   2.560  0.00  0.00    +0.156 HD
BRANCH  25  27
ATOM     27  C   UNL     1      -1.055   6.121   0.846  0.00  0.00    +0.049 A 
ATOM     28  C   UNL     1       0.183   6.002   0.229  0.00  0.00    +0.024 A 
ATOM     29  C   UNL     1       0.525   6.855  -0.802  0.00  0.00    +0.002 A 
ATOM     30  C   UNL     1      -0.365   7.827  -1.221  0.00  0.00    +0.001 A 
ATOM     31  C   UNL     1      -1.599   7.949  -0.609  0.00  0.00    +0.017 A 
ATOM     32  C   UNL     1      -1.949   7.096   0.420  0.00  0.00    +0.039 A 
ATOM     33 BR   UNL     1      -3.640   7.258   1.251  0.00  0.00    -0.048 Br
ENDBRANCH  25  27
BRANCH  22  34
ATOM     34  C   UNL     1      -2.268   3.573   3.893  0.00  0.00    +0.107 C 
ATOM     35  C   UNL     1      -1.606   4.231   5.106  0.00  0.00    +0.024 C 
ENDBRANCH  22  34
ENDBRANCH  20  22
ENDBRANCH  11  20
TORSDOF 6
