REMARK  Name = ZINC35867290
REMARK  9 active torsions:
REMARK  status: ('A' for Active; 'I' for Inactive)
REMARK    1  A    between atoms: C_1  and  C_2
REMARK    2  A    between atoms: C_2  and  C_3
REMARK    3  A    between atoms: C_3  and  C_4
REMARK    4  A    between atoms: C_4  and  N_5
REMARK    5  A    between atoms: C_21  and  C_23
REMARK    6  A    between atoms: C_23  and  C_25
REMARK    7  A    between atoms: C_23  and  C_26
REMARK    8  A    between atoms: C_26  and  C_27
REMARK    9  A    between atoms: C_29  and  C_33
REMARK                            x       y       z     vdW  Elec       q    Type
REMARK                         _______ _______ _______ _____ _____    ______ ____
ROOT
ATOM      1  N   UNL     1      -2.753  -2.767  -2.559  0.00  0.00    -0.299 N 
ATOM      2  C   UNL     1      -3.432  -2.805  -1.395  0.00  0.00    +0.302 C 
ATOM      3  O   UNL     1      -2.876  -2.505  -0.357  0.00  0.00    -0.253 OA
ATOM      4  N   UNL     1      -4.728  -3.174  -1.383  0.00  0.00    -0.283 N 
ATOM      5  C   UNL     1      -5.381  -3.651  -2.611  0.00  0.00    +0.128 C 
ATOM      6  C   UNL     1      -5.985  -5.035  -2.338  0.00  0.00    +0.125 C 
ATOM      7  N   UNL     1      -6.770  -4.968  -1.098  0.00  0.00    -0.312 N 
ATOM      8  C   UNL     1      -6.117  -4.492   0.129  0.00  0.00    +0.125 C 
ATOM      9  C   UNL     1      -5.512  -3.114  -0.142  0.00  0.00    +0.128 C 
ATOM     10  C   UNL     1      -8.101  -5.348  -1.085  0.00  0.00    +0.133 A 
ATOM     11  C   UNL     1      -8.459  -6.715  -0.917  0.00  0.00    +0.051 A 
ATOM     12  C   UNL     1      -7.585  -7.876  -0.743  0.00  0.00    -0.025 A 
ATOM     13  C   UNL     1      -8.184  -9.076  -0.602  0.00  0.00    -0.004 A 
ATOM     14  S   UNL     1      -9.923  -8.739  -0.691  0.00  0.00    -0.073 S 
ATOM     15  C   UNL     1      -9.842  -6.982  -0.919  0.00  0.00    +0.114 A 
ATOM     16  N   UNL     1     -10.730  -6.019  -1.071  0.00  0.00    -0.224 NA
ATOM     17  C   UNL     1     -10.338  -4.769  -1.224  0.00  0.00    +0.135 A 
ATOM     18  N   UNL     1      -9.057  -4.444  -1.224  0.00  0.00    -0.216 NA
ATOM     19  C   UNL     1      -7.520 -10.406  -0.413  0.00  0.00    +0.046 C 
ATOM     20  C   UNL     1      -6.035 -10.261  -0.773  0.00  0.00    -0.009 C 
ATOM     21  C   UNL     1      -5.480  -9.015  -0.076  0.00  0.00    +0.008 C 
ATOM     22  C   UNL     1      -6.064  -7.757  -0.719  0.00  0.00    +0.037 C 
ATOM     23  C   UNL     1      -5.269 -11.500  -0.304  0.00  0.00    +0.008 C 
ATOM     24  H   UNL     1      -3.174  -3.075  -3.377  0.00  0.00    +0.150 HD
ENDROOT
BRANCH  17  25
ATOM     25  C   UNL     1     -11.372  -3.687  -1.395  0.00  0.00    +0.054 C 
ATOM     26  C   UNL     1     -12.212  -3.976  -2.641  0.00  0.00    +0.015 C 
BRANCH  25  27
ATOM     27  C   UNL     1     -12.281  -3.651  -0.165  0.00  0.00    +0.007 C 
ATOM     28  C   UNL     1     -13.251  -2.474  -0.281  0.00  0.00    +0.004 C 
ENDBRANCH  25  27
ENDBRANCH  17  25
BRANCH   1  29
ATOM     29  C   UNL     1      -1.378  -2.261  -2.589  0.00  0.00    +0.106 C 
BRANCH  29  30
ATOM     30  C   UNL     1      -0.842  -2.326  -4.020  0.00  0.00    +0.018 C 
BRANCH  30  32
ATOM     31  C   UNL     1       1.130  -1.863  -5.482  0.00  0.00    +0.004 C 
ATOM     32  C   UNL     1       0.594  -1.798  -4.051  0.00  0.00    -0.002 C 
ENDBRANCH  30  32
ENDBRANCH  29  30
ENDBRANCH   1  29
TORSDOF 5
