REMARK  Name = ZINC35486798
REMARK  12 active torsions:
REMARK  status: ('A' for Active; 'I' for Inactive)
REMARK    1  A    between atoms: C_1  and  C_2
REMARK    2  A    between atoms: C_2  and  O_3
REMARK    3  A    between atoms: O_3  and  C_4
REMARK    4  A    between atoms: C_6  and  C_18
REMARK    5  A    between atoms: C_9  and  O_10
REMARK    6  A    between atoms: O_10  and  C_11
REMARK    7  A    between atoms: C_11  and  C_12
REMARK    8  A    between atoms: N_33  and  C_34
REMARK    9  A    between atoms: C_34  and  C_35
REMARK   10  A    between atoms: C_35  and  N_36
REMARK   11  A    between atoms: N_36  and  C_37
REMARK   12  A    between atoms: N_36  and  C_38
REMARK                            x       y       z     vdW  Elec       q    Type
REMARK                         _______ _______ _______ _____ _____    ______ ____
ROOT
ATOM      1  C   UNL     1      -0.229  -4.969   0.477  0.00  0.00    +0.145 C 
ATOM      2  C   UNL     1       0.856  -5.514   1.347  0.00  0.00    +0.072 A 
ATOM      3  C   UNL     1       1.813  -4.843   2.232  0.00  0.00    +0.199 A 
ATOM      4  O   UNL     1       1.740  -3.662   2.522  0.00  0.00    -0.287 OA
ATOM      5  C   UNL     1       2.881  -5.740   2.742  0.00  0.00    +0.067 A 
ATOM      6  C   UNL     1       3.975  -5.215   3.429  0.00  0.00    +0.053 A 
ATOM      7  C   UNL     1       4.960  -6.063   3.891  0.00  0.00    +0.124 A 
ATOM      8  C   UNL     1       4.860  -7.432   3.670  0.00  0.00    +0.042 A 
ATOM      9  C   UNL     1       3.784  -7.959   2.994  0.00  0.00    +0.050 A 
ATOM     10  C   UNL     1       2.773  -7.123   2.520  0.00  0.00    +0.140 A 
ATOM     11  O   UNL     1       1.721  -7.670   1.868  0.00  0.00    -0.450 OA
ATOM     12  C   UNL     1       0.860  -6.872   1.206  0.00  0.00    +0.199 A 
ATOM     13  C   UNL     1      -0.200  -7.241   0.251  0.00  0.00    +0.283 C 
ATOM     14  O   UNL     1      -0.459  -8.376  -0.098  0.00  0.00    -0.267 OA
ATOM     15  N   UNL     1      -0.844  -6.134  -0.179  0.00  0.00    -0.285 N 
ATOM     16  F   UNL     1       6.024  -5.563   4.558  0.00  0.00    -0.205 F 
ENDROOT
BRANCH   1  19
ATOM     17  C   UNL     1       0.777  -1.811  -1.336  0.00  0.00    +0.162 A 
ATOM     18  C   UNL     1       0.243  -2.669  -0.388  0.00  0.00    +0.055 A 
ATOM     19  C   UNL     1       0.352  -4.037  -0.555  0.00  0.00    -0.019 A 
ATOM     20  C   UNL     1       0.992  -4.552  -1.667  0.00  0.00    +0.009 A 
ATOM     21  C   UNL     1       1.526  -3.702  -2.616  0.00  0.00    +0.050 A 
ATOM     22  C   UNL     1       1.416  -2.330  -2.458  0.00  0.00    +0.162 A 
BRANCH  17  23
ATOM     23  O   UNL     1       0.671  -0.465  -1.174  0.00  0.00    -0.489 OA
BRANCH  23  25
ATOM     24  C   UNL     1      -0.019   1.526   0.010  0.00  0.00    +0.048 C 
ATOM     25  C   UNL     1       0.002  -0.004   0.002  0.00  0.00    +0.226 C 
ENDBRANCH  23  25
ENDBRANCH  17  23
BRANCH  22  26
ATOM     26  O   UNL     1       1.936  -1.492  -3.394  0.00  0.00    -0.484 OA
BRANCH  26  27
ATOM     27  C   UNL     1       2.578  -2.095  -4.520  0.00  0.00    +0.264 C 
BRANCH  27  28
ATOM     28  C   UNL     1       3.088  -1.019  -5.443  0.00  0.00    -0.010 A 
ATOM     29  C   UNL     1       2.278  -0.532  -6.452  0.00  0.00    +0.007 A 
ATOM     30  C   UNL     1       2.746   0.455  -7.299  0.00  0.00    +0.000 A 
ATOM     31  C   UNL     1       4.024   0.956  -7.137  0.00  0.00    +0.000 A 
ATOM     32  C   UNL     1       4.835   0.470  -6.128  0.00  0.00    +0.000 A 
ATOM     33  C   UNL     1       4.365  -0.514  -5.278  0.00  0.00    +0.007 A 
ENDBRANCH  27  28
ENDBRANCH  26  27
ENDBRANCH  22  26
ENDBRANCH   1  19
BRANCH  15  34
ATOM     34  C   UNL     1      -1.957  -6.099  -1.130  0.00  0.00    +0.090 C 
BRANCH  34  35
ATOM     35  C   UNL     1      -1.409  -5.966  -2.552  0.00  0.00    -0.060 C 
BRANCH  35  36
ATOM     36  N   UNL     1      -2.525  -5.930  -3.506  0.00  0.00    +0.377 N 
ATOM     37  C   UNL     1      -2.006  -5.683  -4.858  0.00  0.00    -0.097 C 
ATOM     38  C   UNL     1      -3.232  -7.218  -3.481  0.00  0.00    -0.097 C 
ATOM     39  H   UNL     1      -3.163  -5.191  -3.250  0.00  0.00    -0.083 HD
ENDBRANCH  35  36
ENDBRANCH  34  35
ENDBRANCH  15  34
TORSDOF 9
