REMARK  Name = ZINC20761577
REMARK  6 active torsions:
REMARK  status: ('A' for Active; 'I' for Inactive)
REMARK    1  A    between atoms: C_1  and  C_2
REMARK    2  A    between atoms: C_6  and  N_9
REMARK    3  A    between atoms: C_7  and  C_8
REMARK    4  A    between atoms: C_37  and  C_39
REMARK    5  A    between atoms: C_39  and  C_40
REMARK    6  A    between atoms: C_39  and  C_41
REMARK                            x       y       z     vdW  Elec       q    Type
REMARK                         _______ _______ _______ _____ _____    ______ ____
ROOT
ATOM      1  N   UNL     1      -0.287  -2.814   1.742  0.00  0.00    -0.210 N 
ATOM      2  C   UNL     1      -1.312  -3.172   2.523  0.00  0.00    +0.232 C 
ATOM      3  O   UNL     1      -2.482  -3.124   2.209  0.00  0.00    -0.274 OA
ATOM      4  C   UNL     1      -0.785  -3.646   3.858  0.00  0.00    +0.107 C 
ATOM      5  C   UNL     1       0.756  -3.517   3.702  0.00  0.00    +0.121 C 
ATOM      6  C   UNL     1       0.918  -2.967   2.302  0.00  0.00    +0.233 C 
ATOM      7  O   UNL     1       1.976  -2.703   1.772  0.00  0.00    -0.274 OA
ATOM      8  C   UNL     1       1.272  -4.960   3.759  0.00  0.00    +0.118 C 
ATOM      9  C   UNL     1       1.802  -5.306   5.120  0.00  0.00    +0.005 A 
ATOM     10  C   UNL     1       1.238  -5.324   6.378  0.00  0.00    +0.008 A 
ATOM     11  C   UNL     1       1.999  -5.698   7.471  0.00  0.00    +0.000 A 
ATOM     12  C   UNL     1       3.324  -6.053   7.299  0.00  0.00    +0.002 A 
ATOM     13  C   UNL     1       3.892  -6.037   6.042  0.00  0.00    +0.026 A 
ATOM     14  C   UNL     1       3.132  -5.661   4.937  0.00  0.00    +0.057 A 
ATOM     15  N   UNL     1       3.486  -5.569   3.581  0.00  0.00    -0.262 N 
ATOM     16  C   UNL     1       2.434  -5.157   2.818  0.00  0.00    +0.143 A 
ATOM     17  N   UNL     1       2.513  -4.993   1.528  0.00  0.00    -0.231 NA
ATOM     18  C   UNL     1       3.656  -5.221   0.841  0.00  0.00    +0.078 A 
ATOM     19  C   UNL     1       3.732  -5.041  -0.542  0.00  0.00    +0.028 A 
ATOM     20  C   UNL     1       4.918  -5.286  -1.198  0.00  0.00    +0.002 A 
ATOM     21  C   UNL     1       6.041  -5.711  -0.500  0.00  0.00    +0.001 A 
ATOM     22  C   UNL     1       5.992  -5.896   0.864  0.00  0.00    +0.015 A 
ATOM     23  C   UNL     1       4.801  -5.653   1.547  0.00  0.00    +0.065 A 
ATOM     24  C   UNL     1       4.686  -5.832   2.999  0.00  0.00    +0.266 A 
ATOM     25  O   UNL     1       5.637  -6.202   3.663  0.00  0.00    -0.267 OA
ATOM     26  N   UNL     1       0.132  -5.815   3.382  0.00  0.00    -0.296 NA
ATOM     27  C   UNL     1      -1.058  -5.158   4.008  0.00  0.00    +0.070 C 
ATOM     28  H   UNL     1       0.026  -5.855   2.380  0.00  0.00    +0.123 HD
ENDROOT
BRANCH   1  34
ATOM     29  C   UNL     1      -0.934   0.999  -1.297  0.00  0.00    +0.044 C 
ATOM     30  C   UNL     1      -0.777  -0.481  -1.061  0.00  0.00    -0.046 A 
ATOM     31  C   UNL     1      -0.804  -1.358  -2.130  0.00  0.00    +0.004 A 
ATOM     32  C   UNL     1      -0.661  -2.717  -1.917  0.00  0.00    +0.002 A 
ATOM     33  C   UNL     1      -0.489  -3.202  -0.636  0.00  0.00    +0.024 A 
ATOM     34  C   UNL     1      -0.461  -2.325   0.439  0.00  0.00    +0.047 A 
ATOM     35  C   UNL     1      -0.599  -0.960   0.222  0.00  0.00    -0.026 A 
ATOM     36  C   UNL     1      -0.563  -0.003   1.386  0.00  0.00    +0.046 C 
ENDBRANCH   1  34
BRANCH  27  37
ATOM     37  C   UNL     1      -2.354  -5.538   3.288  0.00  0.00    +0.001 C 
ATOM     38  C   UNL     1      -2.531  -7.058   3.325  0.00  0.00    +0.009 C 
ATOM     39  C   UNL     1      -3.540  -4.870   3.986  0.00  0.00    +0.009 C 
ENDBRANCH  27  37
TORSDOF 2
