REMARK  Name = ZINC23935986
REMARK  5 active torsions:
REMARK  status: ('A' for Active; 'I' for Inactive)
REMARK    1  A    between atoms: C_4  and  C_7
REMARK    2  A    between atoms: C_7  and  C_28
REMARK    3  A    between atoms: N_10  and  C_14
REMARK    4  A    between atoms: C_14  and  N_15
REMARK    5  A    between atoms: N_18  and  C_21
REMARK                            x       y       z     vdW  Elec       q    Type
REMARK                         _______ _______ _______ _____ _____    ______ ____
ROOT
ATOM      1  C   UNL     1      -1.235   2.107   0.018  0.00  0.00    +0.164 C 
ATOM      2  C   UNL     1      -0.243   1.246  -0.738  0.00  0.00    +0.257 C 
ATOM      3  O   UNL     1      -0.472   0.214  -1.331  0.00  0.00    -0.272 OA
ATOM      4  N   UNL     1       0.946   1.870  -0.620  0.00  0.00    -0.210 N 
ATOM      5  C   UNL     1       0.845   2.991   0.103  0.00  0.00    +0.311 C 
ATOM      6  O   UNL     1       1.783   3.724   0.348  0.00  0.00    -0.252 OA
ATOM      7  N   UNL     1      -0.411   3.216   0.530  0.00  0.00    -0.278 N 
ATOM      8  H   UNL     1      -0.873   4.010   1.135  0.00  0.00    +0.152 HD
ENDROOT
BRANCH   1  12
ATOM      9  C   UNL     1      -4.268   3.568  -2.610  0.00  0.00    +0.000 A 
ATOM     10  C   UNL     1      -3.613   4.439  -1.760  0.00  0.00    +0.000 A 
ATOM     11  C   UNL     1      -2.631   3.966  -0.910  0.00  0.00    +0.006 A 
ATOM     12  C   UNL     1      -2.305   2.623  -0.909  0.00  0.00    -0.011 A 
ATOM     13  C   UNL     1      -2.957   1.753  -1.763  0.00  0.00    +0.006 A 
ATOM     14  C   UNL     1      -3.942   2.225  -2.610  0.00  0.00    +0.000 A 
ENDBRANCH   1  12
BRANCH   1  15
ATOM     15  C   UNL     1      -1.846   1.334   1.159  0.00  0.00    -0.011 A 
ATOM     16  C   UNL     1      -2.404   0.090   0.930  0.00  0.00    +0.006 A 
ATOM     17  C   UNL     1      -2.961  -0.620   1.976  0.00  0.00    +0.000 A 
ATOM     18  C   UNL     1      -2.968  -0.084   3.250  0.00  0.00    +0.000 A 
ATOM     19  C   UNL     1      -2.415   1.163   3.478  0.00  0.00    +0.000 A 
ATOM     20  C   UNL     1      -1.854   1.872   2.432  0.00  0.00    +0.006 A 
ENDBRANCH   1  15
BRANCH   4  21
ATOM     21  C   UNL     1       2.194   1.381  -1.210  0.00  0.00    +0.205 C 
BRANCH  21  22
ATOM     22  N   UNL     1       2.348   1.939  -2.560  0.00  0.00    -0.283 NA
ATOM     23  C   UNL     1       1.561   1.175  -3.538  0.00  0.00    +0.105 C 
ATOM     24  C   UNL     1       1.685   1.834  -4.915  0.00  0.00    +0.120 C 
ATOM     25  N   UNL     1       3.100   1.882  -5.306  0.00  0.00    -0.327 N 
ATOM     26  C   UNL     1       3.888   2.646  -4.328  0.00  0.00    +0.120 C 
ATOM     27  C   UNL     1       3.764   1.987  -2.952  0.00  0.00    +0.105 C 
BRANCH  25  28
ATOM     28  C   UNL     1       3.247   2.413  -6.591  0.00  0.00    +0.030 A 
ATOM     29  C   UNL     1       4.054   3.524  -6.797  0.00  0.00    +0.026 A 
ATOM     30  C   UNL     1       4.201   4.044  -8.068  0.00  0.00    +0.040 A 
ATOM     31  C   UNL     1       3.537   3.464  -9.135  0.00  0.00    +0.124 A 
ATOM     32  C   UNL     1       2.727   2.359  -8.932  0.00  0.00    +0.040 A 
ATOM     33  C   UNL     1       2.581   1.833  -7.663  0.00  0.00    +0.026 A 
ATOM     34  F   UNL     1       3.678   3.977 -10.377  0.00  0.00    -0.205 F 
ENDBRANCH  25  28
ENDBRANCH  21  22
ENDBRANCH   4  21
TORSDOF 5
