REMARK  Name = ZINC13681418
REMARK  6 active torsions:
REMARK  status: ('A' for Active; 'I' for Inactive)
REMARK    1  A    between atoms: C_1  and  C_2
REMARK    2  A    between atoms: C_5  and  S_8
REMARK    3  A    between atoms: S_8  and  N_11
REMARK    4  A    between atoms: N_11  and  C_12
REMARK    5  A    between atoms: C_15  and  C_19
REMARK    6  A    between atoms: C_17  and  C_18
REMARK                            x       y       z     vdW  Elec       q    Type
REMARK                         _______ _______ _______ _____ _____    ______ ____
ROOT
ATOM      1  C   UNL     1      -1.232   1.630  -0.061  0.00  0.00    +0.051 A 
ATOM      2  C   UNL     1      -1.446   2.696  -0.932  0.00  0.00    +0.025 A 
ATOM      3  C   UNL     1      -2.641   3.379  -0.905  0.00  0.00    +0.015 A 
ATOM      4  C   UNL     1      -3.640   3.002  -0.002  0.00  0.00    +0.038 A 
ATOM      5  C   UNL     1      -3.422   1.931   0.870  0.00  0.00    +0.018 A 
ATOM      6  C   UNL     1      -2.227   1.249   0.834  0.00  0.00    -0.027 A 
ATOM      7  C   UNL     1      -1.994   0.090   1.770  0.00  0.00    +0.046 C 
ENDROOT
BRANCH   4   8
ATOM      8  C   UNL     1      -4.921   3.732   0.030  0.00  0.00    +0.251 C 
ATOM      9  O   UNL     1      -5.946   3.148   0.325  0.00  0.00    -0.270 OA
ATOM     10  N   UNL     1      -4.955   5.046  -0.268  0.00  0.00    -0.257 N 
ATOM     11  C   UNL     1      -3.716   5.805  -0.496  0.00  0.00    +0.210 C 
ATOM     12  C   UNL     1      -3.830   7.147   0.181  0.00  0.00    +0.235 C 
ATOM     13  O   UNL     1      -2.829   7.702   0.583  0.00  0.00    -0.274 OA
ATOM     14  N   UNL     1      -5.029   7.737   0.345  0.00  0.00    -0.283 N 
ATOM     15  C   UNL     1      -6.203   7.095  -0.062  0.00  0.00    +0.055 A 
ATOM     16  C   UNL     1      -6.174   5.732  -0.377  0.00  0.00    +0.058 A 
ATOM     17  C   UNL     1      -7.328   5.085  -0.769  0.00  0.00    +0.025 A 
ATOM     18  C   UNL     1      -8.514   5.792  -0.865  0.00  0.00    +0.002 A 
ATOM     19  C   UNL     1      -8.546   7.141  -0.564  0.00  0.00    +0.002 A 
ATOM     20  C   UNL     1      -7.395   7.795  -0.163  0.00  0.00    +0.025 A 
ATOM     21  H   UNL     1      -5.079   8.616   0.751  0.00  0.00    +0.155 HD
ENDBRANCH   4   8
BRANCH   1  22
ATOM     22  N   UNL     1      -0.025   0.942  -0.091  0.00  0.00    -0.216 N 
ATOM     23  H   UNL     1      -0.009  -0.017   0.058  0.00  0.00    +0.174 HD
BRANCH  22  24
ATOM     24  S   UNL     1       1.386   1.757  -0.389  0.00  0.00    +0.072 S 
ATOM     25  O   UNL     1       2.440   0.819  -0.221  0.00  0.00    -0.150 OA
ATOM     26  O   UNL     1       1.192   2.476  -1.599  0.00  0.00    -0.150 OA
BRANCH  24  31
ATOM     27  C   UNL     1       2.025   5.871   3.978  0.00  0.00    +0.044 C 
ATOM     28  C   UNL     1       1.866   4.843   2.887  0.00  0.00    -0.050 A 
ATOM     29  C   UNL     1       2.392   3.576   3.050  0.00  0.00    +0.005 A 
ATOM     30  C   UNL     1       2.246   2.633   2.049  0.00  0.00    +0.029 A 
ATOM     31  C   UNL     1       1.572   2.958   0.886  0.00  0.00    +0.109 A 
ATOM     32  C   UNL     1       1.050   4.228   0.722  0.00  0.00    +0.029 A 
ATOM     33  C   UNL     1       1.193   5.169   1.724  0.00  0.00    +0.005 A 
ENDBRANCH  24  31
ENDBRANCH  22  24
ENDBRANCH   1  22
TORSDOF 4
