REMARK  Name = ZINC13352756
REMARK  5 active torsions:
REMARK  status: ('A' for Active; 'I' for Inactive)
REMARK    1  A    between atoms: C_1  and  C_2
REMARK    2  A    between atoms: C_2  and  C_16
REMARK    3  A    between atoms: N_3  and  N_4
REMARK    4  A    between atoms: N_4  and  C_5
REMARK    5  A    between atoms: CA_7  and  C_13
REMARK                            x       y       z     vdW  Elec       q    Type
REMARK                         _______ _______ _______ _____ _____    ______ ____
ROOT
ATOM      1  N   UNL     1       2.402   1.806  -0.012  0.00  0.00    -0.235 N 
ATOM      2  H   UNL     1       2.454   0.861   0.200  0.00  0.00    +0.174 HD
ENDROOT
BRANCH   1   3
ATOM      3  C   UNL     1       1.172   2.457   0.004  0.00  0.00    +0.090 A 
ATOM      4  C   UNL     1      -0.021   1.732   0.012  0.00  0.00    +0.097 A 
ATOM      5  CA  UNL     1      -1.230   2.422   0.021  0.00  0.00    +0.173 A 
ATOM      6  N   UNL     1      -1.251   3.752   0.035  0.00  0.00    -0.225 NA
ATOM      7  C   UNL     1      -0.143   4.463   0.028  0.00  0.00    +0.150 A 
ATOM      8  C   UNL     1       1.100   3.849   0.012  0.00  0.00    +0.102 A 
ATOM      9 CL   UNL     1       2.550   4.803   0.003  0.00  0.00    -0.078 Cl
ATOM     10 CL   UNL     1      -0.241   6.197   0.038  0.00  0.00    -0.060 Cl
ATOM     11 CL   UNL     1       0.002  -0.004   0.002  0.00  0.00    -0.079 Cl
BRANCH   5  12
ATOM     12  C   UNL     1      -2.503   1.670   0.023  0.00  0.00    +0.406 C 
ATOM     13  O   UNL     1      -2.491   0.455   0.016  0.00  0.00    -0.239 OA
ATOM     14  OXT UNL     1      -3.677   2.331   0.032  0.00  0.00    -0.239 OA
ENDBRANCH   5  12
ENDBRANCH   1   3
BRANCH   1  17
ATOM     15  C   UNL     1       4.794   0.441  -0.019  0.00  0.00    +0.068 C 
ATOM     16  C   UNL     1       4.714   1.910  -0.348  0.00  0.00    +0.063 C 
ATOM     17  N   UNL     1       3.567   2.517  -0.333  0.00  0.00    -0.187 NA
BRANCH  16  18
ATOM     18  C   UNL     1       5.939   2.658  -0.686  0.00  0.00    -0.002 A 
ATOM     19  C   UNL     1       7.176   2.009  -0.697  0.00  0.00    +0.011 A 
ATOM     20  C   UNL     1       8.318   2.713  -1.019  0.00  0.00    +0.015 A 
ATOM     21  C   UNL     1       8.241   4.062  -1.320  0.00  0.00    +0.013 A 
ATOM     22  C   UNL     1       7.019   4.712  -1.306  0.00  0.00    +0.015 A 
ATOM     23  C   UNL     1       5.869   4.019  -0.991  0.00  0.00    +0.011 A 
ATOM     24  I   UNL     1       9.981   5.125  -1.800  0.00  0.00    -0.044 I 
ENDBRANCH  16  18
ENDBRANCH   1  17
TORSDOF 4
