REMARK  Name = ZINC20154325
REMARK  6 active torsions:
REMARK  status: ('A' for Active; 'I' for Inactive)
REMARK    1  A    between atoms: C_5  and  S_6
REMARK    2  A    between atoms: S_6  and  N_9
REMARK    3  A    between atoms: N_9  and  C_10
REMARK    4  A    between atoms: C_10  and  C_11
REMARK    5  A    between atoms: C_14  and  C_17
REMARK    6  A    between atoms: N_22  and  C_25
REMARK                            x       y       z     vdW  Elec       q    Type
REMARK                         _______ _______ _______ _____ _____    ______ ____
ROOT
ATOM      1  C   UNL     1      -1.471   3.595  -0.442  0.00  0.00    +0.005 C 
ATOM      2  C   UNL     1      -0.691   2.909  -1.566  0.00  0.00    +0.005 C 
ATOM      3  C   UNL     1      -0.682   1.397  -1.331  0.00  0.00    +0.013 C 
ATOM      4  C   UNL     1      -0.015   1.093   0.012  0.00  0.00    +0.075 C 
ATOM      5  C   UNL     1      -0.795   1.778   1.135  0.00  0.00    +0.013 C 
ATOM      6  C   UNL     1      -0.804   3.291   0.901  0.00  0.00    +0.005 C 
ENDROOT
BRANCH   4   7
ATOM      7  C   UNL     1       1.401   1.607  -0.003  0.00  0.00    +0.219 C 
ATOM      8  O   UNL     1       1.809   2.233  -0.958  0.00  0.00    -0.275 OA
ATOM      9  N   UNL     1       2.214   1.372   1.046  0.00  0.00    -0.299 N 
ATOM     10  C   UNL     1       1.777   0.523   2.164  0.00  0.00    +0.123 C 
ATOM     11  C   UNL     1       2.858  -0.541   2.413  0.00  0.00    +0.103 C 
ATOM     12  N   UNL     1       4.155   0.122   2.607  0.00  0.00    -0.296 NA
ATOM     13  C   UNL     1       4.569   0.848   1.399  0.00  0.00    +0.103 C 
ATOM     14  C   UNL     1       3.560   1.963   1.106  0.00  0.00    +0.123 C 
BRANCH  12  15
ATOM     15  C   UNL     1       5.183  -0.842   3.021  0.00  0.00    +0.057 C 
ATOM     16  C   UNL     1       5.414  -1.854   1.897  0.00  0.00    +0.019 C 
ATOM     17  C   UNL     1       6.485  -2.858   2.328  0.00  0.00    +0.002 C 
ATOM     18  C   UNL     1       6.019  -3.592   3.587  0.00  0.00    +0.000 C 
ATOM     19  C   UNL     1       5.787  -2.580   4.710  0.00  0.00    +0.002 C 
ATOM     20  C   UNL     1       4.717  -1.576   4.280  0.00  0.00    +0.019 C 
ENDBRANCH  12  15
ENDBRANCH   4   7
BRANCH   1  21
ATOM     21  C   UNL     1      -1.480   5.107  -0.676  0.00  0.00    +0.109 C 
BRANCH  21  22
ATOM     22  N   UNL     1      -2.326   5.752   0.331  0.00  0.00    -0.189 NA
ATOM     23  H   UNL     1      -3.133   5.184   0.817  0.00  0.00    +0.148 HD
BRANCH  22  24
ATOM     24  S   UNL     1      -2.235   7.389   0.562  0.00  0.00    +0.065 S 
ATOM     25  O   UNL     1      -3.183   7.710   1.572  0.00  0.00    -0.153 OA
ATOM     26  O   UNL     1      -0.856   7.707   0.684  0.00  0.00    -0.153 OA
BRANCH  24  31
ATOM     27  C   UNL     1      -4.056   8.530  -1.263  0.00  0.00    +0.037 A 
ATOM     28  C   UNL     1      -4.268   9.122  -2.494  0.00  0.00    +0.025 A 
ATOM     29  C   UNL     1      -3.211   9.313  -3.322  0.00  0.00    +0.057 A 
ATOM     30  S   UNL     1      -1.862   8.652  -2.357  0.00  0.00    -0.062 S 
ATOM     31  C   UNL     1      -2.800   8.157  -0.920  0.00  0.00    +0.143 A 
ATOM     32 BR   UNL     1      -3.174  10.086  -5.047  0.00  0.00    -0.043 Br
ENDBRANCH  24  31
ENDBRANCH  22  24
ENDBRANCH  21  22
ENDBRANCH   1  21
TORSDOF 6
