REMARK  Name = ZINC02094305
REMARK  6 active torsions:
REMARK  status: ('A' for Active; 'I' for Inactive)
REMARK    1  A    between atoms: C_1  and  O_2
REMARK    2  A    between atoms: O_2  and  C_3
REMARK    3  A    between atoms: C_6  and  C_13
REMARK    4  A    between atoms: C_25  and  S_28
REMARK    5  A    between atoms: S_28  and  C_29
REMARK    6  A    between atoms: C_29  and  C_30
REMARK                            x       y       z     vdW  Elec       q    Type
REMARK                         _______ _______ _______ _____ _____    ______ ____
ROOT
ATOM      1  C   UNL     1       5.030   3.990  -0.025  0.00  0.00    +0.294 C 
ATOM      2  N   UNL     1       6.029   3.041   0.457  0.00  0.00    -0.305 N 
ATOM      3  C   UNL     1       6.465   2.027  -0.399  0.00  0.00    +0.039 A 
ATOM      4  C   UNL     1       6.134   0.703  -0.175  0.00  0.00    +0.024 A 
ATOM      5  C   UNL     1       6.553  -0.271  -1.063  0.00  0.00    +0.002 A 
ATOM      6  C   UNL     1       7.302   0.071  -2.175  0.00  0.00    +0.001 A 
ATOM      7  C   UNL     1       7.647   1.388  -2.409  0.00  0.00    +0.012 A 
ATOM      8  C   UNL     1       7.237   2.376  -1.522  0.00  0.00    +0.028 A 
ATOM      9  C   UNL     1       7.595   3.795  -1.726  0.00  0.00    +0.156 A 
ATOM     10  C   UNL     1       6.597   4.790  -1.618  0.00  0.00    +0.248 A 
ATOM     11  N   UNL     1       6.939   6.055  -1.788  0.00  0.00    -0.184 NA
ATOM     12  C   UNL     1       8.206   6.355  -2.061  0.00  0.00    +0.213 A 
ATOM     13  N   UNL     1       9.127   5.406  -2.164  0.00  0.00    -0.122 NA
ATOM     14  N   UNL     1       8.837   4.161  -2.003  0.00  0.00    -0.141 NA
ATOM     15  O   UNL     1       5.319   4.434  -1.346  0.00  0.00    -0.449 OA
ATOM     16  H   UNL     1       6.384   3.113   1.357  0.00  0.00    +0.150 HD
ENDROOT
BRANCH   1  20
ATOM     17  C   UNL     1       1.170   2.086  -0.036  0.00  0.00    +0.128 A 
ATOM     18  C   UNL     1       1.931   2.158  -1.169  0.00  0.00    +0.047 A 
ATOM     19  C   UNL     1       3.178   2.775  -1.156  0.00  0.00    +0.013 A 
ATOM     20  C   UNL     1       3.677   3.326  -0.015  0.00  0.00    +0.019 A 
ATOM     21  C   UNL     1       2.926   3.273   1.171  0.00  0.00    -0.006 A 
ATOM     22  C   UNL     1       1.653   2.651   1.162  0.00  0.00    +0.024 A 
ATOM     23  C   UNL     1       0.905   2.594   2.349  0.00  0.00    +0.012 A 
ATOM     24  C   UNL     1       1.406   3.145   3.488  0.00  0.00    +0.001 A 
ATOM     25  C   UNL     1       2.655   3.762   3.497  0.00  0.00    +0.001 A 
ATOM     26  C   UNL     1       3.411   3.832   2.367  0.00  0.00    +0.009 A 
BRANCH  17  28
ATOM     27  C   UNL     1      -0.469   0.937  -1.317  0.00  0.00    +0.277 C 
ATOM     28  O   UNL     1      -0.045   1.480  -0.065  0.00  0.00    -0.495 OA
ENDBRANCH  17  28
ENDBRANCH   1  20
BRANCH  12  29
ATOM     29  S   UNL     1       8.667   8.040  -2.289  0.00  0.00    -0.080 S 
BRANCH  29  30
ATOM     30  C   UNL     1      10.436   7.839  -2.619  0.00  0.00    +0.115 C 
BRANCH  30  31
ATOM     31  C   UNL     1      11.060   9.191  -2.852  0.00  0.00    -0.002 A 
ATOM     32  C   UNL     1      11.122   9.713  -4.130  0.00  0.00    +0.007 A 
ATOM     33  C   UNL     1      11.689  10.956  -4.343  0.00  0.00    +0.000 A 
ATOM     34  C   UNL     1      12.205  11.672  -3.279  0.00  0.00    +0.003 A 
ATOM     35  C   UNL     1      12.150  11.150  -2.002  0.00  0.00    +0.038 A 
ATOM     36  C   UNL     1      11.576   9.908  -1.786  0.00  0.00    +0.127 A 
ATOM     37  F   UNL     1      11.522   9.396  -0.537  0.00  0.00    -0.205 F 
ENDBRANCH  30  31
ENDBRANCH  29  30
ENDBRANCH  12  29
TORSDOF 5
