REMARK  Name = ZINC28288652
REMARK  5 active torsions:
REMARK  status: ('A' for Active; 'I' for Inactive)
REMARK    1  A    between atoms: C_6  and  C_7
REMARK    2  A    between atoms: C_7  and  C_9
REMARK    3  A    between atoms: C_7  and  N_25
REMARK    4  A    between atoms: C_9  and  N_10
REMARK    5  A    between atoms: C_11  and  C_13
REMARK                            x       y       z     vdW  Elec       q    Type
REMARK                         _______ _______ _______ _____ _____    ______ ____
ROOT
ATOM      1  C   UNL     1      -5.046  -2.749  -0.050  0.00  0.00    +0.094 C 
ENDROOT
BRANCH   1   2
ATOM      2  N   UNL     1      -5.111  -3.547   1.177  0.00  0.00    -0.310 N 
ATOM      3  C   UNL     1      -4.327  -4.634   1.317  0.00  0.00    +0.279 C 
ATOM      4  O   UNL     1      -3.565  -4.952   0.425  0.00  0.00    -0.267 OA
ATOM      5  H   UNL     1      -5.801  -3.259   1.984  0.00  0.00    +0.149 HD
BRANCH   3   6
ATOM      6  C   UNL     1      -4.393  -5.441   2.558  0.00  0.00    +0.193 A 
ATOM      7  C   UNL     1      -3.593  -6.528   2.671  0.00  0.00    +0.103 A 
ATOM      8  C   UNL     1      -3.658  -7.329   3.903  0.00  0.00    +0.193 A 
ATOM      9  O   UNL     1      -2.961  -8.317   4.059  0.00  0.00    -0.287 OA
ATOM     10  C   UNL     1      -4.606  -6.880   4.940  0.00  0.00    +0.065 A 
ATOM     11  C   UNL     1      -4.744  -7.571   6.144  0.00  0.00    +0.030 A 
ATOM     12  C   UNL     1      -5.641  -7.121   7.087  0.00  0.00    +0.019 A 
ATOM     13  C   UNL     1      -6.403  -5.985   6.841  0.00  0.00    +0.019 A 
ATOM     14  C   UNL     1      -6.276  -5.295   5.656  0.00  0.00    +0.048 A 
ATOM     15  C   UNL     1      -5.376  -5.732   4.689  0.00  0.00    +0.140 A 
ATOM     16  O   UNL     1      -5.243  -5.066   3.526  0.00  0.00    -0.450 OA
ATOM     17 BR   UNL     1      -5.836  -8.050   8.722  0.00  0.00    -0.050 Br
ENDBRANCH   3   6
ENDBRANCH   1   2
BRANCH   1  18
ATOM     18  C   UNL     1      -6.127  -1.667  -0.013  0.00  0.00    -0.020 C 
BRANCH  18  24
ATOM     19  C   UNL     1      -8.054  -2.786  -1.151  0.00  0.00    +0.003 A 
ATOM     20  C   UNL     1      -9.299  -3.386  -1.123  0.00  0.00    +0.020 A 
ATOM     21  C   UNL     1      -9.982  -3.505   0.074  0.00  0.00    +0.041 A 
ATOM     22  C   UNL     1      -9.416  -3.029   1.243  0.00  0.00    +0.020 A 
ATOM     23  C   UNL     1      -8.168  -2.435   1.214  0.00  0.00    +0.003 A 
ATOM     24  C   UNL     1      -7.487  -2.316   0.018  0.00  0.00    -0.059 A 
ATOM     25 CL   UNL     1     -11.549  -4.251   0.109  0.00  0.00    -0.084 Cl
ENDBRANCH  18  24
BRANCH  18  26
ATOM     26  N   UNL     1      -6.015  -0.821  -1.209  0.00  0.00    +0.385 N 
ATOM     27  C   UNL     1      -4.679  -0.219  -1.304  0.00  0.00    -0.078 C 
ATOM     28  C   UNL     1      -4.551   0.534  -2.630  0.00  0.00    -0.019 C 
ATOM     29  C   UNL     1      -5.627   1.620  -2.701  0.00  0.00    -0.004 C 
ATOM     30  C   UNL     1      -7.006   0.972  -2.551  0.00  0.00    -0.019 C 
ATOM     31  C   UNL     1      -7.063   0.206  -1.227  0.00  0.00    -0.078 C 
ATOM     32  H   UNL     1      -6.157  -1.462  -2.092  0.00  0.00    -0.081 HD
ENDBRANCH  18  26
ENDBRANCH   1  18
TORSDOF 5
