REMARK  Name = ZINC64480207
REMARK  11 active torsions:
REMARK  status: ('A' for Active; 'I' for Inactive)
REMARK    1  A    between atoms: C_1  and  C_2
REMARK    2  A    between atoms: C_7  and  O_32
REMARK    3  A    between atoms: C_13  and  C_15
REMARK    4  A    between atoms: C_15  and  C_16
REMARK    5  A    between atoms: N_18  and  C_19
REMARK    6  A    between atoms: C_19  and  C_20
REMARK    7  A    between atoms: C_20  and  C_21
REMARK    8  A    between atoms: C_24  and  O_30
REMARK    9  A    between atoms: O_30  and  C_31
REMARK   10  A    between atoms: O_32  and  C_33
REMARK   11  A    between atoms: C_33  and  C_35
REMARK                            x       y       z     vdW  Elec       q    Type
REMARK                         _______ _______ _______ _____ _____    ______ ____
ROOT
ATOM      1  C   UNL     1       1.987  -2.647   2.050  0.00  0.00    +0.214 C 
ATOM      2  O   UNL     1       2.282  -1.943   2.993  0.00  0.00    -0.276 OA
ATOM      3  N   UNL     1       2.424  -3.921   1.998  0.00  0.00    -0.315 N 
ATOM      4  H   UNL     1       2.189  -4.484   1.245  0.00  0.00    +0.149 HD
ENDROOT
BRANCH   1   5
ATOM      5  C   UNL     1       1.133  -2.098   0.938  0.00  0.00    +0.111 C 
BRANCH   5  17
ATOM      6  C   UNL     1      -0.001   1.488   0.187  0.00  0.00    +0.013 C 
ATOM      7  C   UNL     1       0.012  -0.037   0.058  0.00  0.00    +0.034 C 
ATOM      8  C   UNL     1      -1.405  -0.551   0.049  0.00  0.00    -0.001 A 
ATOM      9  C   UNL     1      -2.125  -0.479  -1.134  0.00  0.00    +0.011 A 
ATOM     10  C   UNL     1      -3.428  -0.931  -1.189  0.00  0.00    +0.047 A 
ATOM     11  C   UNL     1      -4.026  -1.461  -0.054  0.00  0.00    +0.135 A 
ATOM     12  C   UNL     1      -3.309  -1.538   1.129  0.00  0.00    +0.093 A 
ATOM     13  C   UNL     1      -1.995  -1.085   1.180  0.00  0.00    +0.139 A 
ATOM     14  O   UNL     1      -1.321  -1.196   2.357  0.00  0.00    -0.425 OA
ATOM     15  C   UNL     1      -0.128  -0.575   2.453  0.00  0.00    +0.316 C 
ATOM     16  O   UNL     1       0.203   0.007   3.458  0.00  0.00    -0.250 OA
ATOM     17  C   UNL     1       0.776  -0.641   1.240  0.00  0.00    +0.114 C 
BRANCH  11  18
ATOM     18  O   UNL     1      -5.310  -1.903  -0.103  0.00  0.00    -0.426 OA
BRANCH  18  19
ATOM     19  C   UNL     1      -6.243  -1.204   0.564  0.00  0.00    +0.309 C 
ATOM     20  O   UNL     1      -5.950  -0.160   1.096  0.00  0.00    -0.251 OA
ATOM     21  C   UNL     1      -7.655  -1.723   0.648  0.00  0.00    +0.136 C 
ENDBRANCH  18  19
ENDBRANCH  11  18
ENDBRANCH   5  17
ENDBRANCH   1   5
BRANCH   3  22
ATOM     22  C   UNL     1       3.256  -4.455   3.080  0.00  0.00    +0.108 C 
BRANCH  22  23
ATOM     23  C   UNL     1       3.612  -5.912   2.778  0.00  0.00    +0.052 C 
BRANCH  23  24
ATOM     24  C   UNL     1       4.467  -6.461   3.890  0.00  0.00    -0.040 C 
ATOM     25  C   UNL     1       4.048  -7.170   4.963  0.00  0.00    +0.002 A 
ATOM     26  C   UNL     1       2.724  -7.624   5.401  0.00  0.00    +0.055 A 
ATOM     27  C   UNL     1       2.608  -8.334   6.548  0.00  0.00    +0.121 A 
ATOM     28  C   UNL     1       3.719  -8.657   7.347  0.00  0.00    +0.047 A 
ATOM     29  C   UNL     1       4.976  -8.283   7.029  0.00  0.00    +0.029 A 
ATOM     30  C   UNL     1       5.218  -7.511   5.806  0.00  0.00    +0.043 A 
ATOM     31  N   UNL     1       6.316  -7.032   5.275  0.00  0.00    -0.380 N 
ATOM     32  C   UNL     1       5.968  -6.337   4.030  0.00  0.00    +0.144 C 
ATOM     33  H   UNL     1       7.209  -7.124   5.642  0.00  0.00    +0.160 HD
BRANCH  27  34
ATOM     34  O   UNL     1       1.374  -8.748   6.942  0.00  0.00    -0.495 OA
ATOM     35  C   UNL     1       1.298  -9.494   8.159  0.00  0.00    +0.277 C 
ENDBRANCH  27  34
ENDBRANCH  23  24
ENDBRANCH  22  23
ENDBRANCH   3  22
TORSDOF 8
