REMARK  Name = ZINC21523775
REMARK  7 active torsions:
REMARK  status: ('A' for Active; 'I' for Inactive)
REMARK    1  A    between atoms: C_1  and  C_2
REMARK    2  A    between atoms: C_4  and  C_36
REMARK    3  A    between atoms: C_11  and  C_13
REMARK    4  A    between atoms: C_14  and  C_21
REMARK    5  A    between atoms: C_24  and  O_27
REMARK    6  A    between atoms: O_27  and  C_28
REMARK    7  A    between atoms: C_28  and  C_29
REMARK                            x       y       z     vdW  Elec       q    Type
REMARK                         _______ _______ _______ _____ _____    ______ ____
ROOT
ATOM      1  C   UNL     1       2.332   5.372  -0.830  0.00  0.00    +0.066 C 
ATOM      2  C   UNL     1       1.167   4.420  -0.740  0.00  0.00    +0.044 A 
ATOM      3  C   UNL     1       1.380   3.051  -0.706  0.00  0.00    +0.046 A 
ATOM      4  C   UNL     1       0.280   2.212  -0.622  0.00  0.00    +0.044 A 
ATOM      5  N   UNL     1      -0.932   2.740  -0.577  0.00  0.00    -0.216 NA
ATOM      6  C   UNL     1      -1.100   4.052  -0.611  0.00  0.00    +0.253 A 
ATOM      7  N   UNL     1      -0.071   4.882  -0.686  0.00  0.00    -0.216 NA
ATOM      8  N   UNL     1      -2.392   4.574  -0.561  0.00  0.00    -0.183 N 
ATOM      9  C   UNL     1      -3.561   3.843  -0.599  0.00  0.00    +0.137 A 
ATOM     10  C   UNL     1      -4.580   4.726  -0.521  0.00  0.00    +0.033 A 
ATOM     11  C   UNL     1      -4.024   6.022  -0.447  0.00  0.00    +0.067 A 
ATOM     12  N   UNL     1      -2.726   5.925  -0.471  0.00  0.00    -0.167 NA
ATOM     13  C   UNL     1      -4.805   7.307  -0.355  0.00  0.00    +0.068 C 
ATOM     14  C   UNL     1      -6.059   4.496  -0.513  0.00  0.00    +0.112 C 
ATOM     15  S   UNL     1      -6.539   2.977   0.305  0.00  0.00    -0.138 S 
ATOM     16  C   UNL     1      -5.918   1.638  -0.720  0.00  0.00    +0.166 C 
ATOM     17  C   UNL     1      -4.443   1.540  -0.711  0.00  0.00    +0.228 C 
ATOM     18  O   UNL     1      -4.007   0.409  -0.713  0.00  0.00    -0.275 OA
ATOM     19  N   UNL     1      -3.540   2.474  -0.702  0.00  0.00    -0.269 N 
ATOM     20  C   UNL     1       0.463   0.717  -0.583  0.00  0.00    +0.066 C 
ATOM     21  H   UNL     1      -2.581   1.945  -0.805  0.00  0.00    +0.156 HD
ENDROOT
BRANCH  14  22
ATOM     22  C   UNL     1      -6.725   5.659   0.177  0.00  0.00    -0.030 A 
ATOM     23  C   UNL     1      -6.574   5.831   1.540  0.00  0.00    +0.008 A 
ATOM     24  C   UNL     1      -7.179   6.900   2.174  0.00  0.00    +0.046 A 
ATOM     25  C   UNL     1      -7.948   7.793   1.443  0.00  0.00    +0.121 A 
ATOM     26  C   UNL     1      -8.102   7.615   0.075  0.00  0.00    +0.046 A 
ATOM     27  C   UNL     1      -7.490   6.549  -0.554  0.00  0.00    +0.008 A 
BRANCH  25  28
ATOM     28  O   UNL     1      -8.549   8.841   2.065  0.00  0.00    -0.487 OA
BRANCH  28  29
ATOM     29  C   UNL     1      -8.347   8.963   3.474  0.00  0.00    +0.267 C 
BRANCH  29  30
ATOM     30  C   UNL     1      -9.084  10.174   3.985  0.00  0.00    +0.025 A 
ATOM     31  C   UNL     1      -9.809  10.962   3.111  0.00  0.00    +0.010 A 
ATOM     32  C   UNL     1     -10.485  12.072   3.580  0.00  0.00    +0.001 A 
ATOM     33  C   UNL     1     -10.438  12.396   4.923  0.00  0.00    +0.003 A 
ATOM     34  C   UNL     1      -9.714  11.609   5.799  0.00  0.00    +0.039 A 
ATOM     35  C   UNL     1      -9.040  10.494   5.331  0.00  0.00    +0.130 A 
ATOM     36  F   UNL     1      -8.336   9.721   6.187  0.00  0.00    -0.205 F 
ENDBRANCH  29  30
ENDBRANCH  28  29
ENDBRANCH  25  28
ENDBRANCH  14  22
TORSDOF 4
