REMARK  Name = ZINC08486873
REMARK  8 active torsions:
REMARK  status: ('A' for Active; 'I' for Inactive)
REMARK    1  A    between atoms: C_1  and  N_2
REMARK    2  A    between atoms: N_2  and  C_3
REMARK    3  A    between atoms: C_8  and  C_9
REMARK    4  A    between atoms: C_9  and  O_11
REMARK    5  A    between atoms: O_11  and  C_12
REMARK    6  A    between atoms: C_12  and  C_13
REMARK    7  A    between atoms: N_15  and  C_16
REMARK    8  A    between atoms: C_17  and  C_25
REMARK                            x       y       z     vdW  Elec       q    Type
REMARK                         _______ _______ _______ _____ _____    ______ ____
ROOT
ATOM      1  C   UNL     1       0.192  -6.305   1.291  0.00  0.00    +0.255 C 
ATOM      2  O   UNL     1       0.811  -6.739   0.343  0.00  0.00    -0.272 OA
ATOM      3  N   UNL     1      -0.211  -7.138   2.271  0.00  0.00    -0.277 N 
ATOM      4  H   UNL     1      -0.707  -6.791   3.029  0.00  0.00    +0.155 HD
ENDROOT
BRANCH   3   5
ATOM      5  C   UNL     1       0.083  -8.491   2.195  0.00  0.00    +0.084 A 
ATOM      6  C   UNL     1      -0.252  -9.488   3.098  0.00  0.00    +0.068 A 
ATOM      7  C   UNL     1       0.178 -10.839   2.785  0.00  0.00    -0.023 A 
ATOM      8  C   UNL     1       0.865 -10.946   1.627  0.00  0.00    -0.004 A 
ATOM      9  S   UNL     1       0.921  -9.299   0.985  0.00  0.00    -0.077 S 
ATOM     10  C   UNL     1       1.440 -12.195   1.035  0.00  0.00    +0.043 C 
ATOM     11  C   UNL     1       1.461 -13.280   2.122  0.00  0.00    +0.005 C 
ATOM     12  C   UNL     1       0.094 -13.317   2.811  0.00  0.00    +0.005 C 
ATOM     13  C   UNL     1      -0.099 -12.056   3.656  0.00  0.00    +0.037 C 
BRANCH   6  14
ATOM     14  C   UNL     1      -1.009  -9.190   4.318  0.00  0.00    +0.244 C 
ATOM     15  O   UNL     1      -2.225  -9.234   4.306  0.00  0.00    -0.270 OA
ATOM     16  N   UNL     1      -0.358  -8.868   5.453  0.00  0.00    -0.325 N 
ATOM     17  H   UNL     1       0.612  -8.833   5.463  0.00  0.00    +0.145 HD
ATOM     18  H   UNL     1      -0.859  -8.671   6.261  0.00  0.00    +0.145 HD
ENDBRANCH   6  14
ENDBRANCH   3   5
BRANCH   1  19
ATOM     19  C   UNL     1      -0.128  -4.834   1.373  0.00  0.00    +0.328 C 
BRANCH  19  20
ATOM     20  O   UNL     1       0.401  -4.167   0.226  0.00  0.00    -0.452 OA
BRANCH  20  21
ATOM     21  C   UNL     1       0.200  -2.837   0.145  0.00  0.00    +0.341 C 
ATOM     22  O   UNL     1      -0.407  -2.259   1.025  0.00  0.00    -0.245 OA
BRANCH  21  28
ATOM     23  C   UNL     1       0.614  -0.683  -1.043  0.00  0.00    +0.041 A 
ATOM     24  C   UNL     1       1.111   0.017  -2.136  0.00  0.00    +0.024 A 
ATOM     25  C   UNL     1       1.695  -0.663  -3.184  0.00  0.00    +0.002 A 
ATOM     26  C   UNL     1       1.793  -2.045  -3.158  0.00  0.00    +0.001 A 
ATOM     27  C   UNL     1       1.308  -2.757  -2.083  0.00  0.00    +0.017 A 
ATOM     28  C   UNL     1       0.717  -2.083  -1.010  0.00  0.00    +0.080 A 
BRANCH  23  30
ATOM     29  C   UNL     1       0.031   1.464   0.034  0.00  0.00    +0.125 C 
ATOM     30  N   UNL     1       0.025  -0.001   0.013  0.00  0.00    -0.346 N 
ATOM     31  H   UNL     1      -0.390  -0.495   0.738  0.00  0.00    +0.146 HD
ENDBRANCH  23  30
ENDBRANCH  21  28
ENDBRANCH  20  21
ENDBRANCH  19  20
ENDBRANCH   1  19
TORSDOF 7
