REMARK  Name = ZINC03130302
REMARK  8 active torsions:
REMARK  status: ('A' for Active; 'I' for Inactive)
REMARK    1  A    between atoms: C_1  and  C_2
REMARK    2  A    between atoms: C_2  and  C_3
REMARK    3  A    between atoms: C_2  and  C_4
REMARK    4  A    between atoms: C_2  and  C_15
REMARK    5  A    between atoms: C_7  and  O_11
REMARK    6  A    between atoms: O_11  and  C_12
REMARK    7  A    between atoms: C_18  and  O_22
REMARK    8  A    between atoms: O_22  and  C_23
REMARK                            x       y       z     vdW  Elec       q    Type
REMARK                         _______ _______ _______ _____ _____    ______ ____
ROOT
ATOM      1  C   UNL     1      -2.320   1.862  -1.122  0.00  0.00    +0.021 C 
ATOM      2  C   UNL     1      -1.333   2.113   0.020  0.00  0.00    +0.015 C 
ATOM      3  C   UNL     1      -1.920   1.577   1.328  0.00  0.00    +0.021 C 
ENDROOT
BRANCH   2   4
ATOM      4  C   UNL     1      -0.034   1.406  -0.274  0.00  0.00    -0.034 A 
ATOM      5  C   UNL     1       0.614   1.625  -1.476  0.00  0.00    +0.028 A 
ATOM      6  C   UNL     1       1.802   0.974  -1.751  0.00  0.00    +0.086 A 
ATOM      7  C   UNL     1       2.345   0.100  -0.819  0.00  0.00    +0.179 A 
ATOM      8  C   UNL     1       1.692  -0.117   0.387  0.00  0.00    +0.086 A 
ATOM      9  C   UNL     1       0.504   0.537   0.656  0.00  0.00    +0.028 A 
ATOM     10 CL   UNL     1       2.367  -1.209   1.555  0.00  0.00    -0.080 Cl
ATOM     11 CL   UNL     1       2.615   1.250  -3.260  0.00  0.00    -0.080 Cl
BRANCH   7  12
ATOM     12  O   UNL     1       3.513  -0.541  -1.086  0.00  0.00    -0.384 OA
BRANCH  12  13
ATOM     13  C   UNL     1       3.357  -1.736  -1.705  0.00  0.00    +0.292 C 
ATOM     14  N   UNL     1       3.225  -2.739  -2.223  0.00  0.00    -0.149 NA
ENDBRANCH  12  13
ENDBRANCH   7  12
ENDBRANCH   2   4
BRANCH   2  15
ATOM     15  C   UNL     1      -1.081   3.593   0.150  0.00  0.00    -0.034 A 
ATOM     16  C   UNL     1       0.214   4.076   0.140  0.00  0.00    +0.028 A 
ATOM     17  C   UNL     1       0.448   5.434   0.255  0.00  0.00    +0.086 A 
ATOM     18  C   UNL     1      -0.619   6.311   0.392  0.00  0.00    +0.179 A 
ATOM     19  C   UNL     1      -1.918   5.822   0.407  0.00  0.00    +0.086 A 
ATOM     20  C   UNL     1      -2.146   4.464   0.286  0.00  0.00    +0.028 A 
ATOM     21 CL   UNL     1      -3.256   6.916   0.578  0.00  0.00    -0.080 Cl
ATOM     22 CL   UNL     1       2.074   6.040   0.235  0.00  0.00    -0.080 Cl
BRANCH  18  23
ATOM     23  O   UNL     1      -0.392   7.646   0.510  0.00  0.00    -0.384 OA
BRANCH  23  24
ATOM     24  C   UNL     1      -0.241   8.068   1.789  0.00  0.00    +0.292 C 
ATOM     25  N   UNL     1      -0.114   8.422   2.861  0.00  0.00    -0.149 NA
ENDBRANCH  23  24
ENDBRANCH  18  23
ENDBRANCH   2  15
TORSDOF 6
