REMARK  Name = ZINC27664669
REMARK  6 active torsions:
REMARK  status: ('A' for Active; 'I' for Inactive)
REMARK    1  A    between atoms: C_1  and  C_2
REMARK    2  A    between atoms: C_10  and  C_11
REMARK    3  A    between atoms: N_13  and  C_14
REMARK    4  A    between atoms: C_14  and  C_15
REMARK    5  A    between atoms: C_15  and  C_17
REMARK    6  A    between atoms: C_15  and  N_24
REMARK                            x       y       z     vdW  Elec       q    Type
REMARK                         _______ _______ _______ _____ _____    ______ ____
ROOT
ATOM      1  C   UNL     1      -4.921   5.448   0.119  0.00  0.00    -0.019 C 
ENDROOT
BRANCH   1   2
ATOM      2  N   UNL     1      -5.116   4.607   1.307  0.00  0.00    +0.385 N 
ATOM      3  C   UNL     1      -4.023   3.619   1.444  0.00  0.00    -0.078 C 
ATOM      4  C   UNL     1      -4.313   2.566   2.478  0.00  0.00    -0.019 C 
ATOM      5  C   UNL     1      -4.949   1.349   1.773  0.00  0.00    -0.002 C 
ATOM      6  C   UNL     1      -6.362   1.561   1.476  0.00  0.00    -0.002 C 
ATOM      7  C   UNL     1      -6.585   2.758   0.528  0.00  0.00    -0.019 C 
ATOM      8  C   UNL     1      -6.478   4.027   1.329  0.00  0.00    -0.078 C 
ATOM      9  H   UNL     1      -5.053   5.240   2.205  0.00  0.00    -0.081 HD
ENDBRANCH   1   2
BRANCH   1  10
ATOM     10  C   UNL     1      -5.823   6.652   0.202  0.00  0.00    -0.041 A 
ATOM     11  C   UNL     1      -6.260   7.105   1.432  0.00  0.00    +0.003 A 
ATOM     12  C   UNL     1      -7.084   8.212   1.509  0.00  0.00    +0.000 A 
ATOM     13  C   UNL     1      -7.479   8.862   0.354  0.00  0.00    +0.001 A 
ATOM     14  C   UNL     1      -7.047   8.407  -0.877  0.00  0.00    +0.020 A 
ATOM     15  C   UNL     1      -6.219   7.301  -0.954  0.00  0.00    +0.043 A 
ATOM     16 CL   UNL     1      -5.676   6.729  -2.501  0.00  0.00    -0.083 Cl
ENDBRANCH   1  10
BRANCH   1  17
ATOM     17  C   UNL     1      -3.463   5.906   0.052  0.00  0.00    +0.094 C 
BRANCH  17  20
ATOM     18  C   UNL     1      -1.833   6.977   1.513  0.00  0.00    +0.280 C 
ATOM     19  O   UNL     1      -0.992   6.806   0.651  0.00  0.00    -0.267 OA
ATOM     20  N   UNL     1      -3.100   6.562   1.310  0.00  0.00    -0.310 N 
ATOM     21  H   UNL     1      -3.860   6.717   2.090  0.00  0.00    +0.149 HD
BRANCH  18  31
ATOM     22  C   UNL     1       1.007   8.023   2.228  0.00  0.00    +0.048 C 
ATOM     23  C   UNL     1      -0.229   8.092   3.089  0.00  0.00    +0.008 A 
ATOM     24  C   UNL     1      -0.335   8.665   4.430  0.00  0.00    +0.024 A 
ATOM     25  C   UNL     1       0.567   9.284   5.299  0.00  0.00    +0.012 A 
ATOM     26  C   UNL     1       0.139   9.721   6.521  0.00  0.00    +0.001 A 
ATOM     27  C   UNL     1      -1.185   9.553   6.904  0.00  0.00    +0.004 A 
ATOM     28  C   UNL     1      -2.091   8.945   6.061  0.00  0.00    +0.047 A 
ATOM     29  C   UNL     1      -1.678   8.493   4.813  0.00  0.00    +0.136 A 
ATOM     30  O   UNL     1      -2.314   7.871   3.801  0.00  0.00    -0.450 OA
ATOM     31  C   UNL     1      -1.468   7.635   2.776  0.00  0.00    +0.193 A 
ENDBRANCH  18  31
ENDBRANCH  17  20
ENDBRANCH   1  17
TORSDOF 5
