REMARK  Name = ZINC19625260
REMARK  12 active torsions:
REMARK  status: ('A' for Active; 'I' for Inactive)
REMARK    1  A    between atoms: C_1  and  C_2
REMARK    2  A    between atoms: C_2  and  C_3
REMARK    3  A    between atoms: C_3  and  C_4
REMARK    4  A    between atoms: C_4  and  N_5
REMARK    5  A    between atoms: C_6  and  N_33
REMARK    6  A    between atoms: C_7  and  N_14
REMARK    7  A    between atoms: N_14  and  C_15
REMARK    8  A    between atoms: C_15  and  C_16
REMARK    9  A    between atoms: C_16  and  C_17
REMARK   10  A    between atoms: C_16  and  C_18
REMARK   11  A    between atoms: C_19  and  C_21
REMARK   12  A    between atoms: C_24  and  C_26
REMARK                            x       y       z     vdW  Elec       q    Type
REMARK                         _______ _______ _______ _____ _____    ______ ____
ROOT
ATOM      1  N   UNL     1      -5.551  -3.570   2.680  0.00  0.00    -0.257 N 
ATOM      2  C   UNL     1      -5.062  -3.145   3.862  0.00  0.00    +0.286 C 
ATOM      3  O   UNL     1      -5.790  -3.088   4.837  0.00  0.00    -0.266 OA
ENDROOT
BRANCH   1   6
ATOM      4  N   UNL     1      -4.105  -2.587  -0.551  0.00  0.00    -0.280 N 
ATOM      5  C   UNL     1      -4.918  -2.584   0.558  0.00  0.00    +0.127 A 
ATOM      6  C   UNL     1      -4.734  -3.546   1.530  0.00  0.00    +0.140 A 
ATOM      7  C   UNL     1      -3.718  -4.505   1.354  0.00  0.00    +0.277 A 
ATOM      8  O   UNL     1      -3.535  -5.367   2.197  0.00  0.00    -0.266 OA
ATOM      9  N   UNL     1      -2.950  -4.463   0.248  0.00  0.00    -0.273 N 
ATOM     10  H   UNL     1      -2.249  -5.123   0.126  0.00  0.00    +0.173 HD
ATOM     11  C   UNL     1      -3.147  -3.520  -0.691  0.00  0.00    +0.331 A 
ATOM     12  O   UNL     1      -2.442  -3.509  -1.682  0.00  0.00    -0.246 OA
BRANCH   5  13
ATOM     13  N   UNL     1      -5.900  -1.633   0.698  0.00  0.00    -0.343 N 
ATOM     14  H   UNL     1      -5.982  -0.920   0.045  0.00  0.00    +0.144 HD
ATOM     15  H   UNL     1      -6.511  -1.674   1.450  0.00  0.00    +0.144 HD
ENDBRANCH   5  13
BRANCH   4  16
ATOM     16  C   UNL     1      -4.288  -1.571  -1.591  0.00  0.00    +0.128 C 
BRANCH  16  17
ATOM     17  C   UNL     1      -5.290  -2.078  -2.630  0.00  0.00    +0.021 C 
BRANCH  17  19
ATOM     18  C   UNL     1      -6.484  -1.525  -4.754  0.00  0.00    +0.004 C 
ATOM     19  C   UNL     1      -5.482  -1.017  -3.715  0.00  0.00    -0.002 C 
ENDBRANCH  17  19
ENDBRANCH  16  17
ENDBRANCH   4  16
ENDBRANCH   1   6
BRANCH   2  20
ATOM     20  C   UNL     1      -3.656  -2.751   3.974  0.00  0.00    +0.190 A 
ATOM     21  C   UNL     1      -3.002  -2.408   5.138  0.00  0.00    +0.055 A 
ATOM     22  C   UNL     1      -1.683  -2.104   4.785  0.00  0.00    +0.050 A 
ATOM     23  C   UNL     1      -1.580  -2.271   3.434  0.00  0.00    +0.136 A 
ATOM     24  O   UNL     1      -2.773  -2.666   2.957  0.00  0.00    -0.450 OA
BRANCH  23  25
ATOM     25  C   UNL     1      -0.359  -2.059   2.631  0.00  0.00    +0.017 A 
ATOM     26  C   UNL     1       0.826  -1.657   3.250  0.00  0.00    +0.013 A 
ATOM     27  C   UNL     1       1.963  -1.460   2.495  0.00  0.00    +0.021 A 
ATOM     28  C   UNL     1       1.930  -1.660   1.124  0.00  0.00    +0.041 A 
ATOM     29  C   UNL     1       0.758  -2.058   0.504  0.00  0.00    +0.021 A 
ATOM     30  C   UNL     1      -0.384  -2.264   1.250  0.00  0.00    +0.013 A 
ATOM     31 CL   UNL     1       3.365  -1.410   0.180  0.00  0.00    -0.084 Cl
ENDBRANCH  23  25
ENDBRANCH   2  20
BRANCH   1  32
ATOM     32  C   UNL     1      -6.930  -4.056   2.589  0.00  0.00    +0.117 C 
BRANCH  32  33
ATOM     33  C   UNL     1      -6.944  -5.580   2.730  0.00  0.00    +0.001 C 
ATOM     34  C   UNL     1      -6.518  -5.964   4.149  0.00  0.00    +0.009 C 
ATOM     35  C   UNL     1      -8.356  -6.104   2.462  0.00  0.00    +0.009 C 
ENDBRANCH  32  33
ENDBRANCH   1  32
TORSDOF 9
