REMARK  Name = ZINC39528166
REMARK  8 active torsions:
REMARK  status: ('A' for Active; 'I' for Inactive)
REMARK    1  A    between atoms: C_1  and  S_2
REMARK    2  A    between atoms: S_2  and  C_3
REMARK    3  A    between atoms: C_6  and  N_16
REMARK    4  A    between atoms: C_7  and  C_9
REMARK    5  A    between atoms: C_9  and  C_10
REMARK    6  A    between atoms: C_20  and  S_23
REMARK    7  A    between atoms: S_23  and  O_26
REMARK    8  A    between atoms: O_26  and  C_27
REMARK                            x       y       z     vdW  Elec       q    Type
REMARK                         _______ _______ _______ _____ _____    ______ ____
ROOT
ATOM      1  N   UNL     1       2.836  -2.413   5.724  0.00  0.00    -0.331 N 
ATOM      2  C   UNL     1       4.194  -2.930   5.955  0.00  0.00    +0.086 C 
ATOM      3  C   UNL     1       4.094  -4.186   6.828  0.00  0.00    -0.061 C 
ATOM      4  N   UNL     1       3.349  -3.871   8.053  0.00  0.00    +0.398 N 
ATOM      5  C   UNL     1       1.965  -3.511   7.718  0.00  0.00    +0.133 C 
ATOM      6  C   UNL     1       1.962  -2.217   6.891  0.00  0.00    +0.115 C 
ATOM      7  H   UNL     1       3.348  -4.677   8.661  0.00  0.00    -0.083 HD
ATOM      8  H   UNL     1       3.792  -3.097   8.525  0.00  0.00    -0.083 HD
ENDROOT
BRANCH   1  12
ATOM      9  C   UNL     1       1.512  -1.514   1.874  0.00  0.00    +0.008 A 
ATOM     10  C   UNL     1       2.039  -0.512   2.679  0.00  0.00    +0.016 A 
ATOM     11  C   UNL     1       2.477  -0.810   3.954  0.00  0.00    +0.024 A 
ATOM     12  C   UNL     1       2.391  -2.111   4.432  0.00  0.00    +0.033 A 
ATOM     13  C   UNL     1       1.864  -3.113   3.628  0.00  0.00    -0.021 A 
ATOM     14  C   UNL     1       1.420  -2.814   2.354  0.00  0.00    +0.020 A 
BRANCH   9  16
ATOM     15  C   UNL     1       1.270   0.644   0.078  0.00  0.00    +0.090 C 
ATOM     16  S   UNL     1       0.953  -1.134   0.247  0.00  0.00    -0.129 S 
ENDBRANCH   9  16
BRANCH  13  17
ATOM     17  C   UNL     1       1.771  -4.525   4.146  0.00  0.00    +0.072 C 
BRANCH  17  18
ATOM     18  C   UNL     1       1.271  -5.430   3.050  0.00  0.00    -0.043 A 
ATOM     19  C   UNL     1      -0.087  -5.633   2.887  0.00  0.00    +0.004 A 
ATOM     20  C   UNL     1      -0.546  -6.463   1.882  0.00  0.00    +0.000 A 
ATOM     21  C   UNL     1       0.353  -7.091   1.040  0.00  0.00    +0.000 A 
ATOM     22  C   UNL     1       1.710  -6.888   1.203  0.00  0.00    +0.000 A 
ATOM     23  C   UNL     1       2.169  -6.054   2.205  0.00  0.00    +0.004 A 
ENDBRANCH  17  18
ENDBRANCH  13  17
ENDBRANCH   1  12
BRANCH   5  24
ATOM     24  S   UNL     1       1.021  -3.253   9.246  0.00  0.00    +0.109 S 
ATOM     25  O   UNL     1       0.854  -4.486   9.932  0.00  0.00    -0.138 OA
ATOM     26  O   UNL     1       1.500  -2.103   9.929  0.00  0.00    -0.138 OA
BRANCH  24  27
ATOM     27  O   UNL     1      -0.378  -2.874   8.781  0.00  0.00    -0.347 OA
BRANCH  27  28
ATOM     28  C   UNL     1      -1.111  -3.922   8.322  0.00  0.00    +0.156 A 
ATOM     29  C   UNL     1      -1.104  -4.237   6.971  0.00  0.00    +0.048 A 
ATOM     30  C   UNL     1      -1.850  -5.303   6.507  0.00  0.00    +0.004 A 
ATOM     31  C   UNL     1      -2.603  -6.057   7.388  0.00  0.00    +0.000 A 
ATOM     32  C   UNL     1      -2.612  -5.746   8.736  0.00  0.00    +0.004 A 
ATOM     33  C   UNL     1      -1.863  -4.684   9.205  0.00  0.00    +0.048 A 
ENDBRANCH  27  28
ENDBRANCH  24  27
ENDBRANCH   5  24
TORSDOF 7
