REMARK  Name = ZINC43576521
REMARK  4 active torsions:
REMARK  status: ('A' for Active; 'I' for Inactive)
REMARK    1  A    between atoms: C_1  and  C_2
REMARK    2  A    between atoms: N_14  and  C_15
REMARK    3  A    between atoms: C_15  and  C_17
REMARK    4  A    between atoms: C_15  and  C_18
REMARK                            x       y       z     vdW  Elec       q    Type
REMARK                         _______ _______ _______ _____ _____    ______ ____
ROOT
ATOM      1  C   UNL     1      -0.019   1.526   0.010  0.00  0.00    +0.008 C 
ATOM      2  C   UNL     1       0.002  -0.004   0.002  0.00  0.00    -0.009 C 
ATOM      3  C   UNL     1      -1.433  -0.537   0.019  0.00  0.00    +0.010 C 
ATOM      4  C   UNL     1      -1.438  -2.046  -0.235  0.00  0.00    +0.056 C 
ATOM      5  C   UNL     1      -0.479  -2.708   0.744  0.00  0.00    +0.054 A 
ATOM      6  C   UNL     1       0.472  -1.978   1.381  0.00  0.00    +0.015 A 
ATOM      7  S   UNL     1       1.290  -3.193   2.376  0.00  0.00    -0.057 S 
ATOM      8  C   UNL     1       0.366  -4.521   1.905  0.00  0.00    +0.166 A 
ATOM      9  N   UNL     1      -0.487  -4.003   1.050  0.00  0.00    -0.229 NA
ATOM     10  N   UNL     1       0.479  -5.843   2.321  0.00  0.00    -0.248 N 
ATOM     11  C   UNL     1      -0.359  -6.777   1.829  0.00  0.00    +0.306 C 
ATOM     12  O   UNL     1      -1.214  -6.464   1.023  0.00  0.00    -0.252 OA
ATOM     13  N   UNL     1      -0.250  -8.059   2.232  0.00  0.00    -0.296 N 
ATOM     14  C   UNL     1       0.739  -0.516   1.250  0.00  0.00    +0.047 C 
ATOM     15  H   UNL     1       1.160  -6.093   2.964  0.00  0.00    +0.158 HD
ATOM     16  H   UNL     1       0.432  -8.309   2.875  0.00  0.00    +0.151 HD
ENDROOT
BRANCH  13  17
ATOM     17  C   UNL     1      -1.161  -9.074   1.698  0.00  0.00    +0.074 C 
ATOM     18  C   UNL     1      -0.616  -9.599   0.368  0.00  0.00    +0.028 C 
BRANCH  17  19
ATOM     19  C   UNL     1      -1.276 -10.230   2.694  0.00  0.00    +0.009 C 
ATOM     20  C   UNL     1      -0.668 -11.575   2.289  0.00  0.00    +0.005 C 
ATOM     21  C   UNL     1      -2.188 -11.399   2.316  0.00  0.00    +0.005 C 
ENDBRANCH  17  19
ENDBRANCH  13  17
TORSDOF 2
