REMARK  Name = ZINC13065168
REMARK  19 active torsions:
REMARK  status: ('A' for Active; 'I' for Inactive)
REMARK    1  A    between atoms: C_1  and  C_2
REMARK    2  A    between atoms: C_2  and  C_3
REMARK    3  A    between atoms: C_3  and  C_5
REMARK    4  A    between atoms: C_3  and  N_79
REMARK    5  A    between atoms: N_9  and  C_10
REMARK    6  A    between atoms: C_10  and  C_11
REMARK    7  A    between atoms: C_10  and  C_12
REMARK    8  A    between atoms: C_10  and  C_13
REMARK    9  A    between atoms: C_14  and  C_15
REMARK   10  A    between atoms: C_14  and  N_79
REMARK   11  A    between atoms: C_15  and  C_16
REMARK   12  A    between atoms: C_19  and  O_24
REMARK   13  A    between atoms: C_20  and  O_22
REMARK   14  A    between atoms: O_22  and  C_23
REMARK   15  A    between atoms: O_24  and  C_25
REMARK   16  A    between atoms: C_26  and  C_27
REMARK   17  A    between atoms: C_26  and  N_79
REMARK   18  A    between atoms: C_30  and  C_40
REMARK   19  A    between atoms: C_33  and  C_39
REMARK                            x       y       z     vdW  Elec       q    Type
REMARK                         _______ _______ _______ _____ _____    ______ ____
ROOT
ATOM      1  N   UNL     1      -4.348   4.815  -1.643  0.00  0.00    +0.389 N 
ATOM      2  H   UNL     1      -4.777   4.124  -1.017  0.00  0.00    -0.080 HD
ENDROOT
BRANCH   1   3
ATOM      3  C   UNL     1      -4.449   6.153  -1.023  0.00  0.00    +0.003 C 
BRANCH   3   4
ATOM      4  C   UNL     1      -4.488   5.985   0.474  0.00  0.00    +0.139 A 
ATOM      5  N   UNL     1      -3.845   5.085   1.177  0.00  0.00    -0.115 NA
ATOM      6  N   UNL     1      -4.136   5.268   2.419  0.00  0.00    -0.023 NA
ATOM      7  N   UNL     1      -4.947   6.262   2.526  0.00  0.00    -0.043 NA
ATOM      8  N   UNL     1      -5.184   6.734   1.349  0.00  0.00    -0.226 N 
BRANCH   8   9
ATOM      9  C   UNL     1      -6.050   7.870   1.025  0.00  0.00    +0.059 C 
ATOM     10  C   UNL     1      -7.269   7.376   0.242  0.00  0.00    +0.036 C 
ATOM     11  C   UNL     1      -6.514   8.543   2.319  0.00  0.00    +0.036 C 
ATOM     12  C   UNL     1      -5.274   8.879   0.176  0.00  0.00    +0.036 C 
ENDBRANCH   8   9
ENDBRANCH   3   4
BRANCH   3  14
ATOM     13  C   UNL     1      -3.279   7.297  -2.912  0.00  0.00    +0.002 C 
ATOM     14  C   UNL     1      -3.243   7.011  -1.409  0.00  0.00    -0.011 C 
ENDBRANCH   3  14
ENDBRANCH   1   3
BRANCH   1  15
ATOM     15  C   UNL     1      -2.928   4.460  -1.850  0.00  0.00    -0.073 C 
BRANCH  15  16
ATOM     16  C   UNL     1      -2.281   4.206  -0.487  0.00  0.00    +0.017 C 
BRANCH  16  17
ATOM     17  C   UNL     1      -0.879   3.689  -0.685  0.00  0.00    -0.045 A 
ATOM     18  C   UNL     1      -0.655   2.329  -0.794  0.00  0.00    +0.007 A 
ATOM     19  C   UNL     1       0.630   1.849  -0.971  0.00  0.00    +0.049 A 
ATOM     20  C   UNL     1       1.694   2.733  -1.051  0.00  0.00    +0.161 A 
ATOM     21  C   UNL     1       1.468   4.102  -0.947  0.00  0.00    +0.162 A 
ATOM     22  C   UNL     1       0.178   4.576  -0.764  0.00  0.00    +0.053 A 
BRANCH  21  23
ATOM     23  O   UNL     1       2.509   4.973  -1.025  0.00  0.00    -0.491 OA
ATOM     24  C   UNL     1       2.202   6.364  -0.910  0.00  0.00    +0.277 C 
ENDBRANCH  21  23
BRANCH  20  25
ATOM     25  O   UNL     1       2.958   2.263  -1.231  0.00  0.00    -0.491 OA
ATOM     26  C   UNL     1       3.115   0.846  -1.330  0.00  0.00    +0.277 C 
ENDBRANCH  20  25
ENDBRANCH  16  17
ENDBRANCH  15  16
ENDBRANCH   1  15
BRANCH   1  27
ATOM     27  C   UNL     1      -5.065   4.803  -2.936  0.00  0.00    -0.037 C 
BRANCH  27  28
ATOM     28  C   UNL     1      -6.547   4.765  -2.666  0.00  0.00    +0.001 A 
ATOM     29  C   UNL     1      -7.285   5.896  -2.790  0.00  0.00    +0.017 A 
ATOM     30  C   UNL     1      -8.723   5.825  -2.526  0.00  0.00    +0.002 A 
ATOM     31  C   UNL     1      -9.537   6.957  -2.643  0.00  0.00    -0.041 A 
ATOM     32  C   UNL     1     -10.875   6.858  -2.386  0.00  0.00    +0.004 A 
ATOM     33  C   UNL     1     -11.435   5.645  -2.008  0.00  0.00    +0.005 A 
ATOM     34  C   UNL     1     -10.652   4.517  -1.885  0.00  0.00    -0.026 A 
ATOM     35  C   UNL     1      -9.287   4.593  -2.143  0.00  0.00    +0.052 A 
ATOM     36  N   UNL     1      -8.480   3.481  -2.030  0.00  0.00    -0.322 N 
ATOM     37  H   UNL     1      -8.870   2.633  -1.766  0.00  0.00    +0.169 HD
ATOM     38  C   UNL     1      -7.161   3.555  -2.279  0.00  0.00    +0.251 A 
ATOM     39  O   UNL     1      -6.479   2.551  -2.168  0.00  0.00    -0.268 OA
ATOM     40  C   UNL     1     -11.272   3.207  -1.475  0.00  0.00    +0.046 C 
ATOM     41  C   UNL     1      -8.941   8.279  -3.053  0.00  0.00    +0.044 C 
ENDBRANCH  27  28
ENDBRANCH   1  27
TORSDOF 11
