REMARK  Name = ZINC36641361
REMARK  10 active torsions:
REMARK  status: ('A' for Active; 'I' for Inactive)
REMARK    1  A    between atoms: C_1  and  C_2
REMARK    2  A    between atoms: C_2  and  N_3
REMARK    3  A    between atoms: N_3  and  C_4
REMARK    4  A    between atoms: N_3  and  C_6
REMARK    5  A    between atoms: C_4  and  C_5
REMARK    6  A    between atoms: C_6  and  C_7
REMARK    7  A    between atoms: C_7  and  N_8
REMARK    8  A    between atoms: C_12  and  C_19
REMARK    9  A    between atoms: C_20  and  C_22
REMARK   10  A    between atoms: N_27  and  C_29
REMARK                            x       y       z     vdW  Elec       q    Type
REMARK                         _______ _______ _______ _____ _____    ______ ____
ROOT
ATOM      1  N   UNL     1       1.117  -3.969  -2.354  0.00  0.00    -0.252 N 
ATOM      2  C   UNL     1       0.116  -4.664  -3.012  0.00  0.00    +0.168 A 
ATOM      3  N   UNL     1      -0.178  -5.942  -2.948  0.00  0.00    -0.224 NA
ATOM      4  C   UNL     1      -1.192  -6.489  -3.652  0.00  0.00    +0.085 A 
ATOM      5  C   UNL     1      -1.611  -7.840  -3.674  0.00  0.00    -0.006 A 
ATOM      6  C   UNL     1      -2.669  -8.234  -4.452  0.00  0.00    +0.046 A 
ATOM      7  C   UNL     1      -3.364  -7.327  -5.242  0.00  0.00    +0.021 A 
ATOM      8  C   UNL     1      -2.982  -5.999  -5.244  0.00  0.00    +0.019 A 
ATOM      9  C   UNL     1      -1.924  -5.596  -4.468  0.00  0.00    +0.041 A 
ATOM     10  S   UNL     1      -1.110  -4.048  -4.157  0.00  0.00    -0.052 S 
ATOM     11 CL   UNL     1      -3.150  -9.902  -4.451  0.00  0.00    -0.083 Cl
ATOM     12  C   UNL     1      -0.885  -8.859  -2.833  0.00  0.00    +0.047 C 
ATOM     13  C   UNL     1       2.020  -4.635  -1.607  0.00  0.00    +0.226 C 
ATOM     14  O   UNL     1       2.840  -4.021  -0.957  0.00  0.00    -0.275 OA
ENDROOT
BRANCH  13  15
ATOM     15  C   UNL     1       2.011  -6.141  -1.579  0.00  0.00    +0.102 C 
ATOM     16  C   UNL     1       2.497  -6.723  -2.927  0.00  0.00    +0.110 C 
ATOM     17  C   UNL     1       3.981  -6.940  -2.724  0.00  0.00    +0.221 C 
ATOM     18  O   UNL     1       4.785  -7.117  -3.615  0.00  0.00    -0.275 OA
ATOM     19  N   UNL     1       4.278  -6.907  -1.414  0.00  0.00    -0.271 N 
ATOM     20  C   UNL     1       3.076  -6.682  -0.599  0.00  0.00    +0.127 C 
BRANCH  19  21
ATOM     21  C   UNL     1       5.567  -7.066  -0.892  0.00  0.00    +0.036 A 
ATOM     22  C   UNL     1       6.658  -7.149  -1.747  0.00  0.00    +0.026 A 
ATOM     23  C   UNL     1       7.929  -7.306  -1.230  0.00  0.00    +0.040 A 
ATOM     24  C   UNL     1       8.116  -7.382   0.140  0.00  0.00    +0.124 A 
ATOM     25  C   UNL     1       7.030  -7.300   0.994  0.00  0.00    +0.040 A 
ATOM     26  C   UNL     1       5.758  -7.137   0.482  0.00  0.00    +0.026 A 
ATOM     27  F   UNL     1       9.360  -7.537   0.643  0.00  0.00    -0.205 F 
ENDBRANCH  19  21
ENDBRANCH  13  15
BRANCH   1  28
ATOM     28  C   UNL     1       1.194  -2.511  -2.469  0.00  0.00    +0.097 C 
BRANCH  28  29
ATOM     29  C   UNL     1       0.469  -1.866  -1.286  0.00  0.00    -0.059 C 
BRANCH  29  30
ATOM     30  N   UNL     1       0.651  -0.409  -1.335  0.00  0.00    +0.380 N 
ATOM     31  H   UNL     1       1.637  -0.194  -1.355  0.00  0.00    -0.082 HD
BRANCH  30  33
ATOM     32  C   UNL     1       0.306   1.621  -2.659  0.00  0.00    -0.017 C 
ATOM     33  C   UNL     1       0.010   0.124  -2.544  0.00  0.00    -0.082 C 
ENDBRANCH  30  33
BRANCH  30  34
ATOM     34  C   UNL     1       0.041   0.201  -0.146  0.00  0.00    -0.082 C 
ATOM     35  C   UNL     1       0.783  -0.269   1.106  0.00  0.00    -0.017 C 
ENDBRANCH  30  34
ENDBRANCH  29  30
ENDBRANCH  28  29
ENDBRANCH   1  28
TORSDOF 7
