REMARK  Name = ZINC15226766
REMARK  6 active torsions:
REMARK  status: ('A' for Active; 'I' for Inactive)
REMARK    1  A    between atoms: C_1  and  C_2
REMARK    2  A    between atoms: C_7  and  C_19
REMARK    3  A    between atoms: C_9  and  C_14
REMARK    4  A    between atoms: C_9  and  O_18
REMARK    5  A    between atoms: C_22  and  O_25
REMARK    6  A    between atoms: O_25  and  C_26
REMARK                            x       y       z     vdW  Elec       q    Type
REMARK                         _______ _______ _______ _____ _____    ______ ____
ROOT
ATOM      1  C   UNL     1      -7.337  -3.454  -1.170  0.00  0.00    +0.066 C 
ATOM      2  C   UNL     1      -6.609  -2.251  -0.626  0.00  0.00    +0.045 C 
ATOM      3  C   UNL     1      -5.324  -2.007  -0.997  0.00  0.00    +0.069 C 
ATOM      4  C   UNL     1      -4.655  -0.868  -0.476  0.00  0.00    +0.154 C 
ATOM      5  N   UNL     1      -3.367  -0.793  -0.711  0.00  0.00    -0.133 NA
ATOM      6  N   UNL     1      -2.528   0.124  -0.545  0.00  0.00    -0.152 NA
ATOM      7  C   UNL     1      -2.758   1.371  -0.522  0.00  0.00    +0.075 C 
ATOM      8  C   UNL     1      -4.063   2.064  -0.329  0.00  0.00    +0.123 C 
ATOM      9  C   UNL     1      -4.933   1.348   0.687  0.00  0.00    +0.243 C 
ATOM     10  N   UNL     1      -5.372   0.025   0.260  0.00  0.00    -0.219 N 
ATOM     11  C   UNL     1      -6.646  -0.330   0.652  0.00  0.00    +0.188 C 
ATOM     12  N   UNL     1      -7.224  -1.425   0.220  0.00  0.00    -0.223 NA
ATOM     13  N   UNL     1      -7.326   0.484   1.518  0.00  0.00    -0.331 N 
ATOM     14  H   UNL     1      -8.287   0.585   1.435  0.00  0.00    +0.145 HD
ATOM     15  H   UNL     1      -6.846   0.959   2.214  0.00  0.00    +0.145 HD
ENDROOT
BRANCH   7  16
ATOM     16  C   UNL     1      -1.590   2.243  -0.716  0.00  0.00    -0.002 A 
ATOM     17  C   UNL     1      -0.302   1.696  -0.740  0.00  0.00    +0.013 A 
ATOM     18  C   UNL     1       0.788   2.518  -0.928  0.00  0.00    +0.046 A 
ATOM     19  C   UNL     1       0.611   3.886  -1.087  0.00  0.00    +0.120 A 
ATOM     20  C   UNL     1      -0.664   4.434  -1.058  0.00  0.00    +0.046 A 
ATOM     21  C   UNL     1      -1.762   3.623  -0.871  0.00  0.00    +0.013 A 
BRANCH  19  22
ATOM     22  O   UNL     1       1.690   4.691  -1.272  0.00  0.00    -0.495 OA
ATOM     23  C   UNL     1       1.438   6.089  -1.429  0.00  0.00    +0.277 C 
ENDBRANCH  19  22
ENDBRANCH   7  16
BRANCH   9  24
ATOM     24  C   UNL     1      -4.141   1.199   1.988  0.00  0.00    +0.436 C 
ATOM     25  F   UNL     1      -3.792   2.466   2.469  0.00  0.00    -0.166 F 
ATOM     26  F   UNL     1      -4.927   0.540   2.939  0.00  0.00    -0.166 F 
ATOM     27  F   UNL     1      -2.981   0.456   1.746  0.00  0.00    -0.166 F 
ENDBRANCH   9  24
BRANCH   9  28
ATOM     28  O   UNL     1      -6.086   2.150   0.946  0.00  0.00    -0.364 OA
ATOM     29  H   UNL     1      -5.883   3.053   1.226  0.00  0.00    +0.212 HD
ENDBRANCH   9  28
TORSDOF 4
