REMARK  Name = ZINC08754745
REMARK  10 active torsions:
REMARK  status: ('A' for Active; 'I' for Inactive)
REMARK    1  A    between atoms: C_1  and  C_2
REMARK    2  A    between atoms: C_8  and  C_16
REMARK    3  A    between atoms: C_12  and  C_13
REMARK    4  A    between atoms: C_13  and  C_15
REMARK    5  A    between atoms: C_16  and  N_47
REMARK    6  A    between atoms: C_17  and  N_47
REMARK    7  A    between atoms: C_18  and  C_19
REMARK    8  A    between atoms: C_18  and  N_47
REMARK    9  A    between atoms: C_24  and  O_25
REMARK   10  A    between atoms: O_25  and  C_26
REMARK                            x       y       z     vdW  Elec       q    Type
REMARK                         _______ _______ _______ _____ _____    ______ ____
ROOT
ATOM      1  C   UNL     1       7.755   4.123  -7.083  0.00  0.00    +0.046 C 
ATOM      2  C   UNL     1       6.385   3.732  -6.592  0.00  0.00    -0.018 A 
ATOM      3  C   UNL     1       6.011   3.992  -5.274  0.00  0.00    +0.076 A 
ATOM      4  C   UNL     1       6.792   4.636  -4.192  0.00  0.00    +0.260 A 
ATOM      5  O   UNL     1       7.929   5.025  -4.388  0.00  0.00    -0.267 OA
ATOM      6  N   UNL     1       6.209   4.783  -2.986  0.00  0.00    -0.312 N 
ATOM      7  H   UNL     1       6.705   5.206  -2.268  0.00  0.00    +0.170 HD
ATOM      8  C   UNL     1       4.946   4.349  -2.755  0.00  0.00    +0.094 A 
ATOM      9  N   UNL     1       4.231   3.778  -3.686  0.00  0.00    -0.229 NA
ATOM     10  C   UNL     1       4.705   3.588  -4.910  0.00  0.00    +0.116 A 
ATOM     11  S   UNL     1       4.063   2.872  -6.402  0.00  0.00    -0.065 S 
ATOM     12  C   UNL     1       5.492   3.116  -7.443  0.00  0.00    +0.060 A 
ENDROOT
BRANCH  12  13
ATOM     13  C   UNL     1       5.665   2.765  -8.800  0.00  0.00    +0.167 C 
ATOM     14  O   UNL     1       6.714   3.007  -9.361  0.00  0.00    -0.292 OA
ATOM     15  C   UNL     1       4.547   2.089  -9.552  0.00  0.00    +0.092 C 
ENDBRANCH  12  13
BRANCH   8  16
ATOM     16  C   UNL     1       4.348   4.536  -1.384  0.00  0.00    -0.003 C 
BRANCH  16  18
ATOM     17  C   UNL     1       2.099   4.783  -2.246  0.00  0.00    -0.095 C 
ATOM     18  N   UNL     1       2.981   3.973  -1.380  0.00  0.00    +0.385 N 
ATOM     19  H   UNL     1       3.015   3.013  -1.742  0.00  0.00    -0.081 HD
BRANCH  18  20
ATOM     20  C   UNL     1       2.450   3.947  -0.001  0.00  0.00    -0.039 C 
BRANCH  20  21
ATOM     21  C   UNL     1       1.158   3.173   0.008  0.00  0.00    -0.021 A 
ATOM     22  C   UNL     1      -0.050   3.844   0.023  0.00  0.00    +0.020 A 
ATOM     23  C   UNL     1      -1.237   3.134   0.030  0.00  0.00    +0.018 A 
ATOM     24  C   UNL     1      -1.218   1.751   0.017  0.00  0.00    +0.019 A 
ATOM     25  C   UNL     1      -0.013   1.076   0.008  0.00  0.00    +0.047 A 
ATOM     26  C   UNL     1       1.179   1.786   0.000  0.00  0.00    +0.121 A 
ATOM     27 BR   UNL     1      -2.888   4.055   0.050  0.00  0.00    -0.050 Br
BRANCH  26  28
ATOM     28  O   UNL     1       2.366   1.124  -0.015  0.00  0.00    -0.495 OA
ATOM     29  C   UNL     1       2.312  -0.304  -0.023  0.00  0.00    +0.277 C 
ENDBRANCH  26  28
ENDBRANCH  20  21
ENDBRANCH  18  20
ENDBRANCH  16  18
ENDBRANCH   8  16
TORSDOF 6
