REMARK  Name = ZINC12833191
REMARK  10 active torsions:
REMARK  status: ('A' for Active; 'I' for Inactive)
REMARK    1  A    between atoms: C_1  and  C_2
REMARK    2  A    between atoms: C_6  and  C_15
REMARK    3  A    between atoms: C_13  and  C_14
REMARK    4  A    between atoms: C_15  and  N_63
REMARK    5  A    between atoms: C_16  and  C_17
REMARK    6  A    between atoms: C_16  and  N_63
REMARK    7  A    between atoms: C_24  and  C_25
REMARK    8  A    between atoms: C_24  and  N_63
REMARK    9  A    between atoms: N_29  and  C_30
REMARK   10  A    between atoms: C_30  and  C_31
REMARK                            x       y       z     vdW  Elec       q    Type
REMARK                         _______ _______ _______ _____ _____    ______ ____
ROOT
ATOM      1  N   UNL     1      -4.982   3.549  -1.760  0.00  0.00    +0.390 N 
ATOM      2  H   UNL     1      -4.179   3.743  -2.370  0.00  0.00    -0.080 HD
ENDROOT
BRANCH   1   3
ATOM      3  C   UNL     1      -4.575   3.754  -0.354  0.00  0.00    -0.036 C 
BRANCH   3   9
ATOM      4  C   UNL     1       2.849   3.172   0.052  0.00  0.00    +0.044 C 
ATOM      5  C   UNL     1       1.474   2.567   0.178  0.00  0.00    -0.047 A 
ATOM      6  C   UNL     1       0.371   3.335  -0.067  0.00  0.00    +0.013 A 
ATOM      7  C   UNL     1      -0.904   2.774   0.050  0.00  0.00    -0.001 A 
ATOM      8  C   UNL     1      -2.107   3.569  -0.206  0.00  0.00    +0.017 A 
ATOM      9  C   UNL     1      -3.317   2.967  -0.091  0.00  0.00    +0.001 A 
ATOM     10  C   UNL     1      -3.403   1.609   0.282  0.00  0.00    +0.251 A 
ATOM     11  O   UNL     1      -4.501   1.090   0.389  0.00  0.00    -0.268 OA
ATOM     12  N   UNL     1      -2.304   0.872   0.524  0.00  0.00    -0.322 N 
ATOM     13  H   UNL     1      -2.399  -0.059   0.779  0.00  0.00    +0.169 HD
ATOM     14  C   UNL     1      -1.045   1.422   0.415  0.00  0.00    +0.049 A 
ATOM     15  C   UNL     1       0.092   0.661   0.665  0.00  0.00    +0.030 A 
ATOM     16  C   UNL     1       1.340   1.235   0.544  0.00  0.00    -0.046 A 
ATOM     17  C   UNL     1       2.571   0.407   0.810  0.00  0.00    +0.044 C 
ENDBRANCH   3   9
ENDBRANCH   1   3
BRANCH   1  18
ATOM     18  C   UNL     1      -5.412   2.150  -1.962  0.00  0.00    -0.042 C 
BRANCH  18  19
ATOM     19  C   UNL     1      -5.699   1.935  -3.426  0.00  0.00    -0.064 A 
ATOM     20  C   UNL     1      -6.998   2.013  -3.894  0.00  0.00    +0.004 A 
ATOM     21  C   UNL     1      -7.261   1.821  -5.237  0.00  0.00    +0.038 A 
ATOM     22  C   UNL     1      -6.226   1.540  -6.112  0.00  0.00    +0.123 A 
ATOM     23  C   UNL     1      -4.926   1.458  -5.641  0.00  0.00    +0.038 A 
ATOM     24  C   UNL     1      -4.664   1.655  -4.299  0.00  0.00    +0.004 A 
ATOM     25  F   UNL     1      -6.483   1.348  -7.424  0.00  0.00    -0.205 F 
ENDBRANCH  18  19
ENDBRANCH   1  18
BRANCH   1  26
ATOM     26  C   UNL     1      -6.083   4.472  -2.107  0.00  0.00    +0.001 C 
BRANCH  26  27
ATOM     27  C   UNL     1      -5.545   5.879  -2.142  0.00  0.00    +0.135 A 
ATOM     28  N   UNL     1      -5.545   6.742  -1.154  0.00  0.00    -0.115 NA
ATOM     29  N   UNL     1      -4.997   7.829  -1.576  0.00  0.00    -0.023 NA
ATOM     30  N   UNL     1      -4.655   7.685  -2.809  0.00  0.00    -0.044 NA
ATOM     31  N   UNL     1      -4.976   6.497  -3.194  0.00  0.00    -0.227 N 
BRANCH  31  32
ATOM     32  C   UNL     1      -4.761   5.926  -4.526  0.00  0.00    +0.182 C 
BRANCH  32  33
ATOM     33  C   UNL     1      -5.926   6.276  -5.416  0.00  0.00    -0.026 A 
ATOM     34  C   UNL     1      -7.018   5.431  -5.489  0.00  0.00    +0.005 A 
ATOM     35  C   UNL     1      -8.089   5.754  -6.302  0.00  0.00    +0.000 A 
ATOM     36  C   UNL     1      -8.063   6.917  -7.049  0.00  0.00    +0.000 A 
ATOM     37  C   UNL     1      -6.968   7.759  -6.980  0.00  0.00    +0.000 A 
ATOM     38  C   UNL     1      -5.900   7.438  -6.163  0.00  0.00    +0.005 A 
ENDBRANCH  32  33
ENDBRANCH  31  32
ENDBRANCH  26  27
ENDBRANCH   1  26
TORSDOF 8
