REMARK  Name = ZINC01194150
REMARK  11 active torsions:
REMARK  status: ('A' for Active; 'I' for Inactive)
REMARK    1  A    between atoms: C_1  and  C_2
REMARK    2  A    between atoms: C_5  and  N_8
REMARK    3  A    between atoms: N_8  and  C_9
REMARK    4  A    between atoms: N_8  and  S_21
REMARK    5  A    between atoms: C_9  and  C_10
REMARK    6  A    between atoms: N_12  and  C_13
REMARK    7  A    between atoms: C_15  and  C_20
REMARK    8  A    between atoms: C_18  and  C_19
REMARK    9  A    between atoms: S_21  and  C_24
REMARK   10  A    between atoms: C_27  and  O_31
REMARK   11  A    between atoms: O_31  and  C_32
REMARK                            x       y       z     vdW  Elec       q    Type
REMARK                         _______ _______ _______ _____ _____    ______ ____
ROOT
ATOM      1  N   UNL     1       0.168   0.252  -0.028  0.00  0.00    -0.194 N 
ENDROOT
BRANCH   1   6
ATOM      2  C   UNL     1       0.739   5.889   0.212  0.00  0.00    +0.044 C 
ATOM      3  C   UNL     1       0.587   4.391   0.148  0.00  0.00    -0.050 A 
ATOM      4  C   UNL     1      -0.425   3.769   0.857  0.00  0.00    +0.005 A 
ATOM      5  C   UNL     1      -0.567   2.397   0.800  0.00  0.00    +0.025 A 
ATOM      6  C   UNL     1       0.308   1.641   0.031  0.00  0.00    +0.052 A 
ATOM      7  C   UNL     1       1.327   2.268  -0.675  0.00  0.00    +0.025 A 
ATOM      8  C   UNL     1       1.460   3.641  -0.619  0.00  0.00    +0.005 A 
ENDBRANCH   1   6
BRANCH   1   9
ATOM      9  S   UNL     1      -1.237  -0.414  -0.597  0.00  0.00    +0.075 S 
ATOM     10  O   UNL     1      -1.371  -1.680   0.035  0.00  0.00    -0.150 OA
ATOM     11  O   UNL     1      -2.233   0.594  -0.501  0.00  0.00    -0.150 OA
BRANCH   9  12
ATOM     12  C   UNL     1      -1.004  -0.732  -2.314  0.00  0.00    +0.110 A 
ATOM     13  C   UNL     1      -1.333   0.236  -3.246  0.00  0.00    +0.032 A 
ATOM     14  C   UNL     1      -1.147  -0.008  -4.593  0.00  0.00    +0.048 A 
ATOM     15  C   UNL     1      -0.640  -1.229  -5.012  0.00  0.00    +0.134 A 
ATOM     16  C   UNL     1      -0.316  -2.201  -4.076  0.00  0.00    +0.061 A 
ATOM     17  C   UNL     1      -0.499  -1.950  -2.729  0.00  0.00    +0.047 A 
ATOM     18 BR   UNL     1       0.376  -3.867  -4.642  0.00  0.00    -0.046 Br
BRANCH  15  19
ATOM     19  O   UNL     1      -0.461  -1.473  -6.337  0.00  0.00    -0.494 OA
ATOM     20  C   UNL     1      -0.817  -0.427  -7.243  0.00  0.00    +0.277 C 
ENDBRANCH  15  19
ENDBRANCH   9  12
ENDBRANCH   1   9
BRANCH   1  21
ATOM     21  C   UNL     1       1.263  -0.614   0.414  0.00  0.00    +0.227 C 
BRANCH  21  22
ATOM     22  C   UNL     1       1.176  -0.813   1.906  0.00  0.00    +0.236 C 
ATOM     23  O   UNL     1       0.286  -0.284   2.537  0.00  0.00    -0.274 OA
ATOM     24  N   UNL     1       2.087  -1.580   2.538  0.00  0.00    -0.284 N 
ATOM     25  H   UNL     1       2.836  -1.950   2.045  0.00  0.00    +0.155 HD
BRANCH  24  26
ATOM     26  C   UNL     1       1.952  -1.843   3.905  0.00  0.00    +0.037 A 
ATOM     27  C   UNL     1       1.315  -0.925   4.731  0.00  0.00    +0.027 A 
ATOM     28  C   UNL     1       1.179  -1.190   6.079  0.00  0.00    -0.049 A 
ATOM     29  C   UNL     1       1.685  -2.362   6.610  0.00  0.00    +0.004 A 
ATOM     30  C   UNL     1       2.324  -3.275   5.792  0.00  0.00    +0.005 A 
ATOM     31  C   UNL     1       2.459  -3.019   4.441  0.00  0.00    -0.029 A 
ATOM     32  C   UNL     1       3.156  -4.015   3.550  0.00  0.00    +0.045 C 
ATOM     33  C   UNL     1       0.483  -0.197   6.975  0.00  0.00    +0.044 C 
ENDBRANCH  24  26
ENDBRANCH  21  22
ENDBRANCH   1  21
TORSDOF 7
