REMARK  Name = ZINC44135649
REMARK  11 active torsions:
REMARK  status: ('A' for Active; 'I' for Inactive)
REMARK    1  A    between atoms: C_1  and  C_2
REMARK    2  A    between atoms: C_2  and  C_39
REMARK    3  A    between atoms: C_6  and  O_38
REMARK    4  A    between atoms: C_8  and  C_14
REMARK    5  A    between atoms: C_14  and  C_16
REMARK    6  A    between atoms: C_14  and  N_37
REMARK    7  A    between atoms: C_16  and  O_17
REMARK    8  A    between atoms: O_17  and  C_18
REMARK    9  A    between atoms: C_18  and  C_19
REMARK   10  A    between atoms: C_18  and  C_25
REMARK   11  A    between atoms: C_18  and  C_31
REMARK                            x       y       z     vdW  Elec       q    Type
REMARK                         _______ _______ _______ _____ _____    ______ ____
ROOT
ATOM      1  O   UNL     1       6.498  -4.411   1.485  0.00  0.00    -0.361 OA
ENDROOT
BRANCH   1   2
ATOM      2  C   UNL     1       6.277  -2.999   1.508  0.00  0.00    +0.148 C 
BRANCH   2   3
ATOM      3  C   UNL     1       6.579  -2.413   0.128  0.00  0.00    -0.017 C 
BRANCH   3   9
ATOM      4  C   UNL     1       8.525   3.679  -0.844  0.00  0.00    +0.074 C 
ATOM      5  C   UNL     1       9.095   2.265  -0.979  0.00  0.00    +0.168 C 
ATOM      6  O   UNL     1       9.147   1.626   0.334  0.00  0.00    -0.338 OA
ATOM      7  C   UNL     1       7.952   0.919   0.353  0.00  0.00    +0.208 C 
ATOM      8  C   UNL     1       7.563  -0.305   1.130  0.00  0.00    +0.175 C 
ATOM      9  C   UNL     1       6.464  -0.889   0.184  0.00  0.00    +0.140 C 
ATOM     10  O   UNL     1       6.700  -0.323  -1.131  0.00  0.00    -0.344 OA
ATOM     11  C   UNL     1       7.996   0.271  -1.089  0.00  0.00    +0.285 C 
ATOM     12  O   UNL     1       8.233   1.467  -1.833  0.00  0.00    -0.318 OA
ATOM     13  C   UNL     1      10.501   2.330  -1.579  0.00  0.00    +0.074 C 
BRANCH   8  14
ATOM     14  O   UNL     1       8.664  -1.205   1.266  0.00  0.00    -0.387 OA
ATOM     15  H   UNL     1       9.418  -0.835   1.745  0.00  0.00    +0.210 HD
ENDBRANCH   8  14
ENDBRANCH   3   9
BRANCH   3  16
ATOM     16  N   UNL     1       5.617  -2.941  -0.849  0.00  0.00    +0.383 N 
ATOM     17  H   UNL     1       5.861  -2.614  -1.772  0.00  0.00    -0.089 HD
ATOM     18  H   UNL     1       5.640  -3.950  -0.833  0.00  0.00    -0.089 HD
ATOM     19  H   UNL     1       4.689  -2.622  -0.614  0.00  0.00    -0.089 HD
ENDBRANCH   3  16
ENDBRANCH   2   3
ENDBRANCH   1   2
BRANCH   1  20
ATOM     20  C   UNL     1       6.371  -5.040   2.762  0.00  0.00    +0.144 C 
BRANCH  20  21
ATOM     21  C   UNL     1       4.994  -4.779   3.316  0.00  0.00    -0.007 A 
ATOM     22  C   UNL     1       4.692  -3.547   3.866  0.00  0.00    +0.007 A 
ATOM     23  C   UNL     1       3.429  -3.308   4.374  0.00  0.00    +0.000 A 
ATOM     24  C   UNL     1       2.467  -4.300   4.331  0.00  0.00    +0.000 A 
ATOM     25  C   UNL     1       2.768  -5.532   3.780  0.00  0.00    +0.000 A 
ATOM     26  C   UNL     1       4.030  -5.770   3.268  0.00  0.00    +0.007 A 
ENDBRANCH  20  21
BRANCH  20  27
ATOM     27  C   UNL     1       6.579  -6.525   2.613  0.00  0.00    -0.007 A 
ATOM     28  C   UNL     1       6.441  -7.356   3.710  0.00  0.00    +0.007 A 
ATOM     29  C   UNL     1       6.632  -8.718   3.573  0.00  0.00    +0.000 A 
ATOM     30  C   UNL     1       6.962  -9.250   2.341  0.00  0.00    +0.000 A 
ATOM     31  C   UNL     1       7.099  -8.419   1.244  0.00  0.00    +0.000 A 
ATOM     32  C   UNL     1       6.903  -7.057   1.379  0.00  0.00    +0.007 A 
ENDBRANCH  20  27
BRANCH  20  33
ATOM     33  C   UNL     1       7.405  -4.479   3.704  0.00  0.00    -0.007 A 
ATOM     34  C   UNL     1       7.147  -4.423   5.060  0.00  0.00    +0.007 A 
ATOM     35  C   UNL     1       8.096  -3.909   5.924  0.00  0.00    +0.000 A 
ATOM     36  C   UNL     1       9.303  -3.451   5.431  0.00  0.00    +0.000 A 
ATOM     37  C   UNL     1       9.562  -3.508   4.074  0.00  0.00    +0.000 A 
ATOM     38  C   UNL     1       8.615  -4.026   3.211  0.00  0.00    +0.007 A 
ENDBRANCH  20  33
ENDBRANCH   1  20
TORSDOF 9
