REMARK  Name = ZINC63557271
REMARK  10 active torsions:
REMARK  status: ('A' for Active; 'I' for Inactive)
REMARK    1  A    between atoms: C_1  and  C_2
REMARK    2  A    between atoms: C_2  and  O_3
REMARK    3  A    between atoms: O_3  and  C_4
REMARK    4  A    between atoms: C_4  and  C_5
REMARK    5  A    between atoms: C_5  and  C_6
REMARK    6  A    between atoms: C_10  and  N_13
REMARK    7  A    between atoms: C_14  and  C_16
REMARK    8  A    between atoms: N_21  and  C_23
REMARK    9  A    between atoms: C_23  and  C_24
REMARK   10  A    between atoms: C_24  and  C_25
REMARK                            x       y       z     vdW  Elec       q    Type
REMARK                         _______ _______ _______ _____ _____    ______ ____
ROOT
ATOM      1  C   UNL     1      -4.354  -7.016   5.223  0.00  0.00    +0.101 C 
ATOM      2  C   UNL     1      -4.620  -5.647   5.890  0.00  0.00    +0.110 C 
ATOM      3  C   UNL     1      -4.402  -5.904   7.365  0.00  0.00    +0.216 C 
ATOM      4  O   UNL     1      -4.775  -5.176   8.260  0.00  0.00    -0.276 OA
ATOM      5  N   UNL     1      -3.734  -7.058   7.539  0.00  0.00    -0.300 N 
ATOM      6  C   UNL     1      -3.423  -7.694   6.253  0.00  0.00    +0.121 C 
ENDROOT
BRANCH   1   8
ATOM      7  N   UNL     1      -4.285  -6.214   2.884  0.00  0.00    -0.290 N 
ATOM      8  C   UNL     1      -3.658  -6.844   3.898  0.00  0.00    +0.220 C 
ATOM      9  O   UNL     1      -2.534  -7.272   3.743  0.00  0.00    -0.275 OA
ATOM     10  H   UNL     1      -5.184  -5.872   3.008  0.00  0.00    +0.151 HD
BRANCH   7  14
ATOM     11  C   UNL     1      -3.005  -3.866   0.010  0.00  0.00    +0.132 C 
ATOM     12  N   UNL     1      -4.429  -4.323   0.013  0.00  0.00    -0.241 NA
ATOM     13  N   UNL     1      -4.573  -5.666   0.536  0.00  0.00    -0.227 NA
ATOM     14  C   UNL     1      -3.608  -6.047   1.596  0.00  0.00    +0.216 C 
ATOM     15  S   UNL     1      -2.477  -4.589   1.628  0.00  0.00    -0.102 S 
ATOM     16  H   UNL     1      -5.016  -3.674   0.515  0.00  0.00    +0.142 HD
ATOM     17  H   UNL     1      -4.579  -6.346  -0.209  0.00  0.00    +0.143 HD
BRANCH  11  18
ATOM     18  C   UNL     1      -2.905  -2.339   0.017  0.00  0.00    +0.059 C 
BRANCH  18  19
ATOM     19  C   UNL     1      -1.432  -1.925   0.005  0.00  0.00    +0.162 C 
BRANCH  19  20
ATOM     20  O   UNL     1      -1.339  -0.499   0.012  0.00  0.00    -0.380 OA
BRANCH  20  22
ATOM     21  C   UNL     1      -0.019   1.526   0.010  0.00  0.00    +0.034 C 
ATOM     22  C   UNL     1       0.002  -0.004   0.002  0.00  0.00    +0.156 C 
ENDBRANCH  20  22
ENDBRANCH  19  20
ENDBRANCH  18  19
ENDBRANCH  11  18
ENDBRANCH   7  14
ENDBRANCH   1   8
BRANCH   5  23
ATOM     23  C   UNL     1      -3.365  -7.611   8.845  0.00  0.00    +0.112 C 
BRANCH  23  24
ATOM     24  C   UNL     1      -4.487  -8.520   9.350  0.00  0.00    +0.052 C 
BRANCH  24  25
ATOM     25  C   UNL     1      -4.107  -9.088  10.693  0.00  0.00    -0.040 C 
ATOM     26  C   UNL     1      -4.451  -8.603  11.907  0.00  0.00    +0.002 A 
ATOM     27  C   UNL     1      -5.250  -7.446  12.325  0.00  0.00    +0.048 A 
ATOM     28  C   UNL     1      -5.423  -7.210  13.648  0.00  0.00    +0.124 A 
ATOM     29  C   UNL     1      -4.858  -8.044  14.625  0.00  0.00    +0.040 A 
ATOM     30  C   UNL     1      -4.111  -9.125  14.317  0.00  0.00    +0.029 A 
ATOM     31  C   UNL     1      -3.866  -9.467  12.958  0.00  0.00    +0.043 A 
ATOM     32  N   UNL     1      -3.187 -10.447  12.414  0.00  0.00    -0.380 N 
ATOM     33  C   UNL     1      -3.270 -10.320  10.955  0.00  0.00    +0.144 C 
ATOM     34  F   UNL     1      -6.158  -6.145  14.036  0.00  0.00    -0.205 F 
ATOM     35  H   UNL     1      -2.712 -11.142  12.896  0.00  0.00    +0.160 HD
ENDBRANCH  24  25
ENDBRANCH  23  24
ENDBRANCH   5  23
TORSDOF 9
