REMARK  Name = ZINC22034299
REMARK  10 active torsions:
REMARK  status: ('A' for Active; 'I' for Inactive)
REMARK    1  A    between atoms: C_1  and  C_2
REMARK    2  A    between atoms: C_4  and  C_31
REMARK    3  A    between atoms: C_5  and  N_9
REMARK    4  A    between atoms: C_6  and  C_8
REMARK    5  A    between atoms: C_10  and  C_12
REMARK    6  A    between atoms: C_12  and  S_13
REMARK    7  A    between atoms: S_13  and  C_14
REMARK    8  A    between atoms: C_18  and  C_22
REMARK    9  A    between atoms: C_19  and  C_21
REMARK   10  A    between atoms: N_25  and  C_26
REMARK                            x       y       z     vdW  Elec       q    Type
REMARK                         _______ _______ _______ _____ _____    ______ ____
ROOT
ATOM      1  C   UNL     1       5.209   8.232  -0.980  0.00  0.00    +0.173 A 
ATOM      2  N   UNL     1       6.196   7.439  -0.615  0.00  0.00    -0.216 NA
ATOM      3  C   UNL     1       7.423   7.915  -0.440  0.00  0.00    +0.117 A 
ATOM      4  C   UNL     1       7.729   9.276  -0.622  0.00  0.00    +0.075 A 
ATOM      5  C   UNL     1       9.119   9.629  -0.384  0.00  0.00    -0.026 A 
ATOM      6  C   UNL     1       9.984   8.671  -0.021  0.00  0.00    -0.008 A 
ATOM      7  S   UNL     1       8.978   7.200   0.029  0.00  0.00    -0.073 S 
ATOM      8  C   UNL     1      11.456   8.806   0.274  0.00  0.00    +0.052 C 
ATOM      9  C   UNL     1       9.582  11.054  -0.544  0.00  0.00    +0.045 C 
ATOM     10  C   UNL     1       6.637  10.114  -1.012  0.00  0.00    +0.263 A 
ATOM     11  O   UNL     1       6.808  11.307  -1.193  0.00  0.00    -0.267 OA
ATOM     12  N   UNL     1       5.419   9.566  -1.178  0.00  0.00    -0.284 N 
ENDROOT
BRANCH  12  13
ATOM     13  C   UNL     1       4.296  10.419  -1.578  0.00  0.00    +0.093 C 
ATOM     14  C   UNL     1       4.595  11.081  -2.939  0.00  0.00    +0.025 C 
ATOM     15  C   UNL     1       3.989  12.502  -2.810  0.00  0.00    +0.002 C 
ATOM     16  C   UNL     1       4.309  12.878  -1.342  0.00  0.00    +0.002 C 
ATOM     17  C   UNL     1       4.114  11.561  -0.563  0.00  0.00    +0.025 C 
ENDBRANCH  12  13
BRANCH   1  18
ATOM     18  S   UNL     1       3.595   7.563  -1.209  0.00  0.00    -0.078 S 
BRANCH  18  19
ATOM     19  C   UNL     1       3.918   5.825  -0.822  0.00  0.00    +0.173 C 
BRANCH  19  21
ATOM     20  N   UNL     1       2.641   3.709  -0.714  0.00  0.00    -0.284 N 
ATOM     21  C   UNL     1       2.642   5.035  -0.956  0.00  0.00    +0.228 C 
ATOM     22  O   UNL     1       1.615   5.592  -1.281  0.00  0.00    -0.275 OA
ATOM     23  H   UNL     1       3.549   3.219  -0.332  0.00  0.00    +0.155 HD
BRANCH  20  28
ATOM     24  C   UNL     1      -2.044   0.658  -1.677  0.00  0.00    +0.044 C 
ATOM     25  C   UNL     1      -0.799   1.467  -1.419  0.00  0.00    -0.050 A 
ATOM     26  C   UNL     1       0.389   1.121  -2.037  0.00  0.00    +0.008 A 
ATOM     27  C   UNL     1       1.530   1.863  -1.807  0.00  0.00    -0.029 A 
ATOM     28  C   UNL     1       1.486   2.955  -0.950  0.00  0.00    +0.039 A 
ATOM     29  C   UNL     1       0.293   3.297  -0.327  0.00  0.00    -0.029 A 
ATOM     30  C   UNL     1      -0.845   2.551  -0.561  0.00  0.00    +0.008 A 
ATOM     31  C   UNL     1       0.240   4.481   0.604  0.00  0.00    +0.045 C 
ATOM     32  C   UNL     1       2.823   1.489  -2.485  0.00  0.00    +0.045 C 
ENDBRANCH  20  28
ENDBRANCH  19  21
ENDBRANCH  18  19
ENDBRANCH   1  18
TORSDOF 5
