REMARK  Name = ZINC08298862
REMARK  7 active torsions:
REMARK  status: ('A' for Active; 'I' for Inactive)
REMARK    1  A    between atoms: C_4  and  S_7
REMARK    2  A    between atoms: S_7  and  C_8
REMARK    3  A    between atoms: C_8  and  C_9
REMARK    4  A    between atoms: N_11  and  C_14
REMARK    5  A    between atoms: C_14  and  C_15
REMARK    6  A    between atoms: C_23  and  C_25
REMARK    7  A    between atoms: N_27  and  C_28
REMARK                            x       y       z     vdW  Elec       q    Type
REMARK                         _______ _______ _______ _____ _____    ______ ____
ROOT
ATOM      1  C   UNL     1      -2.095   1.045  -1.230  0.00  0.00    -0.046 C 
ATOM      2  C   UNL     1      -2.872   1.538  -0.006  0.00  0.00    -0.010 C 
ATOM      3  C   UNL     1      -1.947   2.415   0.848  0.00  0.00    -0.004 C 
ATOM      4  C   UNL     1      -1.477   3.602  -0.002  0.00  0.00    -0.015 C 
ATOM      5  C   UNL     1      -0.724   3.041  -1.232  0.00  0.00    -0.078 C 
ATOM      6  C   UNL     1      -0.013   1.086   0.008  0.00  0.00    -0.065 C 
ATOM      7  C   UNL     1      -0.730   1.580   1.267  0.00  0.00    +0.061 C 
ATOM      8  N   UNL     1      -0.710   1.563  -1.205  0.00  0.00    +0.383 N 
ATOM      9  H   UNL     1      -0.211   1.219  -2.034  0.00  0.00    -0.081 HD
ENDROOT
BRANCH   7  10
ATOM     10  C   UNL     1      -1.186   0.399   2.085  0.00  0.00    +0.215 C 
ATOM     11  O   UNL     1      -2.365   0.245   2.323  0.00  0.00    -0.276 OA
ATOM     12  N   UNL     1      -0.283  -0.485   2.553  0.00  0.00    -0.312 N 
ATOM     13  H   UNL     1       0.661  -0.361   2.363  0.00  0.00    +0.149 HD
BRANCH  12  14
ATOM     14  C   UNL     1      -0.725  -1.633   3.348  0.00  0.00    +0.073 C 
ATOM     15  C   UNL     1      -0.859  -1.217   4.815  0.00  0.00    +0.022 C 
ATOM     16  C   UNL     1      -1.321  -2.416   5.645  0.00  0.00    +0.002 C 
ATOM     17  C   UNL     1      -0.295  -3.544   5.527  0.00  0.00    +0.000 C 
ATOM     18  C   UNL     1      -0.161  -3.960   4.061  0.00  0.00    +0.002 C 
ATOM     19  C   UNL     1       0.301  -2.761   3.230  0.00  0.00    +0.022 C 
ENDBRANCH  12  14
ENDBRANCH   7  10
BRANCH   1  20
ATOM     20  C   UNL     1      -2.053  -0.484  -1.228  0.00  0.00    +0.130 C 
BRANCH  20  23
ATOM     21  C   UNL     1      -0.086  -1.959  -3.843  0.00  0.00    +0.093 A 
ATOM     22  C   UNL     1      -0.341  -1.782  -2.526  0.00  0.00    +0.134 A 
ATOM     23  N   UNL     1      -1.412  -0.958  -2.457  0.00  0.00    -0.253 N 
ATOM     24  N   UNL     1      -1.767  -0.656  -3.657  0.00  0.00    -0.065 NA
ATOM     25  N   UNL     1      -0.996  -1.237  -4.507  0.00  0.00    -0.134 NA
BRANCH  21  26
ATOM     26  C   UNL     1       1.012  -2.799  -4.444  0.00  0.00    +0.133 C 
BRANCH  26  27
ATOM     27  S   UNL     1       2.501  -1.786  -4.656  0.00  0.00    -0.119 S 
BRANCH  27  31
ATOM     28  C   UNL     1       5.519  -4.641  -6.462  0.00  0.00    +0.000 A 
ATOM     29  C   UNL     1       5.875  -3.328  -6.211  0.00  0.00    +0.001 A 
ATOM     30  C   UNL     1       4.958  -2.455  -5.661  0.00  0.00    +0.015 A 
ATOM     31  C   UNL     1       3.675  -2.897  -5.358  0.00  0.00    +0.008 A 
ATOM     32  C   UNL     1       3.323  -4.218  -5.605  0.00  0.00    +0.015 A 
ATOM     33  C   UNL     1       4.244  -5.084  -6.162  0.00  0.00    +0.001 A 
ENDBRANCH  27  31
ENDBRANCH  26  27
ENDBRANCH  21  26
ENDBRANCH  20  23
ENDBRANCH   1  20
TORSDOF 7
