REMARK  Name = ZINC06552389
REMARK  7 active torsions:
REMARK  status: ('A' for Active; 'I' for Inactive)
REMARK    1  A    between atoms: N_9  and  C_28
REMARK    2  A    between atoms: C_10  and  S_12
REMARK    3  A    between atoms: S_12  and  C_13
REMARK    4  A    between atoms: C_13  and  C_14
REMARK    5  A    between atoms: N_16  and  C_17
REMARK    6  A    between atoms: C_18  and  C_26
REMARK    7  A    between atoms: C_28  and  C_29
REMARK                            x       y       z     vdW  Elec       q    Type
REMARK                         _______ _______ _______ _____ _____    ______ ____
ROOT
ATOM      1  C   UNL     1      -0.017   1.363   0.009  0.00  0.00    +0.001 A 
ATOM      2  C   UNL     1       1.168   2.089   0.002  0.00  0.00    +0.002 A 
ATOM      3  C   UNL     1       2.379   1.458  -0.013  0.00  0.00    +0.028 A 
ATOM      4  C   UNL     1       2.432   0.061  -0.021  0.00  0.00    +0.079 A 
ATOM      5  C   UNL     1       1.224  -0.674  -0.013  0.00  0.00    +0.065 A 
ATOM      6  C   UNL     1       0.002  -0.004   0.002  0.00  0.00    +0.015 A 
ATOM      7  C   UNL     1       1.305  -2.141  -0.021  0.00  0.00    +0.263 A 
ATOM      8  O   UNL     1       0.301  -2.829  -0.015  0.00  0.00    -0.267 OA
ATOM      9  N   UNL     1       2.538  -2.699  -0.036  0.00  0.00    -0.280 N 
ATOM     10  C   UNL     1       3.654  -1.911  -0.043  0.00  0.00    +0.173 A 
ATOM     11  N   UNL     1       3.605  -0.602  -0.036  0.00  0.00    -0.223 NA
ENDROOT
BRANCH  10  12
ATOM     12  S   UNL     1       5.234  -2.693  -0.062  0.00  0.00    -0.078 S 
BRANCH  12  13
ATOM     13  C   UNL     1       6.407  -1.310  -0.066  0.00  0.00    +0.173 C 
BRANCH  13  14
ATOM     14  C   UNL     1       7.816  -1.846  -0.082  0.00  0.00    +0.228 C 
ATOM     15  O   UNL     1       8.008  -3.044  -0.090  0.00  0.00    -0.275 OA
ATOM     16  N   UNL     1       8.861  -0.995  -0.088  0.00  0.00    -0.278 N 
ATOM     17  H   UNL     1       8.707  -0.038  -0.082  0.00  0.00    +0.155 HD
BRANCH  16  18
ATOM     18  C   UNL     1      10.158  -1.489  -0.103  0.00  0.00    +0.090 A 
ATOM     19  C   UNL     1      11.342  -0.771  -0.105  0.00  0.00    +0.084 A 
ATOM     20  C   UNL     1      12.580  -1.531  -0.121  0.00  0.00    -0.018 A 
ATOM     21  C   UNL     1      12.405  -2.871  -0.132  0.00  0.00    -0.004 A 
ATOM     22  S   UNL     1      10.651  -3.095  -0.114  0.00  0.00    -0.077 S 
ATOM     23  C   UNL     1      13.476  -3.917  -0.152  0.00  0.00    +0.043 C 
ATOM     24  C   UNL     1      14.802  -3.243  -0.537  0.00  0.00    +0.005 C 
ATOM     25  C   UNL     1      14.980  -1.980   0.310  0.00  0.00    +0.005 C 
ATOM     26  C   UNL     1      13.971  -0.915  -0.125  0.00  0.00    +0.037 C 
BRANCH  19  27
ATOM     27  C   UNL     1      11.347   0.660  -0.092  0.00  0.00    +0.102 C 
ATOM     28  N   UNL     1      11.350   1.796  -0.083  0.00  0.00    -0.191 NA
ENDBRANCH  19  27
ENDBRANCH  16  18
ENDBRANCH  13  14
ENDBRANCH  12  13
ENDBRANCH  10  12
BRANCH   9  29
ATOM     29  C   UNL     1       2.677  -4.157  -0.044  0.00  0.00    +0.201 C 
BRANCH  29  30
ATOM     30  C   UNL     1       2.711  -4.651  -1.468  0.00  0.00    +0.125 A 
ATOM     31  C   UNL     1       3.815  -4.810  -2.219  0.00  0.00    +0.046 A 
ATOM     32  C   UNL     1       3.388  -5.289  -3.479  0.00  0.00    +0.041 A 
ATOM     33  C   UNL     1       2.048  -5.394  -3.422  0.00  0.00    +0.195 A 
ATOM     34  O   UNL     1       1.644  -5.012  -2.199  0.00  0.00    -0.466 OA
ENDBRANCH  29  30
ENDBRANCH   9  29
TORSDOF 7
