REMARK  Name = ZINC09284850
REMARK  8 active torsions:
REMARK  status: ('A' for Active; 'I' for Inactive)
REMARK    1  A    between atoms: C_1  and  N_2
REMARK    2  A    between atoms: C_3  and  C_25
REMARK    3  A    between atoms: C_6  and  S_7
REMARK    4  A    between atoms: S_7  and  C_8
REMARK    5  A    between atoms: C_8  and  C_9
REMARK    6  A    between atoms: N_11  and  C_12
REMARK    7  A    between atoms: C_15  and  N_22
REMARK    8  A    between atoms: C_17  and  C_18
REMARK                            x       y       z     vdW  Elec       q    Type
REMARK                         _______ _______ _______ _____ _____    ______ ____
ROOT
ATOM      1  C   UNL     1      -5.066   3.214  -0.211  0.00  0.00    +0.227 C 
ATOM      2  O   UNL     1      -5.465   2.098  -0.467  0.00  0.00    -0.275 OA
ATOM      3  N   UNL     1      -5.946   4.204   0.037  0.00  0.00    -0.284 N 
ATOM      4  H   UNL     1      -5.629   5.111   0.174  0.00  0.00    +0.155 HD
ENDROOT
BRANCH   3   5
ATOM      5  C   UNL     1      -7.315   3.925   0.095  0.00  0.00    +0.045 A 
ATOM      6  C   UNL     1      -7.842   2.869  -0.637  0.00  0.00    +0.026 A 
ATOM      7  C   UNL     1      -9.194   2.596  -0.578  0.00  0.00    +0.034 A 
ATOM      8  C   UNL     1     -10.024   3.373   0.210  0.00  0.00    +0.127 A 
ATOM      9  C   UNL     1      -9.503   4.425   0.940  0.00  0.00    +0.047 A 
ATOM     10  C   UNL     1      -8.150   4.700   0.889  0.00  0.00    +0.078 A 
BRANCH  10  11
ATOM     11  C   UNL     1      -7.582   5.843   1.690  0.00  0.00    +0.419 C 
ATOM     12  F   UNL     1      -8.610   6.469   2.403  0.00  0.00    -0.166 F 
ATOM     13  F   UNL     1      -6.623   5.355   2.584  0.00  0.00    -0.166 F 
ATOM     14  F   UNL     1      -6.986   6.767   0.825  0.00  0.00    -0.166 F 
ENDBRANCH  10  11
BRANCH   8  15
ATOM     15  N   UNL     1     -11.473   3.077   0.272  0.00  0.00    +0.056 N 
ATOM     16  O   UNL     1     -11.934   2.150  -0.370  0.00  0.00    -0.126 OA
ATOM     17  O   UNL     1     -12.205   3.761   0.965  0.00  0.00    -0.126 OA
ENDBRANCH   8  15
ENDBRANCH   3   5
BRANCH   1  18
ATOM     18  C   UNL     1      -3.585   3.493  -0.169  0.00  0.00    +0.173 C 
BRANCH  18  19
ATOM     19  S   UNL     1      -2.674   1.974  -0.542  0.00  0.00    -0.077 S 
BRANCH  19  25
ATOM     20  C   UNL     1       0.216   0.423  -0.954  0.00  0.00    +0.153 C 
ATOM     21  N   UNL     1       0.119   1.845  -0.617  0.00  0.00    -0.305 N 
ATOM     22  C   UNL     1       1.158   2.728  -0.432  0.00  0.00    +0.167 A 
ATOM     23  N   UNL     1       0.626   3.894  -0.147  0.00  0.00    -0.128 NA
ATOM     24  N   UNL     1      -0.655   3.802  -0.140  0.00  0.00    -0.122 NA
ATOM     25  C   UNL     1      -1.021   2.573  -0.427  0.00  0.00    +0.192 A 
BRANCH  22  26
ATOM     26  C   UNL     1       2.600   2.422  -0.536  0.00  0.00    +0.054 A 
ATOM     27  C   UNL     1       3.123   1.289   0.089  0.00  0.00    +0.014 A 
ATOM     28  C   UNL     1       4.470   1.009  -0.012  0.00  0.00    +0.001 A 
ATOM     29  C   UNL     1       5.304   1.848  -0.731  0.00  0.00    +0.003 A 
ATOM     30  C   UNL     1       4.794   2.973  -1.354  0.00  0.00    +0.039 A 
ATOM     31  C   UNL     1       3.446   3.263  -1.266  0.00  0.00    +0.134 A 
ATOM     32  F   UNL     1       2.947   4.359  -1.879  0.00  0.00    -0.205 F 
ENDBRANCH  22  26
ENDBRANCH  19  25
ENDBRANCH  18  19
ENDBRANCH   1  18
TORSDOF 7
