REMARK  Name = ZINC39896584
REMARK  13 active torsions:
REMARK  status: ('A' for Active; 'I' for Inactive)
REMARK    1  A    between atoms: C_1  and  C_2
REMARK    2  A    between atoms: C_2  and  C_3
REMARK    3  A    between atoms: C_6  and  N_9
REMARK    4  A    between atoms: C_12  and  C_31
REMARK    5  A    between atoms: C_16  and  C_17
REMARK    6  A    between atoms: C_16  and  C_19
REMARK    7  A    between atoms: N_21  and  C_22
REMARK    8  A    between atoms: C_22  and  C_24
REMARK    9  A    between atoms: C_22  and  C_25
REMARK   10  A    between atoms: C_31  and  C_32
REMARK   11  A    between atoms: C_35  and  C_38
REMARK   12  A    between atoms: C_38  and  C_39
REMARK   13  A    between atoms: C_38  and  C_40
REMARK                            x       y       z     vdW  Elec       q    Type
REMARK                         _______ _______ _______ _____ _____    ______ ____
ROOT
ATOM      1  N   UNL     1       2.619  -1.630   5.178  0.00  0.00    -0.232 N 
ATOM      2  C   UNL     1       3.934  -1.679   5.303  0.00  0.00    +0.238 C 
ATOM      3  O   UNL     1       4.679  -1.215   4.467  0.00  0.00    -0.274 OA
ATOM      4  C   UNL     1       4.453  -2.353   6.564  0.00  0.00    +0.143 C 
ATOM      5  S   UNL     1       2.861  -2.810   7.368  0.00  0.00    -0.095 S 
ATOM      6  C   UNL     1       1.766  -2.147   6.123  0.00  0.00    +0.098 C 
ATOM      7  C   UNL     1       0.370  -2.153   6.111  0.00  0.00    +0.141 C 
ENDROOT
BRANCH   1  11
ATOM      8  C   UNL     1       0.996   0.179   1.792  0.00  0.00    -0.048 A 
ATOM      9  C   UNL     1       1.429  -1.133   1.733  0.00  0.00    +0.005 A 
ATOM     10  C   UNL     1       1.967  -1.735   2.853  0.00  0.00    +0.024 A 
ATOM     11  C   UNL     1       2.074  -1.022   4.040  0.00  0.00    +0.042 A 
ATOM     12  C   UNL     1       1.638   0.296   4.096  0.00  0.00    +0.024 A 
ATOM     13  C   UNL     1       1.106   0.894   2.970  0.00  0.00    +0.005 A 
BRANCH   8  15
ATOM     14  C   UNL     1       1.513   1.562  -0.200  0.00  0.00    +0.009 C 
ATOM     15  C   UNL     1       0.409   0.832   0.568  0.00  0.00    +0.032 C 
ENDBRANCH   8  15
ENDBRANCH   1  11
BRANCH   7  16
ATOM     16  C   UNL     1      -0.353  -1.701   4.923  0.00  0.00    +0.257 C 
ATOM     17  O   UNL     1      -0.693  -0.535   4.824  0.00  0.00    -0.269 OA
ATOM     18  N   UNL     1      -0.645  -2.574   3.939  0.00  0.00    -0.304 N 
ATOM     19  H   UNL     1      -0.412  -3.510   4.036  0.00  0.00    +0.150 HD
BRANCH  18  20
ATOM     20  C   UNL     1      -1.313  -2.108   2.721  0.00  0.00    +0.100 C 
ATOM     21  C   UNL     1      -2.806  -1.922   2.998  0.00  0.00    +0.033 C 
BRANCH  20  22
ATOM     22  C   UNL     1      -1.128  -3.126   1.626  0.00  0.00    -0.027 A 
ATOM     23  C   UNL     1      -1.200  -4.475   1.917  0.00  0.00    +0.005 A 
ATOM     24  C   UNL     1      -1.030  -5.409   0.912  0.00  0.00    +0.000 A 
ATOM     25  C   UNL     1      -0.789  -4.994  -0.384  0.00  0.00    +0.000 A 
ATOM     26  C   UNL     1      -0.718  -3.644  -0.676  0.00  0.00    +0.000 A 
ATOM     27  C   UNL     1      -0.892  -2.710   0.329  0.00  0.00    +0.005 A 
ENDBRANCH  20  22
ENDBRANCH  18  20
ENDBRANCH   7  16
BRANCH   7  28
ATOM     28  C   UNL     1      -0.353  -2.603   7.262  0.00  0.00    +0.107 C 
ATOM     29  N   UNL     1      -0.927  -2.960   8.175  0.00  0.00    -0.191 NA
ENDBRANCH   7  28
BRANCH   4  30
ATOM     30  C   UNL     1       5.283  -3.593   6.229  0.00  0.00    +0.059 C 
BRANCH  30  31
ATOM     31  C   UNL     1       5.877  -4.157   7.494  0.00  0.00    -0.046 A 
ATOM     32  C   UNL     1       7.115  -3.724   7.928  0.00  0.00    +0.004 A 
ATOM     33  C   UNL     1       7.660  -4.241   9.089  0.00  0.00    +0.004 A 
ATOM     34  C   UNL     1       6.967  -5.192   9.814  0.00  0.00    -0.045 A 
ATOM     35  C   UNL     1       5.728  -5.625   9.380  0.00  0.00    +0.004 A 
ATOM     36  C   UNL     1       5.181  -5.104   8.222  0.00  0.00    +0.004 A 
BRANCH  34  37
ATOM     37  C   UNL     1       7.561  -5.757  11.079  0.00  0.00    +0.013 C 
ATOM     38  C   UNL     1       6.632  -5.458  12.257  0.00  0.00    +0.012 C 
ATOM     39  C   UNL     1       7.729  -7.270  10.932  0.00  0.00    +0.012 C 
ENDBRANCH  34  37
ENDBRANCH  30  31
ENDBRANCH   4  30
TORSDOF 9
