REMARK  Name = ZINC08674008
REMARK  7 active torsions:
REMARK  status: ('A' for Active; 'I' for Inactive)
REMARK    1  A    between atoms: C_1  and  C_2
REMARK    2  A    between atoms: C_3  and  C_31
REMARK    3  A    between atoms: C_4  and  O_30
REMARK    4  A    between atoms: C_5  and  C_7
REMARK    5  A    between atoms: C_12  and  C_13
REMARK    6  A    between atoms: C_31  and  O_33
REMARK    7  A    between atoms: O_33  and  C_34
REMARK                            x       y       z     vdW  Elec       q    Type
REMARK                         _______ _______ _______ _____ _____    ______ ____
ROOT
ATOM      1  C   UNL     1       1.090  -3.970   0.031  0.00  0.00    +0.032 A 
ATOM      2  C   UNL     1       0.362  -5.242  -0.050  0.00  0.00    +0.092 A 
ATOM      3  C   UNL     1       1.325  -6.259   0.006  0.00  0.00    +0.150 A 
ATOM      4  N   UNL     1       2.553  -5.674   0.113  0.00  0.00    -0.338 N 
ATOM      5  H   UNL     1       3.394  -6.155   0.169  0.00  0.00    +0.167 HD
ATOM      6  C   UNL     1       2.430  -4.299   0.123  0.00  0.00    +0.057 A 
ATOM      7  N   UNL     1       0.923  -7.539  -0.050  0.00  0.00    -0.175 NA
ATOM      8  C   UNL     1      -0.346  -7.850  -0.156  0.00  0.00    +0.350 A 
ATOM      9  O   UNL     1      -0.696  -9.153  -0.207  0.00  0.00    -0.245 OA
ATOM     10  N   UNL     1      -1.323  -6.903  -0.214  0.00  0.00    -0.273 N 
ATOM     11  H   UNL     1      -2.252  -7.171  -0.291  0.00  0.00    +0.174 HD
ATOM     12  C   UNL     1      -1.000  -5.591  -0.163  0.00  0.00    +0.264 A 
ATOM     13  O   UNL     1      -1.864  -4.732  -0.214  0.00  0.00    -0.267 OA
ENDROOT
BRANCH   6  14
ATOM     14  C   UNL     1       3.545  -3.338   0.221  0.00  0.00    +0.003 A 
ATOM     15  C   UNL     1       3.578  -2.216  -0.611  0.00  0.00    +0.014 A 
ATOM     16  C   UNL     1       4.622  -1.320  -0.517  0.00  0.00    +0.050 A 
ATOM     17  C   UNL     1       5.643  -1.528   0.402  0.00  0.00    +0.162 A 
ATOM     18  C   UNL     1       5.615  -2.642   1.235  0.00  0.00    +0.163 A 
ATOM     19  C   UNL     1       4.568  -3.544   1.150  0.00  0.00    +0.059 A 
ATOM     20  O   UNL     1       6.604  -2.855   2.146  0.00  0.00    -0.485 OA
ATOM     21  C   UNL     1       7.824  -2.131   1.953  0.00  0.00    +0.270 C 
ATOM     22  C   UNL     1       7.471  -0.667   1.655  0.00  0.00    +0.270 C 
ATOM     23  O   UNL     1       6.665  -0.632   0.473  0.00  0.00    -0.485 OA
ENDBRANCH   6  14
BRANCH   1  28
ATOM     24  C   UNL     1      -1.712   0.728  -1.012  0.00  0.00    +0.052 C 
ATOM     25  C   UNL     1      -0.835  -0.387  -0.503  0.00  0.00    +0.005 A 
ATOM     26  C   UNL     1       0.028  -0.359   0.573  0.00  0.00    +0.111 A 
ATOM     27  C   UNL     1       0.761  -1.569   0.855  0.00  0.00    +0.146 A 
ATOM     28  C   UNL     1       0.510  -2.615   0.011  0.00  0.00    +0.065 A 
ATOM     29  S   UNL     1      -0.694  -1.943  -1.114  0.00  0.00    -0.089 S 
BRANCH  27  30
ATOM     30  O   UNL     1       1.641  -1.664   1.888  0.00  0.00    -0.505 OA
ATOM     31  H   UNL     1       1.235  -1.919   2.728  0.00  0.00    +0.292 HD
ENDBRANCH  27  30
BRANCH  26  32
ATOM     32  C   UNL     1       0.194   0.848   1.394  0.00  0.00    +0.343 C 
ATOM     33  O   UNL     1      -0.515   1.024   2.366  0.00  0.00    -0.245 OA
BRANCH  32  34
ATOM     34  O   UNL     1       1.132   1.760   1.070  0.00  0.00    -0.464 OA
ATOM     35  C   UNL     1       1.238   2.910   1.913  0.00  0.00    +0.280 C 
ENDBRANCH  32  34
ENDBRANCH  26  32
ENDBRANCH   1  28
TORSDOF 5
