REMARK  Name = ZINC36613106
REMARK  8 active torsions:
REMARK  status: ('A' for Active; 'I' for Inactive)
REMARK    1  A    between atoms: C_1  and  C_2
REMARK    2  A    between atoms: C_2  and  N_3
REMARK    3  A    between atoms: C_5  and  N_17
REMARK    4  A    between atoms: C_6  and  C_8
REMARK    5  A    between atoms: N_10  and  C_11
REMARK    6  A    between atoms: C_18  and  C_20
REMARK    7  A    between atoms: C_23  and  C_29
REMARK    8  A    between atoms: N_25  and  C_28
REMARK                            x       y       z     vdW  Elec       q    Type
REMARK                         _______ _______ _______ _____ _____    ______ ____
ROOT
ATOM      1  N   UNL     1       0.711  -0.489   1.189  0.00  0.00    -0.269 N 
ATOM      2  C   UNL     1       0.203  -1.367   2.092  0.00  0.00    +0.132 A 
ATOM      3  C   UNL     1       1.159  -1.564   3.038  0.00  0.00    +0.084 A 
ATOM      4  C   UNL     1       2.255  -0.755   2.641  0.00  0.00    +0.168 A 
ATOM      5  N   UNL     1       1.904  -0.150   1.522  0.00  0.00    -0.165 NA
ENDROOT
BRANCH   4   6
ATOM      6  C   UNL     1       3.545  -0.619   3.343  0.00  0.00    +0.266 C 
ATOM      7  O   UNL     1       3.746  -1.238   4.370  0.00  0.00    -0.268 OA
ATOM      8  N   UNL     1       4.500   0.191   2.847  0.00  0.00    -0.307 N 
ATOM      9  H   UNL     1       4.340   0.685   2.027  0.00  0.00    +0.149 HD
BRANCH   8  10
ATOM     10  C   UNL     1       5.782   0.326   3.544  0.00  0.00    +0.073 C 
ATOM     11  C   UNL     1       5.657   1.387   4.639  0.00  0.00    +0.022 C 
ATOM     12  C   UNL     1       6.995   1.528   5.368  0.00  0.00    +0.002 C 
ATOM     13  C   UNL     1       8.077   1.949   4.371  0.00  0.00    +0.000 C 
ATOM     14  C   UNL     1       8.201   0.887   3.276  0.00  0.00    +0.002 C 
ATOM     15  C   UNL     1       6.864   0.747   2.547  0.00  0.00    +0.022 C 
ENDBRANCH   8  10
ENDBRANCH   4   6
BRANCH   3  16
ATOM     16  N   UNL     1       1.079  -2.391   4.168  0.00  0.00    -0.278 N 
ATOM     17  C   UNL     1      -0.041  -3.101   4.406  0.00  0.00    +0.255 C 
ATOM     18  O   UNL     1      -0.984  -3.025   3.640  0.00  0.00    -0.269 OA
ATOM     19  H   UNL     1       1.831  -2.453   4.779  0.00  0.00    +0.155 HD
BRANCH  17  20
ATOM     20  C   UNL     1      -0.125  -3.966   5.586  0.00  0.00    +0.077 A 
ATOM     21  C   UNL     1      -1.158  -4.758   5.991  0.00  0.00    +0.033 A 
ATOM     22  C   UNL     1      -1.033  -5.517   7.165  0.00  0.00    +0.040 A 
ATOM     23  C   UNL     1      -1.801  -6.441   7.946  0.00  0.00    +0.173 A 
ATOM     24  N   UNL     1      -1.099  -6.814   8.974  0.00  0.00    -0.166 NA
ATOM     25  N   UNL     1       0.148  -6.177   8.942  0.00  0.00    -0.260 N 
ATOM     26  C   UNL     1       0.186  -5.394   7.848  0.00  0.00    +0.107 A 
ATOM     27  S   UNL     1       1.105  -4.252   6.848  0.00  0.00    -0.064 S 
ATOM     28  C   UNL     1       1.221  -6.335   9.927  0.00  0.00    +0.173 C 
BRANCH  23  29
ATOM     29  C   UNL     1      -3.198  -6.905   7.627  0.00  0.00    +0.437 C 
ATOM     30  F   UNL     1      -3.137  -8.052   6.827  0.00  0.00    -0.164 F 
ATOM     31  F   UNL     1      -3.874  -7.201   8.815  0.00  0.00    -0.164 F 
ATOM     32  F   UNL     1      -3.880  -5.894   6.941  0.00  0.00    -0.164 F 
ENDBRANCH  23  29
ENDBRANCH  17  20
ENDBRANCH   3  16
BRANCH   1  34
ATOM     33  C   UNL     1      -0.019   1.526   0.010  0.00  0.00    +0.029 C 
ATOM     34  C   UNL     1       0.002  -0.004   0.002  0.00  0.00    +0.140 C 
ENDBRANCH   1  34
TORSDOF 6
