REMARK  Name = ZINC22208549
REMARK  11 active torsions:
REMARK  status: ('A' for Active; 'I' for Inactive)
REMARK    1  A    between atoms: C_1  and  C_2
REMARK    2  A    between atoms: C_7  and  C_9
REMARK    3  A    between atoms: C_7  and  C_10
REMARK    4  A    between atoms: N_13  and  C_17
REMARK    5  A    between atoms: C_17  and  C_18
REMARK    6  A    between atoms: C_18  and  O_20
REMARK    7  A    between atoms: O_20  and  C_21
REMARK    8  A    between atoms: C_21  and  C_22
REMARK    9  A    between atoms: C_22  and  C_23
REMARK   10  A    between atoms: C_23  and  C_24
REMARK   11  A    between atoms: C_24  and  N_25
REMARK                            x       y       z     vdW  Elec       q    Type
REMARK                         _______ _______ _______ _____ _____    ______ ____
ROOT
ATOM      1  C   UNL     1      -2.293  -3.324  -4.361  0.00  0.00    +0.325 C 
ATOM      2  O   UNL     1      -1.951  -2.188  -4.590  0.00  0.00    -0.249 OA
ENDROOT
BRANCH   1   3
ATOM      3  C   UNL     1      -1.571  -4.131  -3.313  0.00  0.00    +0.238 C 
BRANCH   3  15
ATOM      4  C   UNL     1      -0.019   1.528   0.010  0.00  0.00    +0.007 C 
ATOM      5  C   UNL     1       0.002  -0.004   0.002  0.00  0.00    -0.011 C 
ATOM      6  C   UNL     1       0.726  -0.492  -1.255  0.00  0.00    +0.038 C 
ATOM      7  C   UNL     1       0.711  -2.014  -1.298  0.00  0.00    +0.113 C 
ATOM      8  C   UNL     1       1.264  -2.646  -0.036  0.00  0.00    +0.041 C 
ATOM      9  C   UNL     1       0.787  -2.030   1.268  0.00  0.00    -0.032 C 
ATOM     10  C   UNL     1       0.764  -0.507   1.226  0.00  0.00    +0.009 C 
ATOM     11  C   UNL     1      -0.596  -2.567   1.647  0.00  0.00    +0.011 C 
ATOM     12  C   UNL     1       1.769  -2.455   2.382  0.00  0.00    +0.011 C 
ATOM     13  C   UNL     1      -0.665  -2.529  -1.638  0.00  0.00    +0.247 C 
ATOM     14  O   UNL     1      -1.716  -2.282  -1.086  0.00  0.00    -0.273 OA
ATOM     15  N   UNL     1      -0.504  -3.320  -2.721  0.00  0.00    -0.213 N 
ATOM     16  C   UNL     1       0.750  -3.268  -3.183  0.00  0.00    +0.310 C 
ATOM     17  O   UNL     1       1.137  -3.883  -4.158  0.00  0.00    -0.252 OA
ATOM     18  N   UNL     1       1.532  -2.462  -2.446  0.00  0.00    -0.285 N 
ATOM     19  H   UNL     1       2.452  -2.214  -2.618  0.00  0.00    +0.151 HD
ENDBRANCH   3  15
ENDBRANCH   1   3
BRANCH   1  20
ATOM     20  O   UNL     1      -3.315  -3.868  -5.040  0.00  0.00    -0.464 OA
BRANCH  20  21
ATOM     21  C   UNL     1      -3.954  -3.045  -6.019  0.00  0.00    +0.232 C 
BRANCH  21  22
ATOM     22  C   UNL     1      -5.086  -3.830  -6.684  0.00  0.00    +0.043 C 
BRANCH  22  23
ATOM     23  C   UNL     1      -5.770  -2.950  -7.732  0.00  0.00    +0.023 C 
BRANCH  23  24
ATOM     24  C   UNL     1      -6.902  -3.735  -8.398  0.00  0.00    +0.117 C 
BRANCH  24  25
ATOM     25  N   UNL     1      -7.557  -2.892  -9.401  0.00  0.00    -0.234 N 
ATOM     26  C   UNL     1      -8.601  -2.082  -9.151  0.00  0.00    +0.254 C 
ATOM     27  O   UNL     1      -9.143  -1.936  -8.073  0.00  0.00    -0.270 OA
ATOM     28  C   UNL     1      -8.979  -1.399 -10.406  0.00  0.00    +0.049 A 
ATOM     29  C   UNL     1      -9.953  -0.475 -10.749  0.00  0.00    +0.014 A 
ATOM     30  C   UNL     1     -10.041  -0.023 -12.057  0.00  0.00    +0.001 A 
ATOM     31  C   UNL     1      -9.163  -0.487 -13.019  0.00  0.00    +0.001 A 
ATOM     32  C   UNL     1      -8.183  -1.410 -12.690  0.00  0.00    +0.014 A 
ATOM     33  C   UNL     1      -8.084  -1.871 -11.387  0.00  0.00    +0.049 A 
ATOM     34  C   UNL     1      -7.189  -2.822 -10.693  0.00  0.00    +0.254 C 
ATOM     35  O   UNL     1      -6.276  -3.438 -11.205  0.00  0.00    -0.270 OA
ENDBRANCH  24  25
ENDBRANCH  23  24
ENDBRANCH  22  23
ENDBRANCH  21  22
ENDBRANCH  20  21
ENDBRANCH   1  20
TORSDOF 8
