REMARK  Name = ZINC41584990
REMARK  10 active torsions:
REMARK  status: ('A' for Active; 'I' for Inactive)
REMARK    1  A    between atoms: C_1  and  C_2
REMARK    2  A    between atoms: C_4  and  O_39
REMARK    3  A    between atoms: C_5  and  C_22
REMARK    4  A    between atoms: C_11  and  C_12
REMARK    5  A    between atoms: C_15  and  C_18
REMARK    6  A    between atoms: C_18  and  C_19
REMARK    7  A    between atoms: C_18  and  C_20
REMARK    8  A    between atoms: C_22  and  N_23
REMARK    9  A    between atoms: N_26  and  C_29
REMARK   10  A    between atoms: C_29  and  C_30
REMARK                            x       y       z     vdW  Elec       q    Type
REMARK                         _______ _______ _______ _____ _____    ______ ____
ROOT
ATOM      1  C   UNL     1      -0.085   1.509   0.016  0.00  0.00    +0.045 C 
ATOM      2  C   UNL     1      -0.072   0.002   0.006  0.00  0.00    -0.033 A 
ATOM      3  C   UNL     1      -0.092  -0.674  -1.181  0.00  0.00    +0.050 A 
ATOM      4  C   UNL     1      -0.079  -2.066  -1.193  0.00  0.00    +0.122 A 
ATOM      5  C   UNL     1      -0.046  -2.781  -0.006  0.00  0.00    +0.020 A 
ATOM      6  C   UNL     1      -0.025  -2.109   1.209  0.00  0.00    +0.145 A 
ATOM      7  C   UNL     1      -0.033  -0.705   1.208  0.00  0.00    +0.071 A 
ATOM      8  C   UNL     1       0.000  -0.288   2.622  0.00  0.00    +0.232 C 
ATOM      9  O   UNL     1       0.001   0.847   3.065  0.00  0.00    -0.283 OA
ATOM     10  C   UNL     1       0.032  -1.551   3.378  0.00  0.00    +0.176 C 
ATOM     11  C   UNL     1       0.069  -1.676   4.727  0.00  0.00    +0.058 C 
ATOM     12  O   UNL     1       0.007  -2.564   2.480  0.00  0.00    -0.451 OA
ENDROOT
BRANCH  11  13
ATOM     13  C   UNL     1      -0.017  -3.007   5.344  0.00  0.00    -0.021 A 
ATOM     14  C   UNL     1      -0.114  -3.133   6.735  0.00  0.00    +0.008 A 
ATOM     15  C   UNL     1      -0.196  -4.386   7.306  0.00  0.00    +0.004 A 
ATOM     16  C   UNL     1      -0.181  -5.516   6.508  0.00  0.00    -0.045 A 
ATOM     17  C   UNL     1      -0.085  -5.401   5.131  0.00  0.00    +0.004 A 
ATOM     18  C   UNL     1      -0.009  -4.155   4.544  0.00  0.00    +0.008 A 
BRANCH  16  19
ATOM     19  C   UNL     1      -0.270  -6.881   7.140  0.00  0.00    +0.013 C 
ATOM     20  C   UNL     1      -1.513  -7.605   6.619  0.00  0.00    +0.012 C 
ATOM     21  C   UNL     1       0.979  -7.691   6.784  0.00  0.00    +0.012 C 
ENDBRANCH  16  19
ENDBRANCH  11  13
BRANCH   4  22
ATOM     22  O   UNL     1      -0.100  -2.729  -2.377  0.00  0.00    -0.506 OA
ATOM     23  H   UNL     1       0.777  -2.913  -2.741  0.00  0.00    +0.292 HD
ENDBRANCH   4  22
BRANCH   5  24
ATOM     24  C   UNL     1      -0.034  -4.288  -0.035  0.00  0.00    -0.035 C 
BRANCH  24  25
ATOM     25  N   UNL     1       1.355  -4.765  -0.075  0.00  0.00    +0.384 N 
ATOM     26  C   UNL     1       2.037  -4.392   1.172  0.00  0.00    -0.063 C 
ATOM     27  C   UNL     1       3.489  -4.873   1.122  0.00  0.00    +0.066 C 
ATOM     28  N   UNL     1       3.514  -6.332   0.948  0.00  0.00    -0.302 NA
ATOM     29  C   UNL     1       2.813  -6.722  -0.284  0.00  0.00    +0.066 C 
ATOM     30  C   UNL     1       1.366  -6.226  -0.223  0.00  0.00    -0.063 C 
ATOM     31  H   UNL     1       1.833  -4.344  -0.858  0.00  0.00    -0.081 HD
BRANCH  28  32
ATOM     32  C   UNL     1       4.892  -6.840   0.952  0.00  0.00    +0.119 C 
BRANCH  32  33
ATOM     33  C   UNL     1       4.873  -8.345   1.019  0.00  0.00    -0.030 A 
ATOM     34  C   UNL     1       4.873  -8.981   2.247  0.00  0.00    +0.009 A 
ATOM     35  C   UNL     1       4.855 -10.362   2.313  0.00  0.00    +0.050 A 
ATOM     36  C   UNL     1       4.837 -11.112   1.148  0.00  0.00    +0.166 A 
ATOM     37  C   UNL     1       4.836 -10.471  -0.089  0.00  0.00    +0.167 A 
ATOM     38  C   UNL     1       4.848  -9.087  -0.147  0.00  0.00    +0.054 A 
ATOM     39  O   UNL     1       4.816 -11.418  -1.071  0.00  0.00    -0.453 OA
ATOM     40  C   UNL     1       5.217 -12.644  -0.431  0.00  0.00    +0.466 C 
ATOM     41  O   UNL     1       4.817 -12.461   0.940  0.00  0.00    -0.453 OA
ENDBRANCH  32  33
ENDBRANCH  28  32
ENDBRANCH  24  25
ENDBRANCH   5  24
TORSDOF 7
