REMARK  Name = ZINC39521110
REMARK  9 active torsions:
REMARK  status: ('A' for Active; 'I' for Inactive)
REMARK    1  A    between atoms: C_1  and  C_2
REMARK    2  A    between atoms: C_2  and  C_3
REMARK    3  A    between atoms: C_2  and  S_4
REMARK    4  A    between atoms: S_4  and  C_7
REMARK    5  A    between atoms: C_17  and  S_27
REMARK    6  A    between atoms: N_19  and  C_20
REMARK    7  A    between atoms: C_20  and  C_21
REMARK    8  A    between atoms: S_27  and  O_30
REMARK    9  A    between atoms: O_30  and  C_31
REMARK                            x       y       z     vdW  Elec       q    Type
REMARK                         _______ _______ _______ _____ _____    ______ ____
ROOT
ATOM      1  C   UNL     1      -0.086   1.368   3.740  0.00  0.00    +0.129 C 
ATOM      2  C   UNL     1      -1.490   0.866   3.400  0.00  0.00    +0.026 C 
ATOM      3  C   UNL     1      -2.375   0.941   4.647  0.00  0.00    +0.001 C 
ATOM      4  C   UNL     1      -1.774   0.069   5.751  0.00  0.00    -0.012 C 
ATOM      5  C   UNL     1      -0.370   0.572   6.091  0.00  0.00    -0.061 C 
ATOM      6  C   UNL     1       0.514   0.495   4.845  0.00  0.00    +0.014 C 
ATOM      7  C   UNL     1      -0.452   2.024   6.568  0.00  0.00    -0.012 C 
ATOM      8  C   UNL     1      -1.336   2.097   7.816  0.00  0.00    -0.001 C 
ATOM      9  C   UNL     1      -0.766   1.166   8.889  0.00  0.00    +0.010 C 
ATOM     10  C   UNL     1      -0.674  -0.254   8.327  0.00  0.00    +0.120 C 
ATOM     11  N   UNL     1       0.206  -0.263   7.152  0.00  0.00    +0.403 N 
ATOM     12  H   UNL     1       1.112   0.100   7.409  0.00  0.00    -0.078 HD
ENDROOT
BRANCH   1  13
ATOM     13  S   UNL     1       0.963   1.279   2.263  0.00  0.00    -0.026 S 
ATOM     14  O   UNL     1       0.921  -0.050   1.762  0.00  0.00    -0.174 OA
ATOM     15  O   UNL     1       2.221   1.864   2.569  0.00  0.00    -0.174 OA
BRANCH  13  17
ATOM     16  C   UNL     1       0.011   3.774   1.671  0.00  0.00    +0.031 C 
ATOM     17  C   UNL     1       0.097   2.361   1.092  0.00  0.00    +0.125 C 
ATOM     18  C   UNL     1       0.864   2.397  -0.232  0.00  0.00    +0.031 C 
ENDBRANCH  13  17
ENDBRANCH   1  13
BRANCH  10  19
ATOM     19  S   UNL     1       0.001  -1.363   9.595  0.00  0.00    +0.108 S 
ATOM     20  O   UNL     1      -0.176  -2.718   9.205  0.00  0.00    -0.138 OA
ATOM     21  O   UNL     1       1.271  -0.894  10.029  0.00  0.00    -0.138 OA
BRANCH  19  22
ATOM     22  O   UNL     1      -0.912  -1.182  10.799  0.00  0.00    -0.347 OA
BRANCH  22  23
ATOM     23  C   UNL     1      -2.121  -1.788  10.671  0.00  0.00    +0.156 A 
ATOM     24  C   UNL     1      -3.188  -1.101  10.110  0.00  0.00    +0.048 A 
ATOM     25  C   UNL     1      -4.416  -1.720   9.981  0.00  0.00    +0.004 A 
ATOM     26  C   UNL     1      -4.583  -3.023  10.412  0.00  0.00    +0.000 A 
ATOM     27  C   UNL     1      -3.522  -3.710  10.972  0.00  0.00    +0.004 A 
ATOM     28  C   UNL     1      -2.290  -3.098  11.097  0.00  0.00    +0.048 A 
ENDBRANCH  22  23
ENDBRANCH  19  22
ENDBRANCH  10  19
BRANCH  11  29
ATOM     29  C   UNL     1       0.354  -1.640   6.664  0.00  0.00    -0.039 C 
BRANCH  29  30
ATOM     30  C   UNL     1      -1.008  -2.235   6.416  0.00  0.00    -0.064 A 
ATOM     31  C   UNL     1      -1.903  -2.370   7.461  0.00  0.00    +0.002 A 
ATOM     32  C   UNL     1      -3.153  -2.915   7.234  0.00  0.00    +0.000 A 
ATOM     33  C   UNL     1      -3.509  -3.325   5.963  0.00  0.00    +0.000 A 
ATOM     34  C   UNL     1      -2.614  -3.188   4.918  0.00  0.00    +0.000 A 
ATOM     35  C   UNL     1      -1.366  -2.639   5.144  0.00  0.00    +0.002 A 
ENDBRANCH  29  30
ENDBRANCH  11  29
TORSDOF 7
