REMARK  Name = ZINC36029685
REMARK  14 active torsions:
REMARK  status: ('A' for Active; 'I' for Inactive)
REMARK    1  A    between atoms: C_1  and  C_2
REMARK    2  A    between atoms: C_2  and  C_3
REMARK    3  A    between atoms: C_2  and  C_4
REMARK    4  A    between atoms: C_4  and  C_5
REMARK    5  A    between atoms: N_9  and  C_22
REMARK    6  A    between atoms: C_17  and  C_19
REMARK    7  A    between atoms: C_19  and  C_20
REMARK    8  A    between atoms: C_19  and  C_21
REMARK    9  A    between atoms: C_22  and  C_23
REMARK   10  A    between atoms: C_23  and  C_24
REMARK   11  A    between atoms: C_27  and  O_32
REMARK   12  A    between atoms: C_28  and  O_30
REMARK   13  A    between atoms: O_30  and  C_31
REMARK   14  A    between atoms: O_32  and  C_33
REMARK                            x       y       z     vdW  Elec       q    Type
REMARK                         _______ _______ _______ _____ _____    ______ ____
ROOT
ATOM      1  C   UNL     1      -3.256  -2.203  -1.032  0.00  0.00    +0.019 C 
ATOM      2  C   UNL     1      -4.528  -2.979  -0.766  0.00  0.00    +0.200 C 
ATOM      3  O   UNL     1      -5.607  -2.767  -1.278  0.00  0.00    -0.277 OA
ATOM      4  N   UNL     1      -4.259  -3.946   0.136  0.00  0.00    -0.313 N 
ATOM      5  C   UNL     1      -2.844  -3.884   0.510  0.00  0.00    +0.006 C 
ATOM      6  N   UNL     1      -2.356  -2.551   0.093  0.00  0.00    +0.401 N 
ATOM      7  C   UNL     1      -2.057  -4.972  -0.219  0.00  0.00    +0.025 C 
ATOM      8  C   UNL     1      -2.595  -6.348   0.188  0.00  0.00    +0.108 C 
ATOM      9  N   UNL     1      -2.568  -6.451   1.653  0.00  0.00    -0.301 N 
ATOM     10  C   UNL     1      -3.234  -5.410   2.448  0.00  0.00    +0.108 C 
ATOM     11  C   UNL     1      -2.690  -4.042   2.022  0.00  0.00    +0.025 C 
ATOM     12  C   UNL     1      -1.944  -7.482   2.258  0.00  0.00    +0.218 C 
ATOM     13  O   UNL     1      -1.990  -7.595   3.464  0.00  0.00    -0.275 OA
ATOM     14  H   UNL     1      -1.398  -2.603  -0.220  0.00  0.00    -0.082 HD
ATOM     15  H   UNL     1      -2.451  -1.886   0.845  0.00  0.00    -0.082 HD
ENDROOT
BRANCH  12  16
ATOM     16  C   UNL     1      -1.191  -8.494   1.434  0.00  0.00    +0.069 C 
ATOM     17  C   UNL     1       0.201  -7.950   1.106  0.00  0.00    +0.017 C 
ATOM     18  C   UNL     1      -1.057  -9.797   2.224  0.00  0.00    +0.017 C 
ENDBRANCH  12  16
BRANCH   1  19
ATOM     19  C   UNL     1      -3.541  -0.700  -1.041  0.00  0.00    -0.004 C 
BRANCH  19  21
ATOM     20  C   UNL     1      -1.749  -0.247  -2.722  0.00  0.00    +0.007 C 
ATOM     21  C   UNL     1      -2.242   0.064  -1.308  0.00  0.00    -0.018 C 
ATOM     22  C   UNL     1      -2.498   1.566  -1.175  0.00  0.00    +0.007 C 
ENDBRANCH  19  21
ENDBRANCH   1  19
BRANCH   4  23
ATOM     23  C   UNL     1      -5.232  -4.908   0.659  0.00  0.00    +0.110 C 
BRANCH  23  24
ATOM     24  C   UNL     1      -5.937  -4.308   1.878  0.00  0.00    +0.054 C 
BRANCH  24  25
ATOM     25  C   UNL     1      -6.906  -5.315   2.443  0.00  0.00    -0.042 A 
ATOM     26  C   UNL     1      -8.210  -5.348   1.986  0.00  0.00    +0.007 A 
ATOM     27  C   UNL     1      -9.103  -6.270   2.502  0.00  0.00    +0.049 A 
ATOM     28  C   UNL     1      -8.691  -7.162   3.478  0.00  0.00    +0.161 A 
ATOM     29  C   UNL     1      -7.378  -7.129   3.937  0.00  0.00    +0.162 A 
ATOM     30  C   UNL     1      -6.487  -6.206   3.413  0.00  0.00    +0.053 A 
BRANCH  29  31
ATOM     31  O   UNL     1      -6.968  -8.004   4.895  0.00  0.00    -0.491 OA
ATOM     32  C   UNL     1      -5.606  -7.911   5.318  0.00  0.00    +0.277 C 
ENDBRANCH  29  31
BRANCH  28  33
ATOM     33  O   UNL     1      -9.568  -8.069   3.986  0.00  0.00    -0.491 OA
ATOM     34  C   UNL     1     -10.899  -8.045   3.468  0.00  0.00    +0.277 C 
ENDBRANCH  28  33
ENDBRANCH  24  25
ENDBRANCH  23  24
ENDBRANCH   4  23
TORSDOF 8
