REMARK  Name = ZINC07196387
REMARK  9 active torsions:
REMARK  status: ('A' for Active; 'I' for Inactive)
REMARK    1  A    between atoms: C_1  and  C_2
REMARK    2  A    between atoms: C_5  and  O_8
REMARK    3  A    between atoms: O_8  and  C_9
REMARK    4  A    between atoms: C_9  and  C_10
REMARK    5  A    between atoms: C_10  and  C_12
REMARK    6  A    between atoms: C_10  and  O_29
REMARK    7  A    between atoms: C_12  and  S_13
REMARK    8  A    between atoms: S_13  and  C_14
REMARK    9  A    between atoms: N_27  and  C_28
REMARK                            x       y       z     vdW  Elec       q    Type
REMARK                         _______ _______ _______ _____ _____    ______ ____
ROOT
ATOM      1  C   UNL     1       3.766   3.030  -0.018  0.00  0.00    +0.172 A 
ATOM      2  N   UNL     1       2.447   3.168  -0.005  0.00  0.00    -0.216 NA
ATOM      3  C   UNL     1       1.719   2.058  -0.003  0.00  0.00    +0.117 A 
ATOM      4  C   UNL     1       2.267   0.755  -0.015  0.00  0.00    +0.076 A 
ATOM      5  C   UNL     1       1.312  -0.341  -0.012  0.00  0.00    -0.023 A 
ATOM      6  C   UNL     1       0.002  -0.004   0.002  0.00  0.00    -0.004 A 
ATOM      7  S   UNL     1      -0.022   1.771   0.012  0.00  0.00    -0.073 S 
ATOM      8  C   UNL     1      -1.173  -0.932   0.007  0.00  0.00    +0.043 C 
ATOM      9  C   UNL     1      -0.687  -2.336  -0.377  0.00  0.00    +0.005 C 
ATOM     10  C   UNL     1       0.561  -2.666   0.447  0.00  0.00    +0.005 C 
ATOM     11  C   UNL     1       1.735  -1.807  -0.023  0.00  0.00    +0.037 C 
ATOM     12  C   UNL     1       3.696   0.645  -0.030  0.00  0.00    +0.263 A 
ATOM     13  O   UNL     1       4.262  -0.435  -0.042  0.00  0.00    -0.267 OA
ATOM     14  N   UNL     1       4.379   1.814  -0.031  0.00  0.00    -0.290 N 
ATOM     15  C   UNL     1       5.843   1.768  -0.045  0.00  0.00    +0.154 C 
ENDROOT
BRANCH   1  16
ATOM     16  S   UNL     1       4.767   4.480  -0.021  0.00  0.00    -0.085 S 
BRANCH  16  17
ATOM     17  C   UNL     1       3.478   5.751  -0.001  0.00  0.00    +0.112 C 
BRANCH  17  18
ATOM     18  C   UNL     1       4.129   7.136  -0.000  0.00  0.00    +0.162 C 
BRANCH  18  19
ATOM     19  O   UNL     1       4.952   7.275   1.159  0.00  0.00    -0.388 OA
ATOM     20  H   UNL     1       4.474   7.184   1.995  0.00  0.00    +0.210 HD
ENDBRANCH  18  19
BRANCH  18  21
ATOM     21  C   UNL     1       3.039   8.211   0.016  0.00  0.00    +0.261 C 
BRANCH  21  22
ATOM     22  O   UNL     1       3.642   9.501  -0.100  0.00  0.00    -0.489 OA
BRANCH  22  27
ATOM     23  C   UNL     1       0.183  13.947  -0.107  0.00  0.00    +0.044 C 
ATOM     24  C   UNL     1       1.108  12.757  -0.105  0.00  0.00    -0.050 A 
ATOM     25  C   UNL     1       2.474  12.945  -0.213  0.00  0.00    +0.007 A 
ATOM     26  C   UNL     1       3.324  11.857  -0.212  0.00  0.00    +0.046 A 
ATOM     27  C   UNL     1       2.807  10.574  -0.102  0.00  0.00    +0.121 A 
ATOM     28  C   UNL     1       1.436  10.388   0.001  0.00  0.00    +0.046 A 
ATOM     29  C   UNL     1       0.591  11.480   0.005  0.00  0.00    +0.007 A 
ENDBRANCH  22  27
ENDBRANCH  21  22
ENDBRANCH  18  21
ENDBRANCH  17  18
ENDBRANCH  16  17
ENDBRANCH   1  16
TORSDOF 7
