REMARK  Name = ZINC14944390
REMARK  7 active torsions:
REMARK  status: ('A' for Active; 'I' for Inactive)
REMARK    1  A    between atoms: C_1  and  C_2
REMARK    2  A    between atoms: C_4  and  N_9
REMARK    3  A    between atoms: C_6  and  C_8
REMARK    4  A    between atoms: N_9  and  S_10
REMARK    5  A    between atoms: S_10  and  C_13
REMARK    6  A    between atoms: C_26  and  C_29
REMARK    7  A    between atoms: C_33  and  C_35
REMARK                            x       y       z     vdW  Elec       q    Type
REMARK                         _______ _______ _______ _____ _____    ______ ____
ROOT
ATOM      1  C   UNL     1       0.053  -5.074  -3.917  0.00  0.00    +0.111 A 
ATOM      2  C   UNL     1      -1.146  -5.315  -4.563  0.00  0.00    +0.031 A 
ATOM      3  C   UNL     1      -1.143  -5.782  -5.861  0.00  0.00    +0.025 A 
ATOM      4  C   UNL     1       0.061  -6.007  -6.520  0.00  0.00    +0.031 A 
ATOM      5  C   UNL     1       1.264  -5.753  -5.878  0.00  0.00    -0.018 A 
ATOM      6  C   UNL     1       1.249  -5.287  -4.572  0.00  0.00    +0.035 A 
ATOM      7  C   UNL     1       2.574  -5.944  -6.565  0.00  0.00    +0.049 C 
ATOM      8  C   UNL     1       3.275  -7.199  -6.111  0.00  0.00    -0.023 C 
ATOM      9  C   UNL     1       3.911  -7.750  -7.114  0.00  0.00    -0.030 C 
ATOM     10  C   UNL     1       3.721  -6.946  -8.382  0.00  0.00    +0.033 C 
ATOM     11  C   UNL     1       2.481  -6.073  -8.084  0.00  0.00    +0.029 C 
ATOM     12  C   UNL     1       1.252  -6.821  -8.558  0.00  0.00    +0.105 C 
ATOM     13  N   UNL     1       0.049  -6.495  -7.821  0.00  0.00    -0.336 N 
ATOM     14  H   UNL     1      -0.809  -6.646  -8.248  0.00  0.00    +0.147 HD
ENDROOT
BRANCH  12  15
ATOM     15  C   UNL     1       1.523  -8.300  -8.457  0.00  0.00    -0.026 A 
ATOM     16  C   UNL     1       1.408  -8.942  -7.236  0.00  0.00    +0.005 A 
ATOM     17  C   UNL     1       1.655 -10.299  -7.135  0.00  0.00    +0.001 A 
ATOM     18  C   UNL     1       2.018 -11.023  -8.251  0.00  0.00    +0.015 A 
ATOM     19  C   UNL     1       2.136 -10.383  -9.487  0.00  0.00    +0.063 A 
ATOM     20  C   UNL     1       1.879  -9.012  -9.583  0.00  0.00    +0.020 A 
BRANCH  19  21
ATOM     21  C   UNL     1       2.523 -11.150 -10.686  0.00  0.00    +0.387 C 
ATOM     22  O   UNL     1       2.743 -12.350 -10.599  0.00  0.00    -0.241 OA
ATOM     23  O   UNL     1       2.626 -10.587 -11.766  0.00  0.00    -0.241 OA
ENDBRANCH  19  21
ENDBRANCH  12  15
BRANCH   1  24
ATOM     24  S   UNL     1       0.053  -4.486  -2.256  0.00  0.00    +0.093 S 
ATOM     25  O   UNL     1       1.307  -4.853  -1.696  0.00  0.00    -0.148 OA
ATOM     26  O   UNL     1      -1.184  -4.888  -1.683  0.00  0.00    -0.148 OA
BRANCH  24  27
ATOM     27  N   UNL     1       0.030  -2.832  -2.322  0.00  0.00    -0.078 NA
BRANCH  27  31
ATOM     28  C   UNL     1      -0.018   1.503   0.010  0.00  0.00    +0.066 C 
ATOM     29  C   UNL     1       0.002  -0.004   0.002  0.00  0.00    +0.044 A 
ATOM     30  C   UNL     1       0.006  -0.696  -1.193  0.00  0.00    +0.070 A 
ATOM     31  C   UNL     1       0.026  -2.092  -1.150  0.00  0.00    +0.166 A 
ATOM     32  N   UNL     1       0.040  -2.699   0.033  0.00  0.00    -0.214 NA
ATOM     33  C   UNL     1       0.035  -1.999   1.148  0.00  0.00    +0.128 A 
ATOM     34  N   UNL     1       0.022  -0.681   1.141  0.00  0.00    -0.237 NA
ATOM     35  C   UNL     1       0.052  -2.724   2.469  0.00  0.00    +0.088 C 
ENDBRANCH  27  31
ENDBRANCH  24  27
ENDBRANCH   1  24
TORSDOF 5
