REMARK  Name = ZINC05002891
REMARK  6 active torsions:
REMARK  status: ('A' for Active; 'I' for Inactive)
REMARK    1  A    between atoms: C_1  and  C_2
REMARK    2  A    between atoms: C_7  and  O_10
REMARK    3  A    between atoms: O_10  and  C_11
REMARK    4  A    between atoms: C_11  and  C_13
REMARK    5  A    between atoms: C_14  and  C_28
REMARK    6  A    between atoms: C_19  and  C_21
REMARK                            x       y       z     vdW  Elec       q    Type
REMARK                         _______ _______ _______ _____ _____    ______ ____
ROOT
ATOM      1  C   UNL     1       1.378  -2.737  -1.524  0.00  0.00    +0.078 C 
ATOM      2  C   UNL     1       0.321  -3.373  -2.075  0.00  0.00    +0.021 C 
ATOM      3  N   UNL     1      -0.764  -3.718  -1.322  0.00  0.00    -0.273 N 
ATOM      4  C   UNL     1      -0.871  -3.463  -0.012  0.00  0.00    +0.304 C 
ATOM      5  O   UNL     1      -1.877  -3.809   0.575  0.00  0.00    -0.252 OA
ATOM      6  N   UNL     1       0.102  -2.836   0.677  0.00  0.00    -0.288 N 
ATOM      7  C   UNL     1       1.317  -2.421  -0.044  0.00  0.00    +0.145 C 
ATOM      8  C   UNL     1       0.340  -3.706  -3.545  0.00  0.00    +0.061 C 
ATOM      9  H   UNL     1      -1.500  -4.174  -1.761  0.00  0.00    +0.156 HD
ATOM     10  H   UNL     1       0.004  -2.661   1.627  0.00  0.00    +0.151 HD
ENDROOT
BRANCH   7  11
ATOM     11  C   UNL     1       1.469  -0.930   0.120  0.00  0.00    -0.009 A 
ATOM     12  C   UNL     1       0.348  -0.123   0.166  0.00  0.00    +0.007 A 
ATOM     13  C   UNL     1       0.487   1.244   0.315  0.00  0.00    +0.000 A 
ATOM     14  C   UNL     1       1.746   1.805   0.418  0.00  0.00    +0.001 A 
ATOM     15  C   UNL     1       2.868   0.998   0.372  0.00  0.00    +0.015 A 
ATOM     16  C   UNL     1       2.729  -0.370   0.223  0.00  0.00    +0.023 A 
ATOM     17 BR   UNL     1       4.263  -1.475   0.160  0.00  0.00    -0.050 Br
ENDBRANCH   7  11
BRANCH   1  18
ATOM     18  C   UNL     1       2.503  -2.379  -2.303  0.00  0.00    +0.339 C 
ATOM     19  O   UNL     1       2.627  -1.238  -2.705  0.00  0.00    -0.245 OA
BRANCH  18  20
ATOM     20  O   UNL     1       3.440  -3.304  -2.600  0.00  0.00    -0.458 OA
BRANCH  20  26
ATOM     21  C   UNL     1       6.767  -5.992  -2.776  0.00  0.00    +0.007 C 
ATOM     22  C   UNL     1       5.559  -5.156  -3.204  0.00  0.00    -0.011 C 
ATOM     23  C   UNL     1       5.343  -5.306  -4.711  0.00  0.00    +0.003 C 
ATOM     24  C   UNL     1       4.135  -4.470  -5.138  0.00  0.00    +0.004 C 
ATOM     25  C   UNL     1       4.387  -2.999  -4.803  0.00  0.00    +0.045 C 
ATOM     26  C   UNL     1       4.603  -2.850  -3.295  0.00  0.00    +0.177 C 
ATOM     27  C   UNL     1       5.811  -3.685  -2.868  0.00  0.00    +0.048 C 
ENDBRANCH  20  26
ENDBRANCH  18  20
ENDBRANCH   1  18
TORSDOF 4
