REMARK  Name = ZINC39483515
REMARK  7 active torsions:
REMARK  status: ('A' for Active; 'I' for Inactive)
REMARK    1  A    between atoms: C_1  and  C_2
REMARK    2  A    between atoms: C_2  and  C_3
REMARK    3  A    between atoms: C_2  and  S_4
REMARK    4  A    between atoms: S_4  and  C_7
REMARK    5  A    between atoms: C_9  and  C_14
REMARK    6  A    between atoms: C_29  and  C_30
REMARK    7  A    between atoms: C_35  and  O_36
REMARK                            x       y       z     vdW  Elec       q    Type
REMARK                         _______ _______ _______ _____ _____    ______ ____
ROOT
ATOM      1  C   UNL     1      -1.211  -5.373  -2.087  0.00  0.00    +0.015 C 
ATOM      2  C   UNL     1      -0.985  -6.698  -1.978  0.00  0.00    -0.004 C 
ATOM      3  C   UNL     1      -0.954  -7.346  -0.624  0.00  0.00    +0.040 C 
ATOM      4  C   UNL     1      -1.476  -8.771  -0.707  0.00  0.00    +0.026 C 
ATOM      5  C   UNL     1      -0.818  -9.569  -1.808  0.00  0.00    +0.127 C 
ATOM      6  N   UNL     1      -0.754  -8.877  -3.088  0.00  0.00    -0.293 N 
ATOM      7  C   UNL     1      -0.776  -7.509  -3.185  0.00  0.00    +0.140 A 
ATOM      8  N   UNL     1      -0.613  -6.879  -4.332  0.00  0.00    -0.228 NA
ATOM      9  C   UNL     1      -0.461  -7.531  -5.493  0.00  0.00    +0.086 A 
ATOM     10  C   UNL     1      -0.502  -8.944  -5.499  0.00  0.00    +0.066 A 
ATOM     11  C   UNL     1      -0.666  -9.632  -4.216  0.00  0.00    +0.262 A 
ATOM     12  O   UNL     1      -0.736 -10.846  -4.163  0.00  0.00    -0.267 OA
ATOM     13  C   UNL     1      -0.370  -9.642  -6.697  0.00  0.00    +0.015 A 
ATOM     14  C   UNL     1      -0.189  -8.951  -7.878  0.00  0.00    +0.001 A 
ATOM     15  C   UNL     1      -0.136  -7.566  -7.888  0.00  0.00    +0.011 A 
ATOM     16  C   UNL     1      -0.268  -6.844  -6.708  0.00  0.00    +0.012 A 
ENDROOT
BRANCH   1  19
ATOM     17  C   UNL     1      -2.153  -2.643   0.308  0.00  0.00    +0.092 A 
ATOM     18  C   UNL     1      -2.112  -3.426  -0.827  0.00  0.00    +0.035 A 
ATOM     19  C   UNL     1      -1.260  -4.533  -0.879  0.00  0.00    -0.020 A 
ATOM     20  C   UNL     1      -0.454  -4.839   0.222  0.00  0.00    +0.046 A 
ATOM     21  C   UNL     1      -0.505  -4.046   1.351  0.00  0.00    +0.126 A 
ATOM     22  C   UNL     1      -1.349  -2.947   1.392  0.00  0.00    +0.065 A 
ATOM     23  F   UNL     1       0.272  -4.339   2.417  0.00  0.00    -0.205 F 
BRANCH  17  24
ATOM     24  S   UNL     1      -3.227  -1.248   0.374  0.00  0.00    -0.001 S 
ATOM     25  O   UNL     1      -3.490  -1.059   1.758  0.00  0.00    -0.169 OA
ATOM     26  O   UNL     1      -4.280  -1.558  -0.528  0.00  0.00    -0.169 OA
BRANCH  24  28
ATOM     27  C   UNL     1      -3.036   1.431  -0.141  0.00  0.00    +0.032 C 
ATOM     28  C   UNL     1      -2.239   0.131  -0.268  0.00  0.00    +0.130 C 
ATOM     29  C   UNL     1      -0.942   0.247   0.535  0.00  0.00    +0.032 C 
ENDBRANCH  24  28
ENDBRANCH  17  24
ENDBRANCH   1  19
BRANCH  16  30
ATOM     30  C   UNL     1      -0.207  -5.364  -6.728  0.00  0.00    +0.026 A 
ATOM     31  C   UNL     1      -1.194  -4.631  -7.385  0.00  0.00    +0.012 A 
ATOM     32  C   UNL     1      -1.132  -3.253  -7.400  0.00  0.00    +0.001 A 
ATOM     33  C   UNL     1      -0.093  -2.594  -6.765  0.00  0.00    +0.004 A 
ATOM     34  C   UNL     1       0.891  -3.311  -6.111  0.00  0.00    +0.046 A 
ATOM     35  C   UNL     1       0.839  -4.695  -6.083  0.00  0.00    +0.125 A 
BRANCH  35  36
ATOM     36  O   UNL     1       1.803  -5.401  -5.436  0.00  0.00    -0.506 OA
ATOM     37  H   UNL     1       2.559  -5.634  -5.991  0.00  0.00    +0.292 HD
ENDBRANCH  35  36
ENDBRANCH  16  30
TORSDOF 5
