REMARK  Name = ZINC66637958
REMARK  4 active torsions:
REMARK  status: ('A' for Active; 'I' for Inactive)
REMARK    1  A    between atoms: C_6  and  C_7
REMARK    2  A    between atoms: N_9  and  C_10
REMARK    3  A    between atoms: C_10  and  C_11
REMARK    4  A    between atoms: N_15  and  C_16
REMARK                            x       y       z     vdW  Elec       q    Type
REMARK                         _______ _______ _______ _____ _____    ______ ____
ROOT
ATOM      1  C   UNL     1      -1.269  -0.767  -0.204  0.00  0.00    +0.245 C 
ATOM      2  O   UNL     1      -2.331  -0.176  -0.211  0.00  0.00    -0.270 OA
ATOM      3  N   UNL     1      -1.247  -2.113  -0.151  0.00  0.00    -0.304 N 
ATOM      4  H   UNL     1      -0.399  -2.585  -0.146  0.00  0.00    +0.149 HD
ENDROOT
BRANCH   1  10
ATOM      5  C   UNL     1      -0.021   1.386  -0.308  0.00  0.00    +0.014 A 
ATOM      6  C   UNL     1       1.165   2.090  -0.353  0.00  0.00    +0.019 A 
ATOM      7  C   UNL     1       2.374   1.416  -0.346  0.00  0.00    +0.053 A 
ATOM      8  C   UNL     1       2.401   0.030  -0.292  0.00  0.00    +0.138 A 
ATOM      9  C   UNL     1       1.220  -0.684  -0.246  0.00  0.00    +0.052 A 
ATOM     10  C   UNL     1      -0.001  -0.008  -0.253  0.00  0.00    +0.039 A 
ATOM     11  F   UNL     1       3.585  -0.621  -0.285  0.00  0.00    -0.204 F 
ATOM     12 BR   UNL     1       3.994   2.389  -0.410  0.00  0.00    -0.047 Br
ENDBRANCH   1  10
BRANCH   3  13
ATOM     13  C   UNL     1      -2.503  -2.865  -0.102  0.00  0.00    +0.181 C 
BRANCH  13  14
ATOM     14  C   UNL     1      -2.204  -4.341  -0.049  0.00  0.00    +0.149 A 
ATOM     15  N   UNL     1      -1.023  -4.870  -0.041  0.00  0.00    -0.157 NA
ATOM     16  N   UNL     1      -1.169  -6.263   0.013  0.00  0.00    -0.254 N 
ATOM     17  C   UNL     1      -2.492  -6.527   0.037  0.00  0.00    +0.176 A 
ATOM     18  N   UNL     1      -3.140  -5.345   0.005  0.00  0.00    -0.303 N 
ATOM     19  S   UNL     1      -3.216  -8.077   0.104  0.00  0.00    -0.011 S 
ATOM     20  H   UNL     1      -0.452  -6.916   0.031  0.00  0.00    +0.191 HD
BRANCH  18  21
ATOM     21  C   UNL     1      -4.593  -5.162   0.021  0.00  0.00    +0.091 C 
ATOM     22  C   UNL     1      -5.462  -6.381  -0.297  0.00  0.00    +0.027 C 
ATOM     23  C   UNL     1      -5.380  -5.853   1.136  0.00  0.00    +0.027 C 
ENDBRANCH  18  21
ENDBRANCH  13  14
ENDBRANCH   3  13
TORSDOF 4
