REMARK  Name = ZINC28838153
REMARK  9 active torsions:
REMARK  status: ('A' for Active; 'I' for Inactive)
REMARK    1  A    between atoms: C_1  and  C_2
REMARK    2  A    between atoms: C_2  and  C_4
REMARK    3  A    between atoms: C_2  and  N_17
REMARK    4  A    between atoms: N_6  and  C_7
REMARK    5  A    between atoms: N_17  and  C_18
REMARK    6  A    between atoms: C_21  and  O_33
REMARK    7  A    between atoms: C_22  and  S_24
REMARK    8  A    between atoms: S_24  and  N_27
REMARK    9  A    between atoms: O_33  and  C_34
REMARK                            x       y       z     vdW  Elec       q    Type
REMARK                         _______ _______ _______ _____ _____    ______ ____
ROOT
ATOM      1  N   UNL     1      -2.841   7.744  -2.136  0.00  0.00    -0.333 N 
ATOM      2  H   UNL     1      -2.895   7.118  -3.039  0.00  0.00    +0.147 HD
ENDROOT
BRANCH   1   3
ATOM      3  C   UNL     1      -3.448   9.005  -2.122  0.00  0.00    +0.030 A 
ATOM      4  C   UNL     1      -3.380   9.796  -0.983  0.00  0.00    +0.026 A 
ATOM      5  C   UNL     1      -3.979  11.040  -0.969  0.00  0.00    +0.049 A 
ATOM      6  C   UNL     1      -4.650  11.499  -2.093  0.00  0.00    +0.146 A 
ATOM      7  C   UNL     1      -4.719  10.710  -3.231  0.00  0.00    +0.149 A 
ATOM      8  C   UNL     1      -4.115   9.467  -3.248  0.00  0.00    +0.055 A 
BRANCH   7   9
ATOM      9  S   UNL     1      -5.572  11.294  -4.658  0.00  0.00    +0.064 S 
ATOM     10  O   UNL     1      -5.099  12.611  -4.903  0.00  0.00    -0.153 OA
ATOM     11  O   UNL     1      -5.489  10.262  -5.632  0.00  0.00    -0.153 OA
BRANCH   9  12
ATOM     12  N   UNL     1      -7.171  11.432  -4.250  0.00  0.00    -0.176 NA
ATOM     13  C   UNL     1      -8.093  10.305  -4.441  0.00  0.00    +0.109 C 
ATOM     14  C   UNL     1      -8.805  10.024  -3.109  0.00  0.00    +0.017 C 
ATOM     15  C   UNL     1      -9.477  11.308  -2.616  0.00  0.00    +0.003 C 
ATOM     16  C   UNL     1      -8.413  12.383  -2.377  0.00  0.00    +0.017 C 
ATOM     17  C   UNL     1      -7.696  12.688  -3.696  0.00  0.00    +0.109 C 
ENDBRANCH   9  12
ENDBRANCH   7   9
BRANCH   6  18
ATOM     18  O   UNL     1      -5.240  12.724  -2.079  0.00  0.00    -0.493 OA
ATOM     19  C   UNL     1      -5.129  13.484  -0.874  0.00  0.00    +0.277 C 
ENDBRANCH   6  18
ENDBRANCH   1   3
BRANCH   1  21
ATOM     20  C   UNL     1      -0.697   7.788  -0.960  0.00  0.00    +0.038 C 
ATOM     21  C   UNL     1      -2.132   7.259  -0.950  0.00  0.00    +0.154 C 
BRANCH  21  22
ATOM     22  C   UNL     1      -2.112   5.752  -0.958  0.00  0.00    +0.233 C 
ATOM     23  O   UNL     1      -2.637   5.143  -1.866  0.00  0.00    -0.274 OA
ATOM     24  N   UNL     1      -1.510   5.081   0.044  0.00  0.00    -0.308 N 
ATOM     25  H   UNL     1      -1.033   5.633   0.867  0.00  0.00    +0.149 HD
BRANCH  24  26
ATOM     26  C   UNL     1      -1.490   3.616   0.036  0.00  0.00    +0.035 C 
ATOM     27  C   UNL     1      -0.773   3.123  -1.223  0.00  0.00    +0.029 C 
ATOM     28  C   UNL     1      -0.753   1.593  -1.232  0.00  0.00    -0.008 C 
ATOM     29  C   UNL     1      -0.013   1.086   0.008  0.00  0.00    +0.007 C 
ATOM     30  C   UNL     1      -0.729   1.579   1.267  0.00  0.00    -0.008 C 
ATOM     31  C   UNL     1      -0.750   3.109   1.275  0.00  0.00    +0.029 C 
ATOM     32  C   UNL     1      -2.164   1.050   1.278  0.00  0.00    +0.007 C 
ATOM     33  C   UNL     1      -2.904   1.556   0.038  0.00  0.00    -0.008 C 
ATOM     34  C   UNL     1      -2.188   1.063  -1.221  0.00  0.00    +0.007 C 
ATOM     35  C   UNL     1      -2.925   3.086   0.047  0.00  0.00    +0.029 C 
ENDBRANCH  24  26
ENDBRANCH  21  22
ENDBRANCH   1  21
TORSDOF 7
