REMARK  Name = ZINC36307548
REMARK  16 active torsions:
REMARK  status: ('A' for Active; 'I' for Inactive)
REMARK    1  A    between atoms: C_1  and  C_2
REMARK    2  A    between atoms: C_2  and  C_3
REMARK    3  A    between atoms: C_2  and  N_4
REMARK    4  A    between atoms: N_4  and  C_5
REMARK    5  A    between atoms: N_4  and  C_26
REMARK    6  A    between atoms: C_5  and  C_6
REMARK    7  A    between atoms: C_7  and  C_20
REMARK    8  A    between atoms: N_9  and  C_19
REMARK    9  A    between atoms: C_10  and  O_11
REMARK   10  A    between atoms: O_11  and  C_12
REMARK   11  A    between atoms: C_26  and  C_27
REMARK   12  A    between atoms: C_27  and  C_29
REMARK   13  A    between atoms: C_27  and  O_38
REMARK   14  A    between atoms: C_29  and  O_30
REMARK   15  A    between atoms: O_30  and  C_31
REMARK   16  A    between atoms: C_31  and  C_32
REMARK                            x       y       z     vdW  Elec       q    Type
REMARK                         _______ _______ _______ _____ _____    ______ ____
ROOT
ATOM      1  C   UNL     1      -0.993  -2.452   1.334  0.00  0.00    +0.025 A 
ATOM      2  C   UNL     1      -0.073  -3.497   1.123  0.00  0.00    +0.098 A 
ATOM      3  N   UNL     1       0.292  -3.964   2.297  0.00  0.00    -0.168 NA
ATOM      4  N   UNL     1      -0.378  -3.236   3.288  0.00  0.00    -0.235 N 
ATOM      5  C   UNL     1      -1.157  -2.309   2.674  0.00  0.00    +0.221 A 
ATOM      6  C   UNL     1      -0.256  -3.436   4.734  0.00  0.00    +0.176 C 
ENDROOT
BRANCH   2   7
ATOM      7  C   UNL     1       0.401  -3.986  -0.196  0.00  0.00    +0.002 A 
ATOM      8  C   UNL     1      -0.492  -4.111  -1.258  0.00  0.00    +0.010 A 
ATOM      9  C   UNL     1      -0.046  -4.566  -2.482  0.00  0.00    +0.001 A 
ATOM     10  C   UNL     1       1.286  -4.898  -2.655  0.00  0.00    +0.000 A 
ATOM     11  C   UNL     1       2.177  -4.776  -1.605  0.00  0.00    +0.001 A 
ATOM     12  C   UNL     1       1.742  -4.316  -0.378  0.00  0.00    +0.010 A 
ENDBRANCH   2   7
BRANCH   1  13
ATOM     13  C   UNL     1      -1.668  -1.633   0.264  0.00  0.00    -0.035 C 
BRANCH  13  14
ATOM     14  N   UNL     1      -1.282  -0.223   0.409  0.00  0.00    +0.386 N 
ATOM     15  H   UNL     1      -1.405   0.062   1.369  0.00  0.00    -0.081 HD
BRANCH  14  17
ATOM     16  C   UNL     1       1.017  -0.795   1.030  0.00  0.00    -0.014 C 
ATOM     17  C   UNL     1       0.127  -0.059   0.026  0.00  0.00    -0.074 C 
ATOM     18  C   UNL     1       0.346  -0.641  -1.372  0.00  0.00    -0.014 C 
ENDBRANCH  14  17
BRANCH  14  19
ATOM     19  C   UNL     1      -2.126   0.608  -0.460  0.00  0.00    -0.044 C 
BRANCH  19  20
ATOM     20  C   UNL     1      -1.865   2.086  -0.162  0.00  0.00    +0.124 C 
BRANCH  20  21
ATOM     21  O   UNL     1      -0.556   2.439  -0.614  0.00  0.00    -0.391 OA
ATOM     22  H   UNL     1      -0.399   2.253  -1.550  0.00  0.00    +0.210 HD
ENDBRANCH  20  21
BRANCH  20  23
ATOM     23  C   UNL     1      -2.904   2.943  -0.889  0.00  0.00    +0.189 C 
BRANCH  23  24
ATOM     24  O   UNL     1      -2.733   4.313  -0.519  0.00  0.00    -0.373 OA
BRANCH  24  25
ATOM     25  C   UNL     1      -3.659   5.203  -1.145  0.00  0.00    +0.195 C 
BRANCH  25  26
ATOM     26  C   UNL     1      -3.389   6.613  -0.686  0.00  0.00    -0.022 A 
ATOM     27  C   UNL     1      -4.022   7.106   0.439  0.00  0.00    +0.006 A 
ATOM     28  C   UNL     1      -3.775   8.399   0.860  0.00  0.00    +0.000 A 
ATOM     29  C   UNL     1      -2.893   9.199   0.157  0.00  0.00    +0.000 A 
ATOM     30  C   UNL     1      -2.259   8.705  -0.967  0.00  0.00    +0.000 A 
ATOM     31  C   UNL     1      -2.503   7.410  -1.386  0.00  0.00    +0.006 A 
ENDBRANCH  25  26
ENDBRANCH  24  25
ENDBRANCH  23  24
ENDBRANCH  20  23
ENDBRANCH  19  20
ENDBRANCH  14  19
ENDBRANCH  13  14
ENDBRANCH   1  13
BRANCH   5  32
ATOM     32  O   UNL     1      -1.960  -1.404   3.290  0.00  0.00    -0.438 OA
BRANCH  32  33
ATOM     33  C   UNL     1      -3.221  -1.788   3.618  0.00  0.00    +0.131 A 
ATOM     34  C   UNL     1      -3.619  -3.104   3.426  0.00  0.00    +0.049 A 
ATOM     35  C   UNL     1      -4.901  -3.493   3.760  0.00  0.00    +0.042 A 
ATOM     36  C   UNL     1      -5.790  -2.571   4.286  0.00  0.00    +0.124 A 
ATOM     37  C   UNL     1      -5.396  -1.258   4.479  0.00  0.00    +0.042 A 
ATOM     38  C   UNL     1      -4.112  -0.867   4.151  0.00  0.00    +0.049 A 
ATOM     39  F   UNL     1      -7.045  -2.954   4.612  0.00  0.00    -0.205 F 
ENDBRANCH  32  33
ENDBRANCH   5  32
TORSDOF 13
