REMARK  Name = ZINC08680960
REMARK  5 active torsions:
REMARK  status: ('A' for Active; 'I' for Inactive)
REMARK    1  A    between atoms: C_3  and  C_6
REMARK    2  A    between atoms: C_6  and  N_7
REMARK    3  A    between atoms: C_16  and  C_27
REMARK    4  A    between atoms: C_16  and  C_31
REMARK    5  A    between atoms: C_18  and  C_20
REMARK                            x       y       z     vdW  Elec       q    Type
REMARK                         _______ _______ _______ _____ _____    ______ ____
ROOT
ATOM      1  N   UNL     1       3.345   1.442   1.121  0.00  0.00    -0.274 N 
ATOM      2  C   UNL     1       3.980   2.379   1.897  0.00  0.00    +0.120 A 
ATOM      3  C   UNL     1       4.419   2.041   3.143  0.00  0.00    +0.100 A 
ATOM      4  C   UNL     1       4.201   0.733   3.610  0.00  0.00    +0.262 A 
ATOM      5  O   UNL     1       4.578   0.407   4.722  0.00  0.00    -0.267 OA
ATOM      6  N   UNL     1       3.572  -0.158   2.818  0.00  0.00    -0.275 N 
ATOM      7  H   UNL     1       3.420  -1.061   3.137  0.00  0.00    +0.173 HD
ATOM      8  C   UNL     1       3.146   0.196   1.591  0.00  0.00    +0.331 A 
ATOM      9  O   UNL     1       2.579  -0.624   0.895  0.00  0.00    -0.246 OA
ATOM     10  C   UNL     1       5.130   3.045   4.004  0.00  0.00    +0.285 C 
ATOM     11  N   UNL     1       4.929   4.402   3.512  0.00  0.00    -0.239 NA
ATOM     12  C   UNL     1       4.492   4.664   2.322  0.00  0.00    +0.128 C 
ATOM     13  N   UNL     1       4.175   3.658   1.431  0.00  0.00    -0.285 N 
ATOM     14  H   UNL     1       4.091   3.852   0.485  0.00  0.00    +0.155 HD
ENDROOT
BRANCH  12  15
ATOM     15  C   UNL     1       4.326   6.075   1.908  0.00  0.00    +0.015 A 
ATOM     16  C   UNL     1       3.851   6.378   0.632  0.00  0.00    +0.014 A 
ATOM     17  C   UNL     1       3.698   7.694   0.251  0.00  0.00    +0.039 A 
ATOM     18  C   UNL     1       4.016   8.715   1.132  0.00  0.00    +0.123 A 
ATOM     19  C   UNL     1       4.490   8.419   2.401  0.00  0.00    +0.039 A 
ATOM     20  C   UNL     1       4.640   7.106   2.794  0.00  0.00    +0.014 A 
ATOM     21  F   UNL     1       3.866  10.004   0.754  0.00  0.00    -0.205 F 
ENDBRANCH  12  15
BRANCH  10  22
ATOM     22  C   UNL     1       4.594   2.947   5.434  0.00  0.00    +0.428 C 
ATOM     23  F   UNL     1       5.124   1.810   6.053  0.00  0.00    -0.167 F 
ATOM     24  F   UNL     1       4.971   4.087   6.152  0.00  0.00    -0.167 F 
ATOM     25  F   UNL     1       3.199   2.854   5.404  0.00  0.00    -0.167 F 
ENDBRANCH  10  22
BRANCH  10  26
ATOM     26  C   UNL     1       6.627   2.731   4.009  0.00  0.00    +0.428 C 
ATOM     27  F   UNL     1       7.122   2.798   2.702  0.00  0.00    -0.167 F 
ATOM     28  F   UNL     1       7.297   3.662   4.809  0.00  0.00    -0.167 F 
ATOM     29  F   UNL     1       6.832   1.444   4.519  0.00  0.00    -0.167 F 
ENDBRANCH  10  26
BRANCH   1  30
ATOM     30  C   UNL     1       2.875   1.800  -0.220  0.00  0.00    +0.202 C 
BRANCH  30  33
ATOM     31  C   UNL     1      -0.296   3.656   0.064  0.00  0.00    +0.041 A 
ATOM     32  C   UNL     1       1.117   3.614   0.045  0.00  0.00    +0.046 A 
ATOM     33  C   UNL     1       1.466   2.328  -0.134  0.00  0.00    +0.125 A 
ATOM     34  O   UNL     1       0.346   1.592  -0.225  0.00  0.00    -0.466 OA
ATOM     35  C   UNL     1      -0.726   2.393  -0.106  0.00  0.00    +0.195 A 
ENDBRANCH  30  33
ENDBRANCH   1  30
TORSDOF 5
