REMARK  Name = ZINC13498882
REMARK  13 active torsions:
REMARK  status: ('A' for Active; 'I' for Inactive)
REMARK    1  A    between atoms: C_1  and  C_2
REMARK    2  A    between atoms: C_6  and  C_15
REMARK    3  A    between atoms: C_13  and  C_14
REMARK    4  A    between atoms: C_15  and  N_16
REMARK    5  A    between atoms: N_16  and  C_17
REMARK    6  A    between atoms: N_16  and  C_25
REMARK    7  A    between atoms: C_17  and  C_18
REMARK    8  A    between atoms: C_18  and  C_19
REMARK    9  A    between atoms: C_25  and  C_27
REMARK   10  A    between atoms: C_25  and  C_37
REMARK   11  A    between atoms: N_31  and  C_32
REMARK   12  A    between atoms: C_37  and  C_38
REMARK   13  A    between atoms: C_37  and  C_39
REMARK                            x       y       z     vdW  Elec       q    Type
REMARK                         _______ _______ _______ _____ _____    ______ ____
ROOT
ATOM      1  N   UNL     1      -5.836   4.008  -1.486  0.00  0.00    -0.288 NA
ENDROOT
BRANCH   1   2
ATOM      2  C   UNL     1      -5.052   3.981  -0.244  0.00  0.00    +0.125 C 
BRANCH   2   8
ATOM      3  C   UNL     1       2.216   3.862  -1.907  0.00  0.00    +0.044 C 
ATOM      4  C   UNL     1       0.938   3.148  -1.553  0.00  0.00    -0.047 A 
ATOM      5  C   UNL     1      -0.204   3.869  -1.343  0.00  0.00    +0.013 A 
ATOM      6  C   UNL     1      -1.391   3.206  -1.014  0.00  0.00    -0.001 A 
ATOM      7  C   UNL     1      -2.633   3.947  -0.783  0.00  0.00    +0.020 A 
ATOM      8  C   UNL     1      -3.757   3.250  -0.483  0.00  0.00    +0.031 A 
ATOM      9  C   UNL     1      -3.715   1.843  -0.382  0.00  0.00    +0.254 A 
ATOM     10  O   UNL     1      -4.734   1.237  -0.101  0.00  0.00    -0.268 OA
ATOM     11  N   UNL     1      -2.578   1.154  -0.588  0.00  0.00    -0.322 N 
ATOM     12  H   UNL     1      -2.576   0.058  -0.502  0.00  0.00    +0.169 HD
ATOM     13  C   UNL     1      -1.404   1.803  -0.906  0.00  0.00    +0.049 A 
ATOM     14  C   UNL     1      -0.228   1.091  -1.119  0.00  0.00    +0.030 A 
ATOM     15  C   UNL     1       0.930   1.765  -1.442  0.00  0.00    -0.046 A 
ATOM     16  C   UNL     1       2.202   0.991  -1.678  0.00  0.00    +0.044 C 
ENDBRANCH   2   8
ENDBRANCH   1   2
BRANCH   1  17
ATOM     17  C   UNL     1      -6.471   2.708  -1.737  0.00  0.00    +0.090 C 
BRANCH  17  18
ATOM     18  C   UNL     1      -7.095   2.705  -3.134  0.00  0.00    +0.050 C 
BRANCH  18  19
ATOM     19  C   UNL     1      -7.630   1.331  -3.442  0.00  0.00    -0.046 A 
ATOM     20  C   UNL     1      -6.821   0.397  -4.061  0.00  0.00    +0.003 A 
ATOM     21  C   UNL     1      -7.310  -0.866  -4.340  0.00  0.00    +0.000 A 
ATOM     22  C   UNL     1      -8.612  -1.191  -4.009  0.00  0.00    +0.000 A 
ATOM     23  C   UNL     1      -9.424  -0.255  -3.395  0.00  0.00    +0.000 A 
ATOM     24  C   UNL     1      -8.933   1.006  -3.112  0.00  0.00    +0.003 A 
ENDBRANCH  18  19
ENDBRANCH  17  18
ENDBRANCH   1  17
BRANCH   1  25
ATOM     25  C   UNL     1      -6.835   5.085  -1.456  0.00  0.00    +0.129 C 
BRANCH  25  26
ATOM     26  C   UNL     1      -7.383   5.221  -0.058  0.00  0.00    +0.169 A 
ATOM     27  N   UNL     1      -6.690   5.389   1.041  0.00  0.00    -0.112 NA
ATOM     28  N   UNL     1      -7.518   5.462   2.026  0.00  0.00    -0.023 NA
ATOM     29  N   UNL     1      -8.721   5.345   1.583  0.00  0.00    -0.044 NA
ATOM     30  N   UNL     1      -8.680   5.200   0.301  0.00  0.00    -0.225 N 
BRANCH  30  31
ATOM     31  C   UNL     1      -9.829   5.039  -0.593  0.00  0.00    +0.111 C 
ATOM     32  C   UNL     1     -10.779   6.247  -0.455  0.00  0.00    +0.027 C 
ATOM     33  C   UNL     1     -12.195   5.631  -0.581  0.00  0.00    +0.002 C 
ATOM     34  C   UNL     1     -12.053   4.287   0.175  0.00  0.00    +0.002 C 
ATOM     35  C   UNL     1     -10.639   3.794  -0.193  0.00  0.00    +0.027 C 
ENDBRANCH  30  31
ENDBRANCH  25  26
BRANCH  25  36
ATOM     36  C   UNL     1      -6.180   6.401  -1.877  0.00  0.00    +0.008 C 
ATOM     37  C   UNL     1      -5.011   6.712  -0.940  0.00  0.00    +0.009 C 
ATOM     38  C   UNL     1      -5.664   6.278  -3.312  0.00  0.00    +0.009 C 
ENDBRANCH  25  36
ENDBRANCH   1  25
TORSDOF 9
