REMARK  Name = ZINC48797062
REMARK  5 active torsions:
REMARK  status: ('A' for Active; 'I' for Inactive)
REMARK    1  A    between atoms: C_3  and  C_9
REMARK    2  A    between atoms: C_4  and  O_8
REMARK    3  A    between atoms: C_9  and  N_10
REMARK    4  A    between atoms: N_10  and  C_11
REMARK    5  A    between atoms: C_16  and  N_17
REMARK                            x       y       z     vdW  Elec       q    Type
REMARK                         _______ _______ _______ _____ _____    ______ ____
ROOT
ATOM      1  N   UNL     1       3.973   2.686  -1.552  0.00  0.00    -0.338 N 
ATOM      2  H   UNL     1       3.498   2.274  -2.291  0.00  0.00    +0.146 HD
ENDROOT
BRANCH   1   3
ATOM      3  C   UNL     1       5.285   3.134  -1.730  0.00  0.00    +0.058 A 
ATOM      4  C   UNL     1       5.925   3.833  -0.714  0.00  0.00    +0.026 A 
ATOM      5  C   UNL     1       7.221   4.275  -0.893  0.00  0.00    +0.017 A 
ATOM      6  C   UNL     1       7.882   4.023  -2.082  0.00  0.00    +0.020 A 
ATOM      7  C   UNL     1       7.247   3.328  -3.096  0.00  0.00    +0.050 A 
ATOM      8  C   UNL     1       5.953   2.878  -2.921  0.00  0.00    +0.148 A 
ATOM      9 BR   UNL     1       9.656   4.630  -2.323  0.00  0.00    -0.050 Br
BRANCH   8  10
ATOM     10  N   UNL     1       5.276   2.128  -4.003  0.00  0.00    +0.058 N 
ATOM     11  O   UNL     1       4.542   1.207  -3.732  0.00  0.00    -0.126 OA
ATOM     12  O   UNL     1       5.457   2.438  -5.157  0.00  0.00    -0.126 OA
ENDBRANCH   8  10
ENDBRANCH   1   3
BRANCH   1  13
ATOM     13  C   UNL     1       3.317   2.838  -0.252  0.00  0.00    +0.140 C 
BRANCH  13  16
ATOM     14  C   UNL     1      -0.440   2.616  -0.557  0.00  0.00    +0.002 A 
ATOM     15  C   UNL     1       0.843   3.128  -0.488  0.00  0.00    +0.009 A 
ATOM     16  C   UNL     1       1.920   2.279  -0.325  0.00  0.00    +0.012 A 
ATOM     17  C   UNL     1       1.714   0.910  -0.230  0.00  0.00    +0.135 A 
ATOM     18  C   UNL     1       0.426   0.398  -0.299  0.00  0.00    +0.060 A 
ATOM     19  C   UNL     1      -0.648   1.253  -0.463  0.00  0.00    +0.019 A 
ATOM     20 BR   UNL     1       0.141  -1.467  -0.170  0.00  0.00    -0.047 Br
BRANCH  17  21
ATOM     21  O   UNL     1       2.772   0.072  -0.070  0.00  0.00    -0.505 OA
ATOM     22  H   UNL     1       3.003  -0.098   0.853  0.00  0.00    +0.292 HD
ENDBRANCH  17  21
ENDBRANCH  13  16
ENDBRANCH   1  13
TORSDOF 5
