REMARK  Name = ZINC14882001
REMARK  13 active torsions:
REMARK  status: ('A' for Active; 'I' for Inactive)
REMARK    1  A    between atoms: C_1  and  C_2
REMARK    2  A    between atoms: C_2  and  C_3
REMARK    3  A    between atoms: C_2  and  C_4
REMARK    4  A    between atoms: C_4  and  C_5
REMARK    5  A    between atoms: C_5  and  C_6
REMARK    6  A    between atoms: C_6  and  C_17
REMARK    7  A    between atoms: N_9  and  C_13
REMARK    8  A    between atoms: C_13  and  C_14
REMARK    9  A    between atoms: C_14  and  N_71
REMARK   10  A    between atoms: C_15  and  N_71
REMARK   11  A    between atoms: C_16  and  N_71
REMARK   12  A    between atoms: C_23  and  C_25
REMARK   13  A    between atoms: C_26  and  C_27
REMARK                            x       y       z     vdW  Elec       q    Type
REMARK                         _______ _______ _______ _____ _____    ______ ____
ROOT
ATOM      1  C   UNL     1       0.197  -3.609  -2.258  0.00  0.00    +0.115 C 
ATOM      2  C   UNL     1       1.524  -4.336  -2.359  0.00  0.00    +0.247 C 
ATOM      3  O   UNL     1       2.037  -5.044  -1.519  0.00  0.00    -0.273 OA
ATOM      4  N   UNL     1       2.013  -4.027  -3.580  0.00  0.00    -0.226 N 
ATOM      5  C   UNL     1       1.186  -3.218  -4.253  0.00  0.00    +0.309 C 
ATOM      6  O   UNL     1       1.410  -2.805  -5.374  0.00  0.00    -0.252 OA
ATOM      7  N   UNL     1       0.080  -2.914  -3.551  0.00  0.00    -0.285 N 
ATOM      8  H   UNL     1      -0.652  -2.348  -3.840  0.00  0.00    +0.151 HD
ENDROOT
BRANCH   1   9
ATOM      9  C   UNL     1       0.221  -2.603  -1.106  0.00  0.00    +0.024 C 
ATOM     10  C   UNL     1       1.376  -1.620  -1.311  0.00  0.00    +0.025 C 
ATOM     11  C   UNL     1       1.418  -0.635  -0.139  0.00  0.00    +0.108 C 
ATOM     12  N   UNL     1       0.100   0.001  -0.007  0.00  0.00    -0.298 N 
ATOM     13  C   UNL     1      -1.089  -0.855   0.111  0.00  0.00    +0.108 C 
ATOM     14  C   UNL     1      -1.103  -1.837  -1.070  0.00  0.00    +0.025 C 
ATOM     15  C   UNL     1      -0.016   1.344   0.009  0.00  0.00    +0.239 C 
ATOM     16  O   UNL     1       0.982   2.041   0.010  0.00  0.00    -0.271 OA
BRANCH  15  17
ATOM     17  C   UNL     1      -1.342   1.964   0.021  0.00  0.00    +0.068 C 
ATOM     18  C   UNL     1      -1.460   3.304  -0.066  0.00  0.00    +0.013 C 
BRANCH  18  19
ATOM     19  C   UNL     1      -2.793   3.928  -0.054  0.00  0.00    -0.025 A 
ATOM     20  C   UNL     1      -3.940   3.132   0.042  0.00  0.00    +0.009 A 
ATOM     21  C   UNL     1      -5.185   3.723   0.057  0.00  0.00    +0.020 A 
ATOM     22  C   UNL     1      -5.303   5.101  -0.033  0.00  0.00    +0.041 A 
ATOM     23  C   UNL     1      -4.172   5.894  -0.133  0.00  0.00    +0.020 A 
ATOM     24  C   UNL     1      -2.920   5.317  -0.144  0.00  0.00    +0.009 A 
ATOM     25 CL   UNL     1      -6.875   5.836  -0.020  0.00  0.00    -0.084 Cl
ENDBRANCH  18  19
ENDBRANCH  15  17
ENDBRANCH   1   9
BRANCH   1  26
ATOM     26  C   UNL     1      -0.950  -4.606  -2.076  0.00  0.00    +0.036 C 
BRANCH  26  27
ATOM     27  C   UNL     1      -0.951  -5.599  -3.240  0.00  0.00    +0.005 C 
BRANCH  27  29
ATOM     28  C   UNL     1      -2.177  -7.510  -4.282  0.00  0.00    +0.007 C 
ATOM     29  C   UNL     1      -2.098  -6.595  -3.059  0.00  0.00    -0.017 C 
ATOM     30  C   UNL     1      -1.848  -7.439  -1.807  0.00  0.00    +0.007 C 
ENDBRANCH  27  29
ENDBRANCH  26  27
ENDBRANCH   1  26
BRANCH   4  31
ATOM     31  C   UNL     1       3.291  -4.517  -4.102  0.00  0.00    +0.099 C 
BRANCH  31  32
ATOM     32  C   UNL     1       4.405  -3.538  -3.726  0.00  0.00    -0.060 C 
BRANCH  32  35
ATOM     33  C   UNL     1       5.693  -4.021  -5.718  0.00  0.00    -0.097 C 
ATOM     34  C   UNL     1       6.809  -3.250  -3.712  0.00  0.00    -0.097 C 
ATOM     35  N   UNL     1       5.689  -4.058  -4.240  0.00  0.00    +0.377 N 
ATOM     36  H   UNL     1       5.804  -5.030  -3.931  0.00  0.00    -0.083 HD
ENDBRANCH  32  35
ENDBRANCH  31  32
ENDBRANCH   4  31
TORSDOF 9
