REMARK  Name = ZINC12570089
REMARK  11 active torsions:
REMARK  status: ('A' for Active; 'I' for Inactive)
REMARK    1  A    between atoms: C_1  and  C_2
REMARK    2  A    between atoms: C_7  and  O_8
REMARK    3  A    between atoms: O_8  and  C_9
REMARK    4  A    between atoms: C_9  and  C_10
REMARK    5  A    between atoms: N_12  and  N_13
REMARK    6  A    between atoms: N_13  and  C_14
REMARK    7  A    between atoms: C_14  and  N_16
REMARK    8  A    between atoms: C_17  and  C_19
REMARK    9  A    between atoms: C_19  and  C_21
REMARK   10  A    between atoms: C_19  and  O_22
REMARK   11  A    between atoms: O_22  and  C_23
REMARK                            x       y       z     vdW  Elec       q    Type
REMARK                         _______ _______ _______ _____ _____    ______ ____
ROOT
ATOM      1  C   UNL     1       2.972   6.610  -0.497  0.00  0.00    +0.153 C 
ATOM      2  S   UNL     1       2.768   8.294  -0.723  0.00  0.00    -0.017 S 
ENDROOT
BRANCH   1   3
ATOM      3  N   UNL     1       4.202   6.102  -0.287  0.00  0.00    -0.264 N 
ATOM      4  C   UNL     1       5.273   6.920  -0.255  0.00  0.00    +0.259 C 
ATOM      5  O   UNL     1       5.128   8.114  -0.415  0.00  0.00    -0.271 OA
ATOM      6  H   UNL     1       4.318   5.147  -0.159  0.00  0.00    +0.157 HD
BRANCH   4   7
ATOM      7  C   UNL     1       6.649   6.353  -0.019  0.00  0.00    +0.256 C 
ATOM      8  C   UNL     1       7.034   5.446  -1.191  0.00  0.00    +0.062 C 
BRANCH   7   9
ATOM      9  O   UNL     1       7.593   7.420   0.087  0.00  0.00    -0.478 OA
BRANCH   9  10
ATOM     10  C   UNL     1       8.730   7.171   0.789  0.00  0.00    +0.140 A 
ATOM     11  C   UNL     1       8.985   5.894   1.267  0.00  0.00    +0.048 A 
ATOM     12  C   UNL     1      10.143   5.641   1.976  0.00  0.00    +0.023 A 
ATOM     13  C   UNL     1      11.045   6.663   2.218  0.00  0.00    +0.043 A 
ATOM     14  C   UNL     1      10.790   7.939   1.747  0.00  0.00    +0.043 A 
ATOM     15  C   UNL     1       9.635   8.195   1.033  0.00  0.00    +0.084 A 
ATOM     16 CL   UNL     1       9.315   9.796   0.442  0.00  0.00    -0.080 Cl
ATOM     17 CL   UNL     1      12.496   6.344   3.115  0.00  0.00    -0.083 Cl
ENDBRANCH   9  10
ENDBRANCH   7   9
ENDBRANCH   4   7
ENDBRANCH   1   3
BRANCH   1  18
ATOM     18  N   UNL     1       1.902   5.791  -0.530  0.00  0.00    -0.245 N 
ATOM     19  H   UNL     1       1.016   6.157  -0.681  0.00  0.00    +0.172 HD
BRANCH  18  22
ATOM     20  C   UNL     1       0.998   3.594  -0.377  0.00  0.00    +0.267 C 
ATOM     21  O   UNL     1      -0.109   4.051  -0.566  0.00  0.00    -0.271 OA
ATOM     22  N   UNL     1       2.068   4.412  -0.345  0.00  0.00    -0.232 N 
ATOM     23  H   UNL     1       2.954   4.047  -0.193  0.00  0.00    +0.173 HD
BRANCH  20  24
ATOM     24  C   UNL     1       1.177   2.111  -0.178  0.00  0.00    +0.326 C 
BRANCH  24  25
ATOM     25  O   UNL     1      -0.094   1.463  -0.255  0.00  0.00    -0.482 OA
BRANCH  25  32
ATOM     26  C   UNL     1      -2.598   0.164  -0.392  0.00  0.00    +0.047 C 
ATOM     27  C   UNL     1      -1.310  -0.579  -0.153  0.00  0.00    -0.007 A 
ATOM     28  C   UNL     1      -1.322  -1.952   0.004  0.00  0.00    +0.027 A 
ATOM     29  C   UNL     1      -0.140  -2.634   0.230  0.00  0.00    +0.041 A 
ATOM     30  C   UNL     1       1.058  -1.945   0.292  0.00  0.00    +0.023 A 
ATOM     31  C   UNL     1       1.075  -0.573   0.130  0.00  0.00    +0.047 A 
ATOM     32  C   UNL     1      -0.109   0.113  -0.096  0.00  0.00    +0.124 A 
ATOM     33 CL   UNL     1      -0.160  -4.358   0.434  0.00  0.00    -0.084 Cl
ENDBRANCH  25  32
ENDBRANCH  24  25
ENDBRANCH  20  24
ENDBRANCH  18  22
ENDBRANCH   1  18
TORSDOF 9
