REMARK  Name = ZINC16953355
REMARK  10 active torsions:
REMARK  status: ('A' for Active; 'I' for Inactive)
REMARK    1  A    between atoms: C_1  and  C_2
REMARK    2  A    between atoms: C_2  and  N_3
REMARK    3  A    between atoms: C_4  and  O_6
REMARK    4  A    between atoms: O_6  and  C_7
REMARK    5  A    between atoms: C_13  and  C_36
REMARK    6  A    between atoms: N_25  and  O_26
REMARK    7  A    between atoms: O_26  and  C_27
REMARK    8  A    between atoms: N_29  and  C_30
REMARK    9  A    between atoms: C_30  and  C_31
REMARK   10  A    between atoms: C_34  and  C_35
REMARK                            x       y       z     vdW  Elec       q    Type
REMARK                         _______ _______ _______ _____ _____    ______ ____
ROOT
ATOM      1  C   UNL     1     -11.236  -5.834  -3.336  0.00  0.00    +0.184 C 
ATOM      2  C   UNL     1     -11.095  -4.370  -3.820  0.00  0.00    +0.045 C 
ATOM      3  C   UNL     1      -9.892  -3.763  -3.048  0.00  0.00    +0.008 C 
ATOM      4  C   UNL     1      -9.187  -4.998  -2.468  0.00  0.00    +0.002 C 
ATOM      5  C   UNL     1     -10.377  -5.887  -2.053  0.00  0.00    +0.008 C 
ATOM      6  C   UNL     1      -9.910  -7.274  -1.684  0.00  0.00    +0.011 C 
ATOM      7  C   UNL     1      -8.521  -7.223  -1.033  0.00  0.00    +0.005 C 
ATOM      8  C   UNL     1      -8.295  -5.894  -0.322  0.00  0.00    +0.002 C 
ATOM      9  C   UNL     1      -8.220  -4.761  -1.347  0.00  0.00    -0.003 C 
ATOM     10  C   UNL     1      -8.359  -3.404  -0.676  0.00  0.00    +0.008 C 
ATOM     11  C   UNL     1      -7.563  -3.382   0.632  0.00  0.00    +0.031 C 
ATOM     12  C   UNL     1      -6.523  -4.478   0.606  0.00  0.00    -0.062 C 
ATOM     13  C   UNL     1      -5.236  -4.176   0.694  0.00  0.00    +0.026 C 
ATOM     14  C   UNL     1      -4.205  -5.219   0.666  0.00  0.00    +0.081 C 
ATOM     15  N   UNL     1      -2.956  -4.897   0.804  0.00  0.00    -0.078 NA
ATOM     16  C   UNL     1      -4.593  -6.662   0.474  0.00  0.00    +0.059 C 
ATOM     17  C   UNL     1      -5.935  -6.738  -0.256  0.00  0.00    +0.017 C 
ATOM     18  C   UNL     1      -6.984  -5.910   0.477  0.00  0.00    -0.007 C 
ATOM     19  C   UNL     1      -7.248  -6.492   1.867  0.00  0.00    +0.016 C 
ATOM     20  C   UNL     1     -11.207  -5.271  -0.926  0.00  0.00    +0.015 C 
ENDROOT
BRANCH   1  21
ATOM     21  O   UNL     1     -12.615  -6.136  -3.014  0.00  0.00    -0.447 OA
BRANCH  21  23
ATOM     22  N   UNL     1     -14.641  -7.038  -3.739  0.00  0.00    -0.281 N 
ATOM     23  C   UNL     1     -13.350  -6.730  -3.973  0.00  0.00    +0.401 C 
ATOM     24  O   UNL     1     -12.850  -6.989  -5.049  0.00  0.00    -0.226 OA
ATOM     25  H   UNL     1     -15.041  -6.832  -2.879  0.00  0.00    +0.152 HD
BRANCH  22  27
ATOM     26  C   UNL     1     -16.860  -7.923  -4.263  0.00  0.00    +0.024 C 
ATOM     27  C   UNL     1     -15.441  -7.685  -4.782  0.00  0.00    +0.104 C 
ENDBRANCH  22  27
ENDBRANCH  21  23
ENDBRANCH   1  21
BRANCH  15  28
ATOM     28  O   UNL     1      -2.641  -3.731   0.959  0.00  0.00    -0.299 OA
BRANCH  28  29
ATOM     29  C   UNL     1      -1.329  -3.465   1.096  0.00  0.00    +0.426 C 
ATOM     30  O   UNL     1      -0.519  -4.370   1.061  0.00  0.00    -0.224 OA
ATOM     31  N   UNL     1      -0.913  -2.195   1.271  0.00  0.00    -0.280 N 
ATOM     32  H   UNL     1      -1.559  -1.472   1.298  0.00  0.00    +0.152 HD
BRANCH  31  33
ATOM     33  C   UNL     1       0.516  -1.906   1.419  0.00  0.00    +0.104 C 
ATOM     34  C   UNL     1       0.715  -0.400   1.603  0.00  0.00    +0.024 C 
ENDBRANCH  31  33
ENDBRANCH  28  29
ENDBRANCH  15  28
TORSDOF 6
