REMARK  Name = ZINC10052159
REMARK  13 active torsions:
REMARK  status: ('A' for Active; 'I' for Inactive)
REMARK    1  A    between atoms: C_1  and  C_2
REMARK    2  A    between atoms: C_2  and  C_3
REMARK    3  A    between atoms: C_3  and  C_4
REMARK    4  A    between atoms: C_4  and  N_5
REMARK    5  A    between atoms: C_18  and  S_19
REMARK    6  A    between atoms: S_19  and  C_20
REMARK    7  A    between atoms: C_20  and  C_21
REMARK    8  A    between atoms: N_23  and  C_24
REMARK    9  A    between atoms: C_25  and  C_31
REMARK   10  A    between atoms: C_26  and  C_30
REMARK   11  A    between atoms: C_27  and  C_29
REMARK   12  A    between atoms: C_31  and  O_33
REMARK   13  A    between atoms: O_33  and  C_34
REMARK                            x       y       z     vdW  Elec       q    Type
REMARK                         _______ _______ _______ _____ _____    ______ ____
ROOT
ATOM      1  N   UNL     1      -0.675   1.545   3.712  0.00  0.00    -0.277 N 
ATOM      2  C   UNL     1      -0.317   2.724   4.260  0.00  0.00    +0.263 A 
ATOM      3  O   UNL     1       0.568   3.395   3.762  0.00  0.00    -0.267 OA
ATOM      4  C   UNL     1      -1.020   3.189   5.469  0.00  0.00    +0.064 A 
ATOM      5  C   UNL     1      -0.696   4.402   6.074  0.00  0.00    +0.015 A 
ATOM      6  C   UNL     1      -1.373   4.801   7.207  0.00  0.00    +0.001 A 
ATOM      7  C   UNL     1      -2.371   4.002   7.745  0.00  0.00    +0.002 A 
ATOM      8  C   UNL     1      -2.701   2.798   7.154  0.00  0.00    +0.027 A 
ATOM      9  C   UNL     1      -2.030   2.382   6.014  0.00  0.00    +0.064 A 
ATOM     10  N   UNL     1      -2.344   1.172   5.399  0.00  0.00    -0.256 N 
ATOM     11  C   UNL     1      -1.677   0.770   4.274  0.00  0.00    +0.240 A 
ATOM     12  N   UNL     1      -2.170  -0.393   3.910  0.00  0.00    -0.109 NA
ATOM     13  N   UNL     1      -3.174  -0.745   4.820  0.00  0.00    -0.120 NA
ATOM     14  C   UNL     1      -3.266   0.210   5.712  0.00  0.00    +0.198 A 
ENDROOT
BRANCH   1  15
ATOM     15  C   UNL     1       0.011   1.072   2.506  0.00  0.00    +0.128 C 
BRANCH  15  16
ATOM     16  C   UNL     1      -0.729   1.579   1.267  0.00  0.00    +0.021 C 
BRANCH  16  18
ATOM     17  C   UNL     1      -0.753   1.593  -1.232  0.00  0.00    +0.004 C 
ATOM     18  C   UNL     1      -0.013   1.086   0.008  0.00  0.00    -0.002 C 
ENDBRANCH  16  18
ENDBRANCH  15  16
ENDBRANCH   1  15
BRANCH  14  19
ATOM     19  S   UNL     1      -4.382   0.249   7.075  0.00  0.00    -0.076 S 
BRANCH  19  20
ATOM     20  C   UNL     1      -5.316  -1.298   6.923  0.00  0.00    +0.173 C 
BRANCH  20  21
ATOM     21  C   UNL     1      -6.320  -1.392   8.043  0.00  0.00    +0.228 C 
ATOM     22  O   UNL     1      -6.398  -0.502   8.863  0.00  0.00    -0.275 OA
ATOM     23  N   UNL     1      -7.131  -2.465   8.133  0.00  0.00    -0.279 N 
ATOM     24  H   UNL     1      -7.069  -3.176   7.477  0.00  0.00    +0.155 HD
BRANCH  23  25
ATOM     25  C   UNL     1      -8.054  -2.551   9.163  0.00  0.00    +0.086 A 
ATOM     26  C   UNL     1      -8.968  -3.567   9.422  0.00  0.00    +0.091 A 
ATOM     27  C   UNL     1      -9.819  -3.396  10.576  0.00  0.00    -0.025 A 
ATOM     28  C   UNL     1      -9.655  -2.273  11.299  0.00  0.00    -0.008 A 
ATOM     29  S   UNL     1      -8.344  -1.423  10.445  0.00  0.00    -0.078 S 
ATOM     30  C   UNL     1     -10.398  -1.843  12.537  0.00  0.00    +0.052 C 
ATOM     31  C   UNL     1     -10.847  -4.431  10.954  0.00  0.00    +0.045 C 
BRANCH  26  32
ATOM     32  C   UNL     1      -9.063  -4.751   8.566  0.00  0.00    +0.342 C 
ATOM     33  O   UNL     1      -8.389  -5.733   8.809  0.00  0.00    -0.245 OA
BRANCH  32  34
ATOM     34  O   UNL     1      -9.899  -4.753   7.507  0.00  0.00    -0.464 OA
ATOM     35  C   UNL     1      -9.942  -5.961   6.703  0.00  0.00    +0.280 C 
ENDBRANCH  32  34
ENDBRANCH  26  32
ENDBRANCH  23  25
ENDBRANCH  20  21
ENDBRANCH  19  20
ENDBRANCH  14  19
TORSDOF 9
