REMARK  Name = ZINC20935928
REMARK  8 active torsions:
REMARK  status: ('A' for Active; 'I' for Inactive)
REMARK    1  A    between atoms: C_1  and  C_2
REMARK    2  A    between atoms: N_4  and  C_5
REMARK    3  A    between atoms: C_13  and  C_16
REMARK    4  A    between atoms: C_17  and  C_18
REMARK    5  A    between atoms: N_20  and  C_21
REMARK    6  A    between atoms: C_21  and  C_22
REMARK    7  A    between atoms: C_22  and  C_24
REMARK    8  A    between atoms: C_22  and  N_29
REMARK                            x       y       z     vdW  Elec       q    Type
REMARK                         _______ _______ _______ _____ _____    ______ ____
ROOT
ATOM      1  C   UNL     1       5.025  -1.857  -0.266  0.00  0.00    +0.237 C 
ATOM      2  O   UNL     1       5.809  -0.942  -0.439  0.00  0.00    -0.271 OA
ATOM      3  N   UNL     1       5.450  -3.133  -0.351  0.00  0.00    -0.313 N 
ATOM      4  H   UNL     1       4.742  -3.961  -0.194  0.00  0.00    +0.149 HD
ENDROOT
BRANCH   1   6
ATOM      5  C   UNL     1       3.240  -0.300   0.112  0.00  0.00    +0.033 C 
ATOM      6  C   UNL     1       3.667  -1.581   0.026  0.00  0.00    +0.069 C 
BRANCH   5  13
ATOM      7  C   UNL     1      -2.240  -3.969   1.180  0.00  0.00    +0.110 C 
ATOM      8  C   UNL     1      -1.099  -2.994   1.049  0.00  0.00    +0.223 C 
ATOM      9  O   UNL     1       0.032  -3.403   0.891  0.00  0.00    -0.275 OA
ATOM     10  N   UNL     1      -1.334  -1.668   1.107  0.00  0.00    -0.219 N 
ATOM     11  C   UNL     1      -0.300  -0.768   0.879  0.00  0.00    +0.172 A 
ATOM     12  N   UNL     1       0.966  -1.009   0.607  0.00  0.00    -0.225 NA
ATOM     13  C   UNL     1       1.834  -0.014   0.414  0.00  0.00    +0.073 A 
ATOM     14  C   UNL     1       1.388   1.285   0.504  0.00  0.00    +0.076 A 
ATOM     15  S   UNL     1      -0.340   1.018   0.879  0.00  0.00    -0.059 S 
BRANCH  10  16
ATOM     16  C   UNL     1      -2.621  -1.198   1.397  0.00  0.00    +0.043 A 
ATOM     17  C   UNL     1      -3.613  -1.242   0.426  0.00  0.00    +0.024 A 
ATOM     18  C   UNL     1      -4.883  -0.782   0.717  0.00  0.00    +0.002 A 
ATOM     19  C   UNL     1      -5.163  -0.268   1.969  0.00  0.00    +0.000 A 
ATOM     20  C   UNL     1      -4.176  -0.217   2.936  0.00  0.00    +0.002 A 
ATOM     21  C   UNL     1      -2.906  -0.681   2.654  0.00  0.00    +0.024 A 
ENDBRANCH  10  16
ENDBRANCH   5  13
ENDBRANCH   1   6
BRANCH   3  22
ATOM     22  C   UNL     1       6.855  -3.419  -0.653  0.00  0.00    +0.097 C 
BRANCH  22  23
ATOM     23  C   UNL     1       7.070  -4.933  -0.692  0.00  0.00    +0.016 C 
BRANCH  23  24
ATOM     24  N   UNL     1       6.610  -5.526   0.571  0.00  0.00    +0.387 N 
ATOM     25  C   UNL     1       7.346  -4.968   1.713  0.00  0.00    -0.078 C 
ATOM     26  C   UNL     1       6.744  -5.498   3.016  0.00  0.00    -0.019 C 
ATOM     27  C   UNL     1       6.829  -7.027   3.028  0.00  0.00    -0.004 C 
ATOM     28  C   UNL     1       6.097  -7.580   1.803  0.00  0.00    -0.019 C 
ATOM     29  C   UNL     1       6.717  -6.990   0.534  0.00  0.00    -0.078 C 
ATOM     30  H   UNL     1       5.548  -5.270   0.699  0.00  0.00    -0.081 HD
ENDBRANCH  23  24
BRANCH  23  31
ATOM     31  C   UNL     1       8.536  -5.227  -0.881  0.00  0.00    +0.093 A 
ATOM     32  C   UNL     1       9.105  -5.707  -2.002  0.00  0.00    +0.043 A 
ATOM     33  C   UNL     1      10.489  -5.828  -1.739  0.00  0.00    +0.041 A 
ATOM     34  C   UNL     1      10.682  -5.423  -0.471  0.00  0.00    +0.195 A 
ATOM     35  O   UNL     1       9.496  -5.060   0.044  0.00  0.00    -0.469 OA
ENDBRANCH  23  31
ENDBRANCH  22  23
ENDBRANCH   3  22
TORSDOF 7
