REMARK  Name = ZINC36743519
REMARK  5 active torsions:
REMARK  status: ('A' for Active; 'I' for Inactive)
REMARK    1  A    between atoms: C_1  and  C_2
REMARK    2  A    between atoms: C_6  and  N_20
REMARK    3  A    between atoms: C_7  and  N_8
REMARK    4  A    between atoms: N_8  and  S_9
REMARK    5  A    between atoms: S_9  and  C_12
REMARK                            x       y       z     vdW  Elec       q    Type
REMARK                         _______ _______ _______ _____ _____    ______ ____
ROOT
ATOM      1  N   UNL     1       0.301  -0.849   2.649  0.00  0.00    -0.214 N 
ATOM      2  H   UNL     1       0.446   0.087   2.859  0.00  0.00    +0.174 HD
ENDROOT
BRANCH   1   9
ATOM      3  C   UNL     1       2.591  -0.543   0.991  0.00  0.00    +0.046 C 
ATOM      4  C   UNL     1       1.304  -1.129   0.471  0.00  0.00    -0.025 A 
ATOM      5  C   UNL     1       1.215  -1.542  -0.847  0.00  0.00    +0.020 A 
ATOM      6  C   UNL     1       0.036  -2.080  -1.329  0.00  0.00    +0.020 A 
ATOM      7  C   UNL     1      -1.062  -2.209  -0.495  0.00  0.00    +0.040 A 
ATOM      8  C   UNL     1      -0.980  -1.799   0.826  0.00  0.00    +0.049 A 
ATOM      9  C   UNL     1       0.211  -1.260   1.313  0.00  0.00    +0.072 A 
ATOM     10 BR   UNL     1      -0.078  -2.640  -3.131  0.00  0.00    -0.050 Br
BRANCH   8  11
ATOM     11  N   UNL     1      -2.089  -1.928   1.671  0.00  0.00    -0.356 N 
ATOM     12  H   UNL     1      -2.822  -2.513   1.423  0.00  0.00    +0.142 HD
ATOM     13  H   UNL     1      -2.125  -1.433   2.504  0.00  0.00    +0.142 HD
ENDBRANCH   8  11
ENDBRANCH   1   9
BRANCH   1  14
ATOM     14  S   UNL     1       0.160  -1.959   3.869  0.00  0.00    +0.072 S 
ATOM     15  O   UNL     1       0.296  -1.243   5.089  0.00  0.00    -0.150 OA
ATOM     16  O   UNL     1      -0.986  -2.746   3.572  0.00  0.00    -0.150 OA
BRANCH  14  17
ATOM     17  C   UNL     1       1.551  -3.035   3.759  0.00  0.00    +0.111 A 
ATOM     18  C   UNL     1       1.461  -4.209   3.035  0.00  0.00    +0.049 A 
ATOM     19  C   UNL     1       2.553  -5.054   2.948  0.00  0.00    +0.044 A 
ATOM     20  C   UNL     1       3.736  -4.723   3.586  0.00  0.00    +0.040 A 
ATOM     21  C   UNL     1       3.825  -3.547   4.309  0.00  0.00    +0.044 A 
ATOM     22  C   UNL     1       2.734  -2.701   4.391  0.00  0.00    +0.049 A 
ATOM     23 CL   UNL     1       5.309  -3.132   5.110  0.00  0.00    -0.083 Cl
ATOM     24 CL   UNL     1       2.440  -6.529   2.040  0.00  0.00    -0.083 Cl
ENDBRANCH  14  17
ENDBRANCH   1  14
TORSDOF 4
