REMARK  Name = ZINC36242406
REMARK  11 active torsions:
REMARK  status: ('A' for Active; 'I' for Inactive)
REMARK    1  A    between atoms: C_1  and  C_2
REMARK    2  A    between atoms: C_2  and  C_3
REMARK    3  A    between atoms: C_2  and  C_4
REMARK    4  A    between atoms: C_2  and  O_27
REMARK    5  A    between atoms: C_8  and  C_19
REMARK    6  A    between atoms: C_10  and  C_13
REMARK    7  A    between atoms: C_19  and  C_20
REMARK    8  A    between atoms: C_21  and  C_22
REMARK    9  A    between atoms: C_22  and  C_23
REMARK   10  A    between atoms: C_23  and  C_24
REMARK   11  A    between atoms: O_27  and  C_28
REMARK                            x       y       z     vdW  Elec       q    Type
REMARK                         _______ _______ _______ _____ _____    ______ ____
ROOT
ATOM      1  C   UNL     1      -0.770  -0.402  -0.333  0.00  0.00    +0.294 C 
ATOM      2  O   UNL     1      -1.495   0.127  -1.446  0.00  0.00    -0.347 OA
ATOM      3  C   UNL     1      -2.783  -0.468  -1.631  0.00  0.00    +0.169 C 
ATOM      4  C   UNL     1      -2.612  -1.980  -1.815  0.00  0.00    +0.052 C 
ATOM      5  C   UNL     1      -1.819  -2.536  -0.627  0.00  0.00    +0.158 C 
ATOM      6  O   UNL     1      -0.592  -1.810  -0.506  0.00  0.00    -0.339 OA
ENDROOT
BRANCH   5   7
ATOM      7  C   UNL     1      -2.626  -2.381   0.636  0.00  0.00    -0.000 A 
ATOM      8  C   UNL     1      -3.995  -2.605   0.626  0.00  0.00    +0.009 A 
ATOM      9  C   UNL     1      -4.697  -2.450   1.812  0.00  0.00    +0.020 A 
ATOM     10  C   UNL     1      -4.014  -2.079   2.955  0.00  0.00    +0.111 A 
ATOM     11  N   UNL     1      -2.712  -1.873   2.927  0.00  0.00    -0.263 NA
ATOM     12  C   UNL     1      -2.011  -2.017   1.819  0.00  0.00    +0.116 A 
ENDBRANCH   5   7
BRANCH   1  14
ATOM     13  C   UNL     1       0.408   1.771   0.027  0.00  0.00    +0.061 C 
ATOM     14  C   UNL     1       0.598   0.278  -0.245  0.00  0.00    +0.155 C 
ATOM     15  C   UNL     1       1.407  -0.349   0.891  0.00  0.00    +0.061 C 
BRANCH  14  16
ATOM     16  O   UNL     1       1.296   0.103  -1.480  0.00  0.00    -0.480 OA
BRANCH  16  17
ATOM     17  C   UNL     1       2.544   0.637  -1.563  0.00  0.00    +0.135 A 
ATOM     18  C   UNL     1       3.068   1.349  -0.495  0.00  0.00    +0.047 A 
ATOM     19  C   UNL     1       4.336   1.890  -0.582  0.00  0.00    +0.004 A 
ATOM     20  C   UNL     1       5.083   1.722  -1.734  0.00  0.00    +0.001 A 
ATOM     21  C   UNL     1       4.564   1.013  -2.800  0.00  0.00    +0.019 A 
ATOM     22  C   UNL     1       3.297   0.465  -2.716  0.00  0.00    +0.059 A 
ATOM     23 BR   UNL     1       2.591  -0.513  -4.172  0.00  0.00    -0.047 Br
ENDBRANCH  16  17
ENDBRANCH  14  16
ENDBRANCH   1  14
BRANCH   4  24
ATOM     24  C   UNL     1      -1.853  -2.255  -3.115  0.00  0.00    +0.035 C 
BRANCH  24  25
ATOM     25  C   UNL     1      -2.729  -1.905  -4.291  0.00  0.00    -0.031 C 
ATOM     26  C   UNL     1      -3.051  -2.827  -5.164  0.00  0.00    -0.030 C 
BRANCH  26  27
ATOM     27  C   UNL     1      -2.647  -4.260  -4.931  0.00  0.00    +0.038 C 
BRANCH  27  28
ATOM     28  C   UNL     1      -3.886  -5.156  -4.997  0.00  0.00    +0.129 C 
BRANCH  28  29
ATOM     29  C   UNL     1      -3.499  -6.573  -4.659  0.00  0.00    +0.356 C 
ATOM     30  O   UNL     1      -2.363  -6.825  -4.296  0.00  0.00    -0.246 OA
ATOM     31  O   UNL     1      -4.323  -7.468  -4.749  0.00  0.00    -0.246 OA
ENDBRANCH  28  29
ENDBRANCH  27  28
ENDBRANCH  26  27
ENDBRANCH  24  25
ENDBRANCH   4  24
TORSDOF 9
