REMARK  Name = ZINC65022878
REMARK  9 active torsions:
REMARK  status: ('A' for Active; 'I' for Inactive)
REMARK    1  A    between atoms: C_1  and  C_2
REMARK    2  A    between atoms: C_5  and  N_9
REMARK    3  A    between atoms: C_6  and  C_8
REMARK    4  A    between atoms: N_9  and  S_10
REMARK    5  A    between atoms: S_10  and  C_13
REMARK    6  A    between atoms: C_18  and  C_19
REMARK    7  A    between atoms: N_20  and  C_25
REMARK    8  A    between atoms: C_25  and  C_26
REMARK    9  A    between atoms: C_28  and  C_31
REMARK                            x       y       z     vdW  Elec       q    Type
REMARK                         _______ _______ _______ _____ _____    ______ ____
ROOT
ATOM      1  C   UNL     1       2.468  -4.656  -0.850  0.00  0.00    +0.115 A 
ATOM      2  C   UNL     1       3.381  -5.667  -0.608  0.00  0.00    +0.076 A 
ATOM      3  C   UNL     1       4.704  -5.354  -0.352  0.00  0.00    +0.144 A 
ATOM      4  C   UNL     1       5.113  -4.021  -0.339  0.00  0.00    +0.079 A 
ATOM      5  C   UNL     1       4.194  -3.014  -0.584  0.00  0.00    +0.032 A 
ATOM      6  C   UNL     1       2.874  -3.335  -0.843  0.00  0.00    -0.022 A 
ATOM      7  C   UNL     1       1.874  -2.240  -1.115  0.00  0.00    +0.046 C 
ATOM      8  N   UNL     1       6.456  -3.718  -0.077  0.00  0.00    -0.258 N 
ATOM      9  C   UNL     1       7.377  -4.703  -0.155  0.00  0.00    +0.258 C 
ATOM     10  O   UNL     1       8.540  -4.471   0.097  0.00  0.00    -0.271 OA
ATOM     11  C   UNL     1       6.952  -6.093  -0.557  0.00  0.00    +0.325 C 
ATOM     12  O   UNL     1       5.615  -6.335  -0.112  0.00  0.00    -0.481 OA
ENDROOT
BRANCH   1  13
ATOM     13  S   UNL     1       0.783  -5.055  -1.176  0.00  0.00    +0.073 S 
ATOM     14  O   UNL     1      -0.001  -4.229  -0.327  0.00  0.00    -0.150 OA
ATOM     15  O   UNL     1       0.691  -6.473  -1.158  0.00  0.00    -0.150 OA
BRANCH  13  16
ATOM     16  N   UNL     1       0.459  -4.579  -2.729  0.00  0.00    -0.216 N 
ATOM     17  H   UNL     1      -0.232  -3.921  -2.901  0.00  0.00    +0.174 HD
BRANCH  16  22
ATOM     18  C   UNL     1       3.391  -6.800  -7.046  0.00  0.00    +0.044 C 
ATOM     19  C   UNL     1       2.612  -6.210  -5.899  0.00  0.00    -0.050 A 
ATOM     20  C   UNL     1       2.296  -6.994  -4.803  0.00  0.00    +0.005 A 
ATOM     21  C   UNL     1       1.582  -6.456  -3.751  0.00  0.00    +0.025 A 
ATOM     22  C   UNL     1       1.182  -5.126  -3.792  0.00  0.00    +0.051 A 
ATOM     23  C   UNL     1       1.501  -4.342  -4.893  0.00  0.00    -0.028 A 
ATOM     24  C   UNL     1       2.220  -4.885  -5.941  0.00  0.00    +0.008 A 
ATOM     25  C   UNL     1       1.068  -2.900  -4.943  0.00  0.00    +0.046 C 
ENDBRANCH  16  22
ENDBRANCH  13  16
ENDBRANCH   1  13
BRANCH   8  26
ATOM     26  C   UNL     1       6.856  -2.353   0.276  0.00  0.00    +0.193 C 
BRANCH  26  27
ATOM     27  C   UNL     1       6.791  -2.182   1.772  0.00  0.00    +0.189 A 
ATOM     28  N   UNL     1       5.721  -1.774   2.462  0.00  0.00    -0.194 NA
ATOM     29  C   UNL     1       5.999  -1.733   3.736  0.00  0.00    +0.231 A 
ATOM     30  O   UNL     1       7.270  -2.118   3.900  0.00  0.00    -0.338 OA
ATOM     31  N   UNL     1       7.767  -2.412   2.603  0.00  0.00    -0.060 NA
BRANCH  29  32
ATOM     32  C   UNL     1       5.051  -1.323   4.834  0.00  0.00    +0.078 C 
ATOM     33  C   UNL     1       5.723  -0.518   5.959  0.00  0.00    +0.013 C 
ATOM     34  C   UNL     1       4.854  -1.318   6.943  0.00  0.00    +0.001 C 
ATOM     35  C   UNL     1       4.804  -2.425   5.877  0.00  0.00    +0.013 C 
ENDBRANCH  29  32
ENDBRANCH  26  27
ENDBRANCH   8  26
TORSDOF 6
