REMARK  Name = ZINC09404248
REMARK  4 active torsions:
REMARK  status: ('A' for Active; 'I' for Inactive)
REMARK    1  A    between atoms: N_9  and  S_10
REMARK    2  A    between atoms: S_10  and  C_13
REMARK    3  A    between atoms: C_16  and  C_19
REMARK    4  A    between atoms: N_21  and  C_22
REMARK                            x       y       z     vdW  Elec       q    Type
REMARK                         _______ _______ _______ _____ _____    ______ ____
ROOT
ATOM      1  C   UNL     1       2.397   0.035  -0.058  0.00  0.00    +0.109 A 
ATOM      2  C   UNL     1       1.208  -0.673  -0.044  0.00  0.00    +0.029 A 
ATOM      3  C   UNL     1       0.003  -0.004  -0.017  0.00  0.00    +0.015 A 
ATOM      4  C   UNL     1      -0.017   1.392  -0.006  0.00  0.00    +0.037 A 
ATOM      5  C   UNL     1       1.186   2.101  -0.021  0.00  0.00    +0.015 A 
ATOM      6  C   UNL     1       2.385   1.419  -0.047  0.00  0.00    +0.029 A 
ENDROOT
BRANCH   4   7
ATOM      7  C   UNL     1      -1.305   2.117   0.016  0.00  0.00    +0.248 C 
ATOM      8  O   UNL     1      -2.350   1.497   0.024  0.00  0.00    -0.270 OA
ATOM      9  N   UNL     1      -1.320   3.464   0.027  0.00  0.00    -0.281 N 
ATOM     10  H   UNL     1      -0.488   3.958   0.102  0.00  0.00    +0.155 HD
BRANCH   9  11
ATOM     11  C   UNL     1      -2.532   4.149  -0.069  0.00  0.00    +0.041 A 
ATOM     12  C   UNL     1      -3.630   3.560  -0.667  0.00  0.00    +0.024 A 
ATOM     13  C   UNL     1      -4.854   4.219  -0.778  0.00  0.00    +0.006 A 
ATOM     14  C   UNL     1      -5.006   5.483  -0.292  0.00  0.00    -0.039 A 
ATOM     15  C   UNL     1      -3.911   6.090   0.314  0.00  0.00    -0.010 A 
ATOM     16  C   UNL     1      -2.664   5.455   0.448  0.00  0.00    +0.004 A 
ATOM     17  C   UNL     1      -1.628   6.166   1.072  0.00  0.00    +0.010 A 
ATOM     18  C   UNL     1      -1.877   7.429   1.527  0.00  0.00    +0.001 A 
ATOM     19  C   UNL     1      -3.126   8.039   1.389  0.00  0.00    +0.004 A 
ATOM     20  C   UNL     1      -4.150   7.378   0.783  0.00  0.00    -0.039 A 
ATOM     21  C   UNL     1      -5.587   7.714   0.467  0.00  0.00    +0.040 C 
ATOM     22  C   UNL     1      -6.152   6.464  -0.242  0.00  0.00    +0.040 C 
ENDBRANCH   9  11
ENDBRANCH   4   7
BRANCH   1  23
ATOM     23  S   UNL     1       3.932  -0.829  -0.091  0.00  0.00    +0.075 S 
ATOM     24  O   UNL     1       4.906   0.053   0.450  0.00  0.00    -0.150 OA
ATOM     25  O   UNL     1       3.685  -2.118   0.454  0.00  0.00    -0.150 OA
BRANCH  23  34
ATOM     26  C   UNL     1       3.448  -4.177  -4.292  0.00  0.00    +0.000 A 
ATOM     27  C   UNL     1       2.961  -4.280  -3.001  0.00  0.00    +0.002 A 
ATOM     28  C   UNL     1       3.215  -3.283  -2.083  0.00  0.00    +0.025 A 
ATOM     29  C   UNL     1       3.970  -2.166  -2.447  0.00  0.00    +0.054 A 
ATOM     30  C   UNL     1       4.448  -2.071  -3.744  0.00  0.00    -0.023 A 
ATOM     31  C   UNL     1       4.190  -3.072  -4.661  0.00  0.00    +0.005 A 
ATOM     32  C   UNL     1       5.219  -0.777  -3.879  0.00  0.00    +0.058 C 
ATOM     33  C   UNL     1       5.124  -0.124  -2.490  0.00  0.00    +0.136 C 
ATOM     34  N   UNL     1       4.332  -1.056  -1.682  0.00  0.00    -0.202 N 
ENDBRANCH  23  34
ENDBRANCH   1  23
TORSDOF 4
