REMARK  Name = ZINC43052310
REMARK  9 active torsions:
REMARK  status: ('A' for Active; 'I' for Inactive)
REMARK    1  A    between atoms: C_1  and  C_2
REMARK    2  A    between atoms: C_2  and  C_3
REMARK    3  A    between atoms: C_2  and  C_4
REMARK    4  A    between atoms: C_4  and  C_6
REMARK    5  A    between atoms: C_4  and  S_16
REMARK    6  A    between atoms: N_8  and  C_9
REMARK    7  A    between atoms: S_16  and  C_17
REMARK    8  A    between atoms: N_21  and  C_22
REMARK    9  A    between atoms: C_22  and  C_23
REMARK                            x       y       z     vdW  Elec       q    Type
REMARK                         _______ _______ _______ _____ _____    ______ ____
ROOT
ATOM      1  C   UNL     1       0.740  -0.503   1.223  0.00  0.00    +0.143 C 
ENDROOT
BRANCH   1   2
ATOM      2  C   UNL     1       2.155   0.013   1.224  0.00  0.00    +0.231 C 
ATOM      3  O   UNL     1       3.050  -0.669   0.772  0.00  0.00    -0.274 OA
ATOM      4  N   UNL     1       2.427   1.234   1.728  0.00  0.00    -0.282 N 
ATOM      5  H   UNL     1       1.704   1.805   2.031  0.00  0.00    +0.155 HD
BRANCH   4   6
ATOM      6  C   UNL     1       3.752   1.677   1.815  0.00  0.00    +0.069 A 
ATOM      7  C   UNL     1       4.672   1.313   0.841  0.00  0.00    +0.026 A 
ATOM      8  C   UNL     1       5.979   1.752   0.928  0.00  0.00    +0.002 A 
ATOM      9  C   UNL     1       6.373   2.552   1.985  0.00  0.00    +0.003 A 
ATOM     10  C   UNL     1       5.461   2.917   2.958  0.00  0.00    +0.040 A 
ATOM     11  C   UNL     1       4.149   2.486   2.873  0.00  0.00    +0.144 A 
ATOM     12  F   UNL     1       3.256   2.847   3.821  0.00  0.00    -0.204 F 
ENDBRANCH   4   6
ENDBRANCH   1   2
BRANCH   1  14
ATOM     13  C   UNL     1      -0.006   1.540  -0.006  0.00  0.00    +0.009 C 
ATOM     14  C   UNL     1       0.010   0.010  -0.020  0.00  0.00    +0.005 C 
ATOM     15  C   UNL     1       0.734  -0.481  -1.275  0.00  0.00    +0.009 C 
ENDBRANCH   1  14
BRANCH   1  16
ATOM     16  S   UNL     1       0.759  -2.317   1.207  0.00  0.00    -0.073 S 
BRANCH  16  17
ATOM     17  C   UNL     1      -0.940  -2.763   1.356  0.00  0.00    +0.193 A 
ATOM     18  N   UNL     1      -1.958  -1.938   1.448  0.00  0.00    -0.123 NA
ATOM     19  N   UNL     1      -3.052  -2.606   1.544  0.00  0.00    -0.137 NA
ATOM     20  C   UNL     1      -2.801  -3.884   1.518  0.00  0.00    +0.226 A 
ATOM     21  N   UNL     1      -1.447  -4.030   1.391  0.00  0.00    -0.301 N 
BRANCH  21  22
ATOM     22  C   UNL     1      -0.696  -5.285   1.313  0.00  0.00    +0.199 C 
BRANCH  22  23
ATOM     23  C   UNL     1      -0.206  -5.664   2.687  0.00  0.00    +0.125 A 
ATOM     24  C   UNL     1      -0.868  -6.426   3.576  0.00  0.00    +0.046 A 
ATOM     25  C   UNL     1      -0.047  -6.524   4.723  0.00  0.00    +0.041 A 
ATOM     26  C   UNL     1       1.067  -5.816   4.467  0.00  0.00    +0.195 A 
ATOM     27  O   UNL     1       0.968  -5.301   3.230  0.00  0.00    -0.466 OA
ENDBRANCH  22  23
ENDBRANCH  21  22
ENDBRANCH  16  17
ENDBRANCH   1  16
TORSDOF 7
