REMARK  Name = ZINC45747808
REMARK  11 active torsions:
REMARK  status: ('A' for Active; 'I' for Inactive)
REMARK    1  A    between atoms: C_1  and  C_2
REMARK    2  A    between atoms: C_2  and  C_3
REMARK    3  A    between atoms: C_2  and  C_4
REMARK    4  A    between atoms: C_2  and  C_5
REMARK    5  A    between atoms: C_10  and  O_11
REMARK    6  A    between atoms: O_11  and  C_12
REMARK    7  A    between atoms: C_12  and  C_13
REMARK    8  A    between atoms: C_13  and  C_15
REMARK    9  A    between atoms: C_13  and  O_33
REMARK   10  A    between atoms: C_15  and  N_16
REMARK   11  A    between atoms: C_19  and  N_22
REMARK                            x       y       z     vdW  Elec       q    Type
REMARK                         _______ _______ _______ _____ _____    ______ ____
ROOT
ATOM      1  N   UNL     1      -0.691  -7.268   0.867  0.00  0.00    +0.382 N 
ATOM      2  C   UNL     1      -2.121  -6.937   0.851  0.00  0.00    -0.077 C 
ATOM      3  C   UNL     1      -2.841  -7.715   1.954  0.00  0.00    +0.006 C 
ATOM      4  C   UNL     1      -2.660  -9.216   1.714  0.00  0.00    +0.089 C 
ATOM      5  C   UNL     1      -1.164  -9.538   1.658  0.00  0.00    +0.006 C 
ATOM      6  C   UNL     1      -0.506  -8.693   0.565  0.00  0.00    -0.077 C 
ATOM      7  H   UNL     1      -0.311  -7.066   1.779  0.00  0.00    -0.082 HD
ENDROOT
BRANCH   4   8
ATOM      8  N   UNL     1      -3.282  -9.966   2.808  0.00  0.00    -0.289 N 
ATOM      9  C   UNL     1      -4.312 -10.895   2.678  0.00  0.00    +0.070 A 
ATOM     10  C   UNL     1      -5.026 -11.378   1.591  0.00  0.00    +0.028 A 
ATOM     11  C   UNL     1      -6.016 -12.321   1.784  0.00  0.00    +0.002 A 
ATOM     12  C   UNL     1      -6.299 -12.786   3.057  0.00  0.00    +0.002 A 
ATOM     13  C   UNL     1      -5.593 -12.311   4.145  0.00  0.00    +0.028 A 
ATOM     14  C   UNL     1      -4.597 -11.364   3.961  0.00  0.00    +0.067 A 
ATOM     15  N   UNL     1      -3.731 -10.707   4.832  0.00  0.00    -0.306 N 
ATOM     16  H   UNL     1      -3.693 -10.827   5.794  0.00  0.00    +0.170 HD
ATOM     17  C   UNL     1      -2.951  -9.880   4.110  0.00  0.00    +0.328 A 
ATOM     18  O   UNL     1      -2.082  -9.160   4.566  0.00  0.00    -0.247 OA
ENDBRANCH   4   8
BRANCH   1  19
ATOM     19  C   UNL     1       0.008  -6.461  -0.142  0.00  0.00    -0.044 C 
BRANCH  19  20
ATOM     20  C   UNL     1      -0.078  -4.982   0.238  0.00  0.00    +0.135 C 
BRANCH  20  21
ATOM     21  O   UNL     1       0.633  -4.761   1.458  0.00  0.00    -0.390 OA
ATOM     22  H   UNL     1       1.572  -4.990   1.412  0.00  0.00    +0.210 HD
ENDBRANCH  20  21
BRANCH  20  23
ATOM     23  C   UNL     1       0.540  -4.132  -0.874  0.00  0.00    +0.258 C 
BRANCH  23  24
ATOM     24  O   UNL     1       0.356  -2.747  -0.573  0.00  0.00    -0.489 OA
BRANCH  24  30
ATOM     25  C   UNL     1       0.707  -0.490  -1.238  0.00  0.00    -0.000 A 
ATOM     26  C   UNL     1       1.217   0.419  -2.145  0.00  0.00    +0.008 A 
ATOM     27  C   UNL     1       1.863  -0.026  -3.283  0.00  0.00    +0.001 A 
ATOM     28  C   UNL     1       2.003  -1.382  -3.516  0.00  0.00    +0.004 A 
ATOM     29  C   UNL     1       1.496  -2.295  -2.612  0.00  0.00    +0.046 A 
ATOM     30  C   UNL     1       0.851  -1.851  -1.467  0.00  0.00    +0.124 A 
BRANCH  25  32
ATOM     31  C   UNL     1      -0.019   1.526   0.010  0.00  0.00    +0.015 C 
ATOM     32  C   UNL     1       0.002  -0.004   0.002  0.00  0.00    -0.009 C 
ATOM     33  C   UNL     1       0.742  -0.511   1.242  0.00  0.00    +0.015 C 
ATOM     34  C   UNL     1      -1.433  -0.534   0.013  0.00  0.00    +0.015 C 
ENDBRANCH  25  32
ENDBRANCH  24  30
ENDBRANCH  23  24
ENDBRANCH  20  23
ENDBRANCH  19  20
ENDBRANCH   1  19
TORSDOF 8
