REMARK  Name = ZINC40475423
REMARK  3 active torsions:
REMARK  status: ('A' for Active; 'I' for Inactive)
REMARK    1  A    between atoms: C_4  and  O_32
REMARK    2  A    between atoms: C_5  and  C_7
REMARK    3  A    between atoms: N_22  and  C_25
REMARK                            x       y       z     vdW  Elec       q    Type
REMARK                         _______ _______ _______ _____ _____    ______ ____
ROOT
ATOM      1  C   UNL     1       1.375  -2.176   0.168  0.00  0.00    +0.075 C 
ATOM      2  C   UNL     1       0.788  -2.795  -1.066  0.00  0.00    +0.032 A 
ATOM      3  C   UNL     1      -0.445  -3.353  -1.257  0.00  0.00    +0.110 A 
ATOM      4  N   UNL     1      -0.654  -3.845  -2.476  0.00  0.00    -0.225 NA
ATOM      5  C   UNL     1       0.260  -3.774  -3.421  0.00  0.00    +0.147 A 
ATOM      6  S   UNL     1       0.166  -4.359  -5.080  0.00  0.00    -0.023 SA
ATOM      7  S   UNL     1       1.540  -2.987  -2.660  0.00  0.00    -0.063 S 
ATOM      8  S   UNL     1      -1.651  -3.379   0.060  0.00  0.00    -0.091 S 
ATOM      9  C   UNL     1      -0.887  -2.210   1.214  0.00  0.00    +0.152 C 
ATOM     10  C   UNL     1       0.597  -2.664   1.365  0.00  0.00    +0.110 C 
ATOM     11  C   UNL     1       0.919  -2.110   2.717  0.00  0.00    +0.232 C 
ATOM     12  O   UNL     1       2.001  -1.732   3.110  0.00  0.00    -0.274 OA
ATOM     13  N   UNL     1      -0.247  -2.116   3.414  0.00  0.00    -0.209 N 
ATOM     14  C   UNL     1      -1.362  -2.330   2.636  0.00  0.00    +0.240 C 
ATOM     15  O   UNL     1      -2.489  -2.578   3.009  0.00  0.00    -0.274 OA
ENDROOT
BRANCH  13  16
ATOM     16  C   UNL     1      -0.315  -1.903   4.798  0.00  0.00    +0.044 A 
ATOM     17  C   UNL     1       0.845  -1.666   5.523  0.00  0.00    +0.025 A 
ATOM     18  C   UNL     1       0.775  -1.456   6.886  0.00  0.00    +0.017 A 
ATOM     19  C   UNL     1      -0.449  -1.482   7.530  0.00  0.00    +0.018 A 
ATOM     20  C   UNL     1      -1.607  -1.718   6.810  0.00  0.00    +0.017 A 
ATOM     21  C   UNL     1      -1.543  -1.922   5.446  0.00  0.00    +0.025 A 
ATOM     22 BR   UNL     1      -0.541  -1.195   9.397  0.00  0.00    -0.050 Br
ENDBRANCH  13  16
BRANCH   1  27
ATOM     23  C   UNL     1       2.126   1.495   0.631  0.00  0.00    +0.001 A 
ATOM     24  C   UNL     1       1.100   2.083  -0.086  0.00  0.00    +0.004 A 
ATOM     25  C   UNL     1       0.161   1.295  -0.723  0.00  0.00    +0.046 A 
ATOM     26  C   UNL     1       0.248  -0.087  -0.642  0.00  0.00    +0.121 A 
ATOM     27  C   UNL     1       1.278  -0.674   0.078  0.00  0.00    +0.003 A 
ATOM     28  C   UNL     1       2.215   0.118   0.713  0.00  0.00    +0.008 A 
BRANCH  26  29
ATOM     29  O   UNL     1      -0.675  -0.865  -1.267  0.00  0.00    -0.506 OA
ATOM     30  H   UNL     1      -0.484  -1.027  -2.201  0.00  0.00    +0.292 HD
ENDBRANCH  26  29
ENDBRANCH   1  27
TORSDOF 3
