REMARK  Name = ZINC39563839
REMARK  11 active torsions:
REMARK  status: ('A' for Active; 'I' for Inactive)
REMARK    1  A    between atoms: C_1  and  C_2
REMARK    2  A    between atoms: C_5  and  N_31
REMARK    3  A    between atoms: C_7  and  S_8
REMARK    4  A    between atoms: S_8  and  N_11
REMARK    5  A    between atoms: C_14  and  C_17
REMARK    6  A    between atoms: C_22  and  C_25
REMARK    7  A    between atoms: C_25  and  N_26
REMARK    8  A    between atoms: N_26  and  C_27
REMARK    9  A    between atoms: N_26  and  C_28
REMARK   10  A    between atoms: C_28  and  C_29
REMARK   11  A    between atoms: C_28  and  C_30
REMARK                            x       y       z     vdW  Elec       q    Type
REMARK                         _______ _______ _______ _____ _____    ______ ____
ROOT
ATOM      1  N   UNL     1       1.873   0.545   2.980  0.00  0.00    -0.177 NA
ATOM      2  C   UNL     1       3.327   0.366   3.079  0.00  0.00    +0.110 C 
ATOM      3  C   UNL     1       3.864   1.288   4.178  0.00  0.00    +0.030 C 
ATOM      4  C   UNL     1       3.427   2.726   3.892  0.00  0.00    +0.078 C 
ATOM      5  C   UNL     1       1.898   2.806   3.897  0.00  0.00    +0.030 C 
ATOM      6  C   UNL     1       1.339   1.901   2.789  0.00  0.00    +0.110 C 
ENDROOT
BRANCH   4   7
ATOM      7  C   UNL     1       3.982   3.640   4.953  0.00  0.00    +0.219 C 
ATOM      8  O   UNL     1       4.087   3.249   6.096  0.00  0.00    -0.275 OA
ATOM      9  N   UNL     1       4.361   4.893   4.631  0.00  0.00    -0.301 N 
ATOM     10  C   UNL     1       4.125   5.424   3.282  0.00  0.00    +0.108 C 
ATOM     11  C   UNL     1       3.367   6.750   3.399  0.00  0.00    +0.021 C 
ATOM     12  C   UNL     1       4.141   7.696   4.320  0.00  0.00    -0.025 C 
ATOM     13  C   UNL     1       4.249   7.077   5.715  0.00  0.00    +0.021 C 
ATOM     14  C   UNL     1       5.012   5.757   5.626  0.00  0.00    +0.108 C 
BRANCH  12  15
ATOM     15  C   UNL     1       3.404   9.034   4.412  0.00  0.00    -0.075 C 
BRANCH  15  16
ATOM     16  N   UNL     1       4.206   9.981   5.198  0.00  0.00    +0.380 N 
ATOM     17  C   UNL     1       5.456  10.274   4.484  0.00  0.00    -0.096 C 
ATOM     18  H   UNL     1       4.419   9.576   6.097  0.00  0.00    -0.082 HD
BRANCH  16  19
ATOM     19  C   UNL     1       3.448  11.225   5.387  0.00  0.00    -0.075 C 
ATOM     20  C   UNL     1       2.145  10.920   6.130  0.00  0.00    -0.014 C 
ATOM     21  C   UNL     1       4.283  12.212   6.206  0.00  0.00    -0.014 C 
ENDBRANCH  16  19
ENDBRANCH  15  16
ENDBRANCH  12  15
ENDBRANCH   4   7
BRANCH   1  22
ATOM     22  S   UNL     1       0.853  -0.756   3.075  0.00  0.00    +0.061 S 
ATOM     23  O   UNL     1      -0.407  -0.255   3.498  0.00  0.00    -0.153 OA
ATOM     24  O   UNL     1       1.551  -1.767   3.790  0.00  0.00    -0.153 OA
BRANCH  22  31
ATOM     25  C   UNL     1      -0.506   0.792   0.860  0.00  0.00    +0.046 C 
ATOM     26  C   UNL     1      -0.006  -0.580   0.490  0.00  0.00    -0.024 A 
ATOM     27  C   UNL     1      -0.177  -1.054  -0.798  0.00  0.00    +0.007 A 
ATOM     28  C   UNL     1       0.282  -2.312  -1.138  0.00  0.00    +0.033 A 
ATOM     29  C   UNL     1       0.912  -3.098  -0.190  0.00  0.00    +0.128 A 
ATOM     30  C   UNL     1       1.084  -2.624   1.097  0.00  0.00    +0.061 A 
ATOM     31  C   UNL     1       0.629  -1.363   1.436  0.00  0.00    +0.111 A 
BRANCH  29  32
ATOM     32  N   UNL     1       1.403  -4.446  -0.554  0.00  0.00    +0.056 N 
ATOM     33  O   UNL     1       1.252  -4.861  -1.680  0.00  0.00    -0.126 OA
ATOM     34  O   UNL     1       1.954  -5.133   0.275  0.00  0.00    -0.126 OA
ENDBRANCH  29  32
ENDBRANCH  22  31
ENDBRANCH   1  22
TORSDOF 7
