REMARK  Name = ZINC34708001
REMARK  5 active torsions:
REMARK  status: ('A' for Active; 'I' for Inactive)
REMARK    1  A    between atoms: C_1  and  C_2
REMARK    2  A    between atoms: N_8  and  C_9
REMARK    3  A    between atoms: C_9  and  C_10
REMARK    4  A    between atoms: C_15  and  C_16
REMARK    5  A    between atoms: C_30  and  C_33
REMARK                            x       y       z     vdW  Elec       q    Type
REMARK                         _______ _______ _______ _____ _____    ______ ____
ROOT
ATOM      1  C   UNL     1      -1.614  -0.065   5.468  0.00  0.00    -0.012 C 
ATOM      2  C   UNL     1      -2.190  -0.242   4.061  0.00  0.00    -0.054 C 
ATOM      3  C   UNL     1      -3.380  -1.207   4.115  0.00  0.00    +0.092 C 
ATOM      4  N   UNL     1      -3.834  -1.464   2.739  0.00  0.00    -0.304 N 
ATOM      5  C   UNL     1      -2.829  -1.861   1.740  0.00  0.00    +0.089 C 
ATOM      6  C   UNL     1      -1.666  -0.865   1.799  0.00  0.00    -0.059 C 
ATOM      7  N   UNL     1      -1.156  -0.790   3.174  0.00  0.00    +0.386 N 
ATOM      8  C   UNL     1      -5.158  -1.337   2.397  0.00  0.00    +0.206 A 
ATOM      9  N   UNL     1      -6.051  -1.300   3.352  0.00  0.00    -0.215 NA
ATOM     10  C   UNL     1      -7.377  -1.177   3.095  0.00  0.00    +0.078 A 
ATOM     11  C   UNL     1      -8.317  -1.139   4.128  0.00  0.00    +0.028 A 
ATOM     12  C   UNL     1      -9.655  -1.012   3.830  0.00  0.00    +0.002 A 
ATOM     13  C   UNL     1     -10.086  -0.922   2.514  0.00  0.00    +0.001 A 
ATOM     14  C   UNL     1      -9.178  -0.957   1.477  0.00  0.00    +0.014 A 
ATOM     15  C   UNL     1      -7.819  -1.084   1.756  0.00  0.00    +0.045 A 
ATOM     16  C   UNL     1      -6.808  -1.127   0.694  0.00  0.00    +0.173 A 
ATOM     17  N   UNL     1      -5.488  -1.249   1.073  0.00  0.00    -0.244 N 
ATOM     18  C   UNL     1      -4.771  -1.256  -0.097  0.00  0.00    +0.206 A 
ATOM     19  N   UNL     1      -5.638  -1.138  -1.084  0.00  0.00    -0.125 NA
ATOM     20  N   UNL     1      -6.835  -1.071  -0.617  0.00  0.00    -0.128 NA
ATOM     21  H   UNL     1      -0.901  -1.714   3.488  0.00  0.00    -0.081 HD
ENDROOT
BRANCH  18  22
ATOM     22  C   UNL     1      -3.311  -1.372  -0.225  0.00  0.00    +0.172 A 
ATOM     23  C   UNL     1      -2.646  -2.225  -1.055  0.00  0.00    +0.053 A 
ATOM     24  C   UNL     1      -1.271  -1.998  -0.852  0.00  0.00    +0.042 A 
ATOM     25  C   UNL     1      -1.163  -1.030   0.080  0.00  0.00    +0.196 A 
ATOM     26  O   UNL     1      -2.396  -0.649   0.452  0.00  0.00    -0.460 OA
ENDBRANCH  18  22
BRANCH   7  27
ATOM     27  C   UNL     1       0.027   0.080   3.209  0.00  0.00    -0.042 C 
BRANCH  27  28
ATOM     28  C   UNL     1       1.053  -0.505   4.145  0.00  0.00    -0.052 A 
ATOM     29  C   UNL     1       0.686  -1.489   5.045  0.00  0.00    +0.002 A 
ATOM     30  C   UNL     1       1.627  -2.025   5.904  0.00  0.00    +0.000 A 
ATOM     31  C   UNL     1       2.935  -1.578   5.863  0.00  0.00    +0.001 A 
ATOM     32  C   UNL     1       3.301  -0.595   4.963  0.00  0.00    +0.012 A 
ATOM     33  C   UNL     1       2.361  -0.062   4.101  0.00  0.00    +0.056 A 
BRANCH  33  34
ATOM     34  C   UNL     1       2.762   1.006   3.116  0.00  0.00    +0.418 C 
ATOM     35  F   UNL     1       4.084   1.393   3.360  0.00  0.00    -0.166 F 
ATOM     36  F   UNL     1       2.656   0.504   1.815  0.00  0.00    -0.166 F 
ATOM     37  F   UNL     1       1.919   2.113   3.259  0.00  0.00    -0.166 F 
ENDBRANCH  33  34
ENDBRANCH  27  28
ENDBRANCH   7  27
TORSDOF 4
