REMARK  Name = ZINC10249433
REMARK  10 active torsions:
REMARK  status: ('A' for Active; 'I' for Inactive)
REMARK    1  A    between atoms: C_1  and  C_2
REMARK    2  A    between atoms: C_5  and  S_8
REMARK    3  A    between atoms: S_8  and  C_9
REMARK    4  A    between atoms: C_9  and  C_10
REMARK    5  A    between atoms: C_10  and  C_12
REMARK    6  A    between atoms: C_10  and  C_13
REMARK    7  A    between atoms: C_13  and  N_14
REMARK    8  A    between atoms: N_22  and  C_39
REMARK    9  A    between atoms: C_29  and  C_32
REMARK   10  A    between atoms: C_32  and  C_33
REMARK                            x       y       z     vdW  Elec       q    Type
REMARK                         _______ _______ _______ _____ _____    ______ ____
ROOT
ATOM      1  N   UNL     1      -0.576   1.446   1.512  0.00  0.00    -0.306 N 
ATOM      2  C   UNL     1      -0.328   2.685   2.087  0.00  0.00    +0.153 A 
ATOM      3  C   UNL     1       0.673   3.660   1.932  0.00  0.00    +0.280 A 
ATOM      4  O   UNL     1       1.590   3.482   1.149  0.00  0.00    -0.265 OA
ATOM      5  N   UNL     1       0.612   4.793   2.663  0.00  0.00    -0.273 N 
ATOM      6  H   UNL     1       1.324   5.486   2.557  0.00  0.00    +0.173 HD
ATOM      7  C   UNL     1      -0.393   5.002   3.530  0.00  0.00    +0.331 A 
ATOM      8  O   UNL     1      -0.416   6.035   4.173  0.00  0.00    -0.246 OA
ATOM      9  N   UNL     1      -1.374   4.097   3.707  0.00  0.00    -0.280 N 
ATOM     10  C   UNL     1      -1.365   2.915   2.985  0.00  0.00    +0.170 A 
ATOM     11  N   UNL     1      -2.176   1.856   2.942  0.00  0.00    -0.196 NA
ATOM     12  C   UNL     1      -1.721   0.976   2.073  0.00  0.00    +0.201 A 
ATOM     13  N   UNL     1      -2.313  -0.231   1.780  0.00  0.00    -0.301 N 
ATOM     14  C   UNL     1      -2.963  -0.192   0.464  0.00  0.00    +0.108 C 
ATOM     15  C   UNL     1      -3.482  -1.587   0.108  0.00  0.00    +0.023 C 
ATOM     16  C   UNL     1      -4.479  -2.043   1.177  0.00  0.00    -0.004 C 
ATOM     17  C   UNL     1      -3.791  -2.028   2.545  0.00  0.00    +0.023 C 
ATOM     18  C   UNL     1      -3.263  -0.620   2.830  0.00  0.00    +0.108 C 
ATOM     19  C   UNL     1      -2.452   4.363   4.663  0.00  0.00    +0.155 C 
ENDROOT
BRANCH   1  20
ATOM     20  C   UNL     1       0.243   0.772   0.501  0.00  0.00    +0.129 C 
BRANCH  20  21
ATOM     21  C   UNL     1       1.204  -0.200   1.188  0.00  0.00    +0.016 C 
ATOM     22  C   UNL     1       2.203   0.586   2.039  0.00  0.00    +0.010 C 
BRANCH  21  23
ATOM     23  C   UNL     1       1.959  -1.005   0.128  0.00  0.00    +0.079 C 
BRANCH  23  24
ATOM     24  S   UNL     1       2.988  -2.258   0.940  0.00  0.00    -0.125 S 
BRANCH  24  29
ATOM     25  C   UNL     1       5.707  -5.104  -3.637  0.00  0.00    +0.044 C 
ATOM     26  C   UNL     1       5.028  -4.393  -2.494  0.00  0.00    -0.050 A 
ATOM     27  C   UNL     1       5.284  -4.781  -1.192  0.00  0.00    +0.004 A 
ATOM     28  C   UNL     1       4.664  -4.133  -0.142  0.00  0.00    +0.015 A 
ATOM     29  C   UNL     1       3.782  -3.089  -0.396  0.00  0.00    +0.008 A 
ATOM     30  C   UNL     1       3.523  -2.706  -1.707  0.00  0.00    +0.015 A 
ATOM     31  C   UNL     1       4.152  -3.355  -2.751  0.00  0.00    +0.004 A 
ENDBRANCH  24  29
ENDBRANCH  23  24
ENDBRANCH  21  23
ENDBRANCH  20  21
ENDBRANCH   1  20
BRANCH  16  32
ATOM     32  C   UNL     1      -4.958  -3.461   0.861  0.00  0.00    +0.038 C 
BRANCH  32  33
ATOM     33  C   UNL     1      -5.741  -3.452  -0.426  0.00  0.00    -0.047 A 
ATOM     34  C   UNL     1      -7.108  -3.251  -0.402  0.00  0.00    +0.003 A 
ATOM     35  C   UNL     1      -7.826  -3.238  -1.583  0.00  0.00    +0.000 A 
ATOM     36  C   UNL     1      -7.178  -3.436  -2.788  0.00  0.00    +0.000 A 
ATOM     37  C   UNL     1      -5.812  -3.642  -2.812  0.00  0.00    +0.000 A 
ATOM     38  C   UNL     1      -5.093  -3.651  -1.631  0.00  0.00    +0.003 A 
ENDBRANCH  32  33
ENDBRANCH  16  32
TORSDOF 7
