REMARK  Name = ZINC40036788
REMARK  6 active torsions:
REMARK  status: ('A' for Active; 'I' for Inactive)
REMARK    1  A    between atoms: C_1  and  C_2
REMARK    2  A    between atoms: C_2  and  O_3
REMARK    3  A    between atoms: O_3  and  C_4
REMARK    4  A    between atoms: C_7  and  N_10
REMARK    5  A    between atoms: N_17  and  N_18
REMARK    6  A    between atoms: C_19  and  C_20
REMARK                            x       y       z     vdW  Elec       q    Type
REMARK                         _______ _______ _______ _____ _____    ______ ____
ROOT
ATOM      1  N   UNL     1       1.098  -5.938  -1.836  0.00  0.00    -0.248 N 
ATOM      2  C   UNL     1       1.638  -6.439  -2.969  0.00  0.00    +0.264 A 
ATOM      3  O   UNL     1       2.009  -5.697  -3.864  0.00  0.00    -0.267 OA
ATOM      4  C   UNL     1       1.762  -7.829  -3.093  0.00  0.00    +0.050 A 
ATOM      5  C   UNL     1       1.331  -8.636  -2.053  0.00  0.00    +0.084 A 
ATOM      6  N   UNL     1       0.775  -8.086  -0.967  0.00  0.00    -0.214 NA
ATOM      7  C   UNL     1       0.666  -6.778  -0.852  0.00  0.00    +0.223 A 
ATOM      8  N   UNL     1       0.103  -6.250   0.280  0.00  0.00    -0.206 N 
ATOM      9  C   UNL     1       1.522 -10.101  -2.151  0.00  0.00    +0.004 A 
ATOM     10  C   UNL     1       0.845 -10.966  -1.294  0.00  0.00    +0.010 A 
ATOM     11  C   UNL     1       1.023 -12.329  -1.418  0.00  0.00    +0.001 A 
ATOM     12  C   UNL     1       1.870 -12.832  -2.390  0.00  0.00    +0.000 A 
ATOM     13  C   UNL     1       2.550 -11.976  -3.237  0.00  0.00    +0.004 A 
ATOM     14  C   UNL     1       2.388 -10.611  -3.116  0.00  0.00    -0.037 A 
ATOM     15  C   UNL     1       3.167  -9.675  -4.001  0.00  0.00    +0.047 C 
ATOM     16  C   UNL     1       2.338  -8.438  -4.343  0.00  0.00    +0.007 C 
ATOM     17  C   UNL     1       3.231  -7.407  -5.041  0.00  0.00    +0.012 C 
ATOM     18  C   UNL     1       3.816  -8.020  -6.314  0.00  0.00    +0.001 C 
ATOM     19  C   UNL     1       2.679  -8.424  -7.255  0.00  0.00    +0.000 C 
ATOM     20  C   UNL     1       1.782  -9.449  -6.559  0.00  0.00    +0.001 C 
ATOM     21  C   UNL     1       1.198  -8.836  -5.285  0.00  0.00    +0.012 C 
ATOM     22  H   UNL     1      -0.050  -5.295   0.344  0.00  0.00    +0.177 HD
ENDROOT
BRANCH   1  26
ATOM     23  C   UNL     1       0.765  -1.811  -1.341  0.00  0.00    +0.121 A 
ATOM     24  C   UNL     1      -0.265  -2.523  -1.938  0.00  0.00    +0.047 A 
ATOM     25  C   UNL     1      -0.155  -3.889  -2.103  0.00  0.00    +0.030 A 
ATOM     26  C   UNL     1       0.986  -4.551  -1.670  0.00  0.00    +0.053 A 
ATOM     27  C   UNL     1       2.017  -3.838  -1.072  0.00  0.00    +0.030 A 
ATOM     28  C   UNL     1       1.908  -2.471  -0.913  0.00  0.00    +0.047 A 
BRANCH  23  29
ATOM     29  O   UNL     1       0.657  -0.465  -1.180  0.00  0.00    -0.492 OA
BRANCH  29  31
ATOM     30  C   UNL     1      -0.487   1.654  -1.378  0.00  0.00    +0.048 C 
ATOM     31  C   UNL     1      -0.547   0.149  -1.643  0.00  0.00    +0.225 C 
ENDBRANCH  29  31
ENDBRANCH  23  29
ENDBRANCH   1  26
BRANCH   8  32
ATOM     32  N   UNL     1      -0.252  -7.090   1.343  0.00  0.00    -0.187 NA
ATOM     33  C   UNL     1      -0.787  -6.589   2.417  0.00  0.00    +0.145 C 
BRANCH  33  34
ATOM     34  C   UNL     1      -1.159  -7.469   3.530  0.00  0.00    +0.032 A 
ATOM     35  C   UNL     1      -1.739  -7.143   4.744  0.00  0.00    +0.017 A 
ATOM     36  C   UNL     1      -1.997  -8.156   5.638  0.00  0.00    +0.008 A 
ATOM     37  C   UNL     1      -1.677  -9.434   5.306  0.00  0.00    +0.046 A 
ATOM     38  S   UNL     1      -0.990  -9.241   3.670  0.00  0.00    -0.096 S 
ENDBRANCH  33  34
ENDBRANCH   8  32
TORSDOF 5
