REMARK  Name = ZINC43010077
REMARK  3 active torsions:
REMARK  status: ('A' for Active; 'I' for Inactive)
REMARK    1  A    between atoms: N_7  and  C_17
REMARK    2  A    between atoms: C_17  and  C_18
REMARK    3  A    between atoms: N_20  and  C_21
REMARK                            x       y       z     vdW  Elec       q    Type
REMARK                         _______ _______ _______ _____ _____    ______ ____
ROOT
ATOM      1  C   UNL     1       0.401  -3.575  -1.453  0.00  0.00    +0.235 C 
ATOM      2  O   UNL     1       1.089  -3.043  -2.298  0.00  0.00    -0.274 OA
ATOM      3  N   UNL     1      -0.450  -4.561  -1.799  0.00  0.00    -0.284 N 
ATOM      4  H   UNL     1      -0.951  -5.032  -1.115  0.00  0.00    +0.155 HD
ENDROOT
BRANCH   3   5
ATOM      5  C   UNL     1      -0.612  -4.904  -3.146  0.00  0.00    +0.034 A 
ATOM      6  C   UNL     1       0.471  -4.850  -4.014  0.00  0.00    +0.023 A 
ATOM      7  C   UNL     1       0.305  -5.190  -5.341  0.00  0.00    +0.006 A 
ATOM      8  C   UNL     1      -0.936  -5.584  -5.812  0.00  0.00    -0.043 A 
ATOM      9  C   UNL     1      -2.017  -5.640  -4.949  0.00  0.00    -0.041 A 
ATOM     10  C   UNL     1      -1.854  -5.306  -3.617  0.00  0.00    +0.027 A 
ATOM     11  C   UNL     1      -3.250  -6.099  -5.702  0.00  0.00    +0.056 C 
ATOM     12  C   UNL     1      -2.899  -5.918  -7.182  0.00  0.00    +0.083 C 
ATOM     13  C   UNL     1      -1.369  -5.999  -7.204  0.00  0.00    +0.056 C 
ATOM     14  C   UNL     1      -3.533  -6.966  -8.046  0.00  0.00    +0.008 A 
ATOM     15  C   UNL     1      -3.480  -8.343  -8.076  0.00  0.00    +0.009 A 
ATOM     16  C   UNL     1      -4.218  -9.012  -9.045  0.00  0.00    +0.020 A 
ATOM     17  C   UNL     1      -4.974  -8.274  -9.935  0.00  0.00    +0.113 A 
ATOM     18  N   UNL     1      -5.003  -6.959  -9.880  0.00  0.00    -0.240 NA
ATOM     19  C   UNL     1      -4.313  -6.276  -8.972  0.00  0.00    +0.129 A 
ATOM     20  N   UNL     1      -4.213  -4.904  -8.754  0.00  0.00    -0.269 N 
ATOM     21  C   UNL     1      -3.400  -4.608  -7.721  0.00  0.00    +0.230 C 
ATOM     22  O   UNL     1      -3.127  -3.501  -7.307  0.00  0.00    -0.274 OA
ATOM     23  H   UNL     1      -4.676  -4.238  -9.286  0.00  0.00    +0.156 HD
ENDBRANCH   3   5
BRANCH   1  24
ATOM     24  C   UNL     1       0.498  -3.134  -0.015  0.00  0.00    +0.201 C 
BRANCH  24  31
ATOM     25  C   UNL     1      -0.023   1.369   0.032  0.00  0.00    +0.004 A 
ATOM     26  C   UNL     1       1.155   2.092   0.021  0.00  0.00    +0.024 A 
ATOM     27  C   UNL     1       2.374   1.422  -0.034  0.00  0.00    +0.039 A 
ATOM     28  C   UNL     1       2.389   0.042  -0.097  0.00  0.00    -0.001 A 
ATOM     29  C   UNL     1       1.218  -0.691  -0.016  0.00  0.00    +0.035 A 
ATOM     30  C   UNL     1      -0.001  -0.010   0.018  0.00  0.00    +0.023 A 
ATOM     31  N   UNL     1       1.486  -2.058   0.100  0.00  0.00    -0.320 N 
ATOM     32  C   UNL     1       2.925  -2.237   0.357  0.00  0.00    +0.114 C 
ATOM     33  C   UNL     1       3.551  -0.940  -0.220  0.00  0.00    +0.040 C 
ATOM     34  C   UNL     1       3.818  -1.204  -1.704  0.00  0.00    +0.010 C 
ATOM     35  C   UNL     1       4.652  -0.101  -2.347  0.00  0.00    +0.010 C 
ATOM     36  C   UNL     1       3.963   1.256  -2.266  0.00  0.00    +0.096 C 
ATOM     37  C   UNL     1       4.463   1.994  -1.029  0.00  0.00    +0.217 C 
ATOM     38  O   UNL     1       5.595   2.423  -0.949  0.00  0.00    -0.275 OA
ATOM     39  N   UNL     1       3.568   2.141  -0.024  0.00  0.00    -0.285 N 
ATOM     40  H   UNL     1       3.758   2.751   0.706  0.00  0.00    +0.155 HD
ENDBRANCH  24  31
ENDBRANCH   1  24
TORSDOF 3
