REMARK  Name = ZINC57417140
REMARK  8 active torsions:
REMARK  status: ('A' for Active; 'I' for Inactive)
REMARK    1  A    between atoms: C_4  and  N_7
REMARK    2  A    between atoms: C_9  and  C_21
REMARK    3  A    between atoms: C_10  and  C_12
REMARK    4  A    between atoms: C_15  and  N_18
REMARK    5  A    between atoms: N_22  and  N_23
REMARK    6  A    between atoms: C_24  and  C_26
REMARK    7  A    between atoms: C_26  and  O_27
REMARK    8  A    between atoms: O_27  and  C_28
REMARK                            x       y       z     vdW  Elec       q    Type
REMARK                         _______ _______ _______ _____ _____    ______ ____
ROOT
ATOM      1  N   UNL     1       3.618  -0.685   0.106  0.00  0.00    -0.239 N 
ATOM      2  C   UNL     1       3.817  -2.019   0.138  0.00  0.00    +0.124 A 
ATOM      3  C   UNL     1       5.143  -2.255  -0.095  0.00  0.00    +0.040 A 
ATOM      4  C   UNL     1       5.776  -0.946  -0.279  0.00  0.00    +0.102 A 
ATOM      5  N   UNL     1       4.831  -0.040  -0.157  0.00  0.00    -0.166 NA
ENDROOT
BRANCH   1   9
ATOM      6  C   UNL     1      -0.045   1.218   0.682  0.00  0.00    +0.000 A 
ATOM      7  C   UNL     1       1.090   1.967   0.429  0.00  0.00    +0.002 A 
ATOM      8  C   UNL     1       2.305   1.339   0.238  0.00  0.00    +0.028 A 
ATOM      9  C   UNL     1       2.387  -0.045   0.300  0.00  0.00    +0.065 A 
ATOM     10  C   UNL     1       1.246  -0.795   0.554  0.00  0.00    +0.028 A 
ATOM     11  C   UNL     1       0.034  -0.162   0.744  0.00  0.00    +0.002 A 
ENDBRANCH   1   9
BRANCH   4  12
ATOM     12  C   UNL     1       7.210  -0.692  -0.556  0.00  0.00    +0.003 A 
ATOM     13  C   UNL     1       7.886  -1.459  -1.504  0.00  0.00    +0.012 A 
ATOM     14  C   UNL     1       9.221  -1.217  -1.758  0.00  0.00    +0.033 A 
ATOM     15  C   UNL     1       9.888  -0.216  -1.075  0.00  0.00    +0.126 A 
ATOM     16  C   UNL     1       9.222   0.548  -0.134  0.00  0.00    +0.033 A 
ATOM     17  C   UNL     1       7.886   0.319   0.125  0.00  0.00    +0.012 A 
BRANCH  15  18
ATOM     18  N   UNL     1      11.319   0.038  -1.352  0.00  0.00    +0.056 N 
ATOM     19  O   UNL     1      11.904  -0.629  -2.174  0.00  0.00    -0.126 OA
ATOM     20  O   UNL     1      11.905   0.912  -0.757  0.00  0.00    -0.126 OA
ENDBRANCH  15  18
ENDBRANCH   4  12
BRANCH   3  21
ATOM     21  C   UNL     1       5.808  -3.570  -0.149  0.00  0.00    +0.142 C 
ATOM     22  N   UNL     1       7.098  -3.640  -0.275  0.00  0.00    -0.188 NA
BRANCH  22  23
ATOM     23  N   UNL     1       7.729  -4.890  -0.327  0.00  0.00    -0.204 N 
ATOM     24  C   UNL     1       9.068  -4.963  -0.457  0.00  0.00    +0.270 C 
ATOM     25  O   UNL     1       9.727  -3.947  -0.529  0.00  0.00    -0.270 OA
ATOM     26  H   UNL     1       7.202  -5.702  -0.269  0.00  0.00    +0.177 HD
BRANCH  24  27
ATOM     27  C   UNL     1       9.747  -6.308  -0.513  0.00  0.00    +0.326 C 
BRANCH  27  28
ATOM     28  O   UNL     1      11.158  -6.123  -0.652  0.00  0.00    -0.480 OA
BRANCH  28  29
ATOM     29  C   UNL     1      11.923  -7.245  -0.718  0.00  0.00    +0.156 A 
ATOM     30  C   UNL     1      11.328  -8.496  -0.656  0.00  0.00    +0.048 A 
ATOM     31  C   UNL     1      12.108  -9.635  -0.723  0.00  0.00    +0.004 A 
ATOM     32  C   UNL     1      13.481  -9.529  -0.852  0.00  0.00    +0.003 A 
ATOM     33  C   UNL     1      14.078  -8.284  -0.913  0.00  0.00    +0.042 A 
ATOM     34  C   UNL     1      13.301  -7.140  -0.853  0.00  0.00    +0.165 A 
ATOM     35  F   UNL     1      13.884  -5.923  -0.920  0.00  0.00    -0.202 F 
ENDBRANCH  28  29
ENDBRANCH  27  28
ENDBRANCH  24  27
ENDBRANCH  22  23
ENDBRANCH   3  21
TORSDOF 8
