REMARK  Name = ZINC48892668
REMARK  6 active torsions:
REMARK  status: ('A' for Active; 'I' for Inactive)
REMARK    1  A    between atoms: C_1  and  N_2
REMARK    2  A    between atoms: N_2  and  C_3
REMARK    3  A    between atoms: N_2  and  C_11
REMARK    4  A    between atoms: C_3  and  C_4
REMARK    5  A    between atoms: C_16  and  C_17
REMARK    6  A    between atoms: C_17  and  N_18
REMARK                            x       y       z     vdW  Elec       q    Type
REMARK                         _______ _______ _______ _____ _____    ______ ____
ROOT
ATOM      1  C   UNL     1       0.586  -0.341  -1.407  0.00  0.00    +0.032 A 
ATOM      2  C   UNL     1      -0.532  -0.646  -2.174  0.00  0.00    +0.038 A 
ATOM      3  C   UNL     1      -0.389  -0.924  -3.520  0.00  0.00    +0.020 A 
ATOM      4  C   UNL     1       0.865  -0.899  -4.104  0.00  0.00    +0.015 A 
ATOM      5  C   UNL     1       1.979  -0.595  -3.343  0.00  0.00    +0.004 A 
ATOM      6  C   UNL     1       1.842  -0.311  -1.998  0.00  0.00    -0.044 A 
ATOM      7 BR   UNL     1      -1.909  -1.340  -4.565  0.00  0.00    -0.050 Br
ENDROOT
BRANCH   1   9
ATOM      8  C   UNL     1       0.204   1.317   0.395  0.00  0.00    +0.129 C 
ATOM      9  N   UNL     1       0.445  -0.059  -0.047  0.00  0.00    -0.328 N 
BRANCH   9  10
ATOM     10  C   UNL     1       0.539  -1.139   0.939  0.00  0.00    +0.141 C 
BRANCH  10  11
ATOM     11  C   UNL     1      -0.845  -1.626   1.284  0.00  0.00    -0.016 A 
ATOM     12  C   UNL     1      -1.519  -1.085   2.362  0.00  0.00    +0.006 A 
ATOM     13  C   UNL     1      -2.789  -1.531   2.679  0.00  0.00    +0.000 A 
ATOM     14  C   UNL     1      -3.385  -2.519   1.916  0.00  0.00    +0.001 A 
ATOM     15  C   UNL     1      -2.712  -3.060   0.837  0.00  0.00    +0.015 A 
ATOM     16  C   UNL     1      -1.443  -2.610   0.517  0.00  0.00    +0.023 A 
ATOM     17 BR   UNL     1      -0.524  -3.345  -0.963  0.00  0.00    -0.050 Br
ENDBRANCH  10  11
ENDBRANCH   9  10
ENDBRANCH   1   9
BRANCH   6  18
ATOM     18  C   UNL     1       3.056   0.026  -1.171  0.00  0.00    -0.049 C 
BRANCH  18  19
ATOM     19  N   UNL     1       3.509  -1.173  -0.455  0.00  0.00    +0.381 N 
ATOM     20  H   UNL     1       4.294  -0.937   0.134  0.00  0.00    -0.090 HD
ATOM     21  H   UNL     1       2.756  -1.528   0.116  0.00  0.00    -0.090 HD
ATOM     22  H   UNL     1       3.788  -1.878  -1.121  0.00  0.00    -0.090 HD
ENDBRANCH  18  19
ENDBRANCH   6  18
TORSDOF 5
