REMARK  Name = ZINC35679371
REMARK  8 active torsions:
REMARK  status: ('A' for Active; 'I' for Inactive)
REMARK    1  A    between atoms: C_3  and  S_9
REMARK    2  A    between atoms: C_5  and  C_6
REMARK    3  A    between atoms: C_6  and  C_7
REMARK    4  A    between atoms: C_7  and  N_8
REMARK    5  A    between atoms: S_9  and  N_12
REMARK    6  A    between atoms: C_17  and  C_19
REMARK    7  A    between atoms: C_19  and  C_20
REMARK    8  A    between atoms: C_20  and  O_21
REMARK                            x       y       z     vdW  Elec       q    Type
REMARK                         _______ _______ _______ _____ _____    ______ ____
ROOT
ATOM      1  S   UNL     1       4.198   2.036  -0.080  0.00  0.00    +0.067 S 
ATOM      2  O   UNL     1       5.237   1.216  -0.597  0.00  0.00    -0.152 OA
ATOM      3  O   UNL     1       3.896   3.315  -0.621  0.00  0.00    -0.152 OA
ENDROOT
BRANCH   1   4
ATOM      4  N   UNL     1       4.533   2.269   1.525  0.00  0.00    -0.173 NA
ATOM      5  C   UNL     1       4.217   3.547   2.179  0.00  0.00    +0.110 C 
ATOM      6  C   UNL     1       5.482   4.077   2.861  0.00  0.00    +0.017 C 
ATOM      7  C   UNL     1       6.034   3.008   3.807  0.00  0.00    +0.003 C 
ATOM      8  C   UNL     1       6.406   1.758   3.005  0.00  0.00    +0.021 C 
ATOM      9  C   UNL     1       5.146   1.200   2.325  0.00  0.00    +0.082 C 
BRANCH   9  10
ATOM     10  C   UNL     1       5.529   0.032   1.413  0.00  0.00    +0.048 C 
BRANCH  10  11
ATOM     11  C   UNL     1       6.051  -1.129   2.262  0.00  0.00    +0.157 C 
BRANCH  11  12
ATOM     12  O   UNL     1       6.295  -2.260   1.423  0.00  0.00    -0.395 OA
ATOM     13  H   UNL     1       6.629  -3.035   1.896  0.00  0.00    +0.209 HD
ENDBRANCH  11  12
ENDBRANCH  10  11
ENDBRANCH   9  10
ENDBRANCH   1   4
BRANCH   1  16
ATOM     14  C   UNL     1       0.414   0.576  -0.211  0.00  0.00    +0.013 A 
ATOM     15  C   UNL     1       1.429   1.510  -0.118  0.00  0.00    +0.036 A 
ATOM     16  C   UNL     1       2.716   1.088  -0.170  0.00  0.00    +0.143 A 
ATOM     17  S   UNL     1       2.520  -0.677  -0.355  0.00  0.00    -0.074 S 
ATOM     18  C   UNL     1       0.735  -0.733  -0.351  0.00  0.00    -0.010 A 
BRANCH  18  19
ATOM     19  C   UNL     1      -0.176  -1.927  -0.471  0.00  0.00    +0.023 C 
BRANCH  19  20
ATOM     20  C   UNL     1      -0.494  -2.180  -1.946  0.00  0.00    -0.081 C 
BRANCH  20  21
ATOM     21  N   UNL     1      -1.383  -3.344  -2.063  0.00  0.00    +0.378 N 
ATOM     22  H   UNL     1      -0.928  -4.155  -1.673  0.00  0.00    -0.090 HD
ATOM     23  H   UNL     1      -2.239  -3.165  -1.560  0.00  0.00    -0.090 HD
ATOM     24  H   UNL     1      -1.592  -3.510  -3.036  0.00  0.00    -0.090 HD
ENDBRANCH  20  21
ENDBRANCH  19  20
ENDBRANCH  18  19
ENDBRANCH   1  16
TORSDOF 8
