REMARK  Name = ZINC64818835
REMARK  13 active torsions:
REMARK  status: ('A' for Active; 'I' for Inactive)
REMARK    1  A    between atoms: C_1  and  C_2
REMARK    2  A    between atoms: C_2  and  C_3
REMARK    3  A    between atoms: C_3  and  O_4
REMARK    4  A    between atoms: O_4  and  C_5
REMARK    5  A    between atoms: C_5  and  C_7
REMARK    6  A    between atoms: C_7  and  N_8
REMARK    7  A    between atoms: C_12  and  S_18
REMARK    8  A    between atoms: S_18  and  N_21
REMARK    9  A    between atoms: N_21  and  C_22
REMARK   10  A    between atoms: C_25  and  O_30
REMARK   11  A    between atoms: C_27  and  O_28
REMARK   12  A    between atoms: O_28  and  C_29
REMARK   13  A    between atoms: O_30  and  C_31
REMARK                            x       y       z     vdW  Elec       q    Type
REMARK                         _______ _______ _______ _____ _____    ______ ____
ROOT
ATOM      1  N   UNL     1       2.129  -4.888   3.733  0.00  0.00    -0.263 N 
ATOM      2  C   UNL     1       3.516  -5.017   3.808  0.00  0.00    +0.091 A 
ATOM      3  C   UNL     1       4.535  -4.895   2.876  0.00  0.00    +0.031 A 
ATOM      4  C   UNL     1       5.846  -5.087   3.263  0.00  0.00    +0.031 A 
ATOM      5  C   UNL     1       6.146  -5.401   4.578  0.00  0.00    +0.112 A 
ATOM      6  C   UNL     1       5.136  -5.524   5.512  0.00  0.00    +0.077 A 
ATOM      7  C   UNL     1       3.816  -5.332   5.133  0.00  0.00    +0.159 A 
ATOM      8  O   UNL     1       2.643  -5.386   5.810  0.00  0.00    -0.407 OA
ATOM      9  C   UNL     1       1.635  -5.113   4.967  0.00  0.00    +0.422 A 
ATOM     10  O   UNL     1       0.457  -5.077   5.269  0.00  0.00    -0.223 OA
ENDROOT
BRANCH   5  11
ATOM     11  S   UNL     1       7.822  -5.644   5.061  0.00  0.00    +0.073 S 
ATOM     12  O   UNL     1       7.795  -6.463   6.223  0.00  0.00    -0.150 OA
ATOM     13  O   UNL     1       8.534  -6.011   3.888  0.00  0.00    -0.150 OA
BRANCH  11  14
ATOM     14  N   UNL     1       8.414  -4.172   5.534  0.00  0.00    -0.213 N 
ATOM     15  H   UNL     1       9.171  -3.782   5.069  0.00  0.00    +0.174 HD
BRANCH  14  16
ATOM     16  C   UNL     1       7.822  -3.490   6.607  0.00  0.00    +0.091 A 
ATOM     17  C   UNL     1       7.323  -4.198   7.690  0.00  0.00    +0.051 A 
ATOM     18  C   UNL     1       6.740  -3.525   8.747  0.00  0.00    +0.085 A 
ATOM     19  C   UNL     1       6.652  -2.140   8.727  0.00  0.00    +0.142 A 
ATOM     20  C   UNL     1       7.149  -1.428   7.646  0.00  0.00    +0.094 A 
ATOM     21  C   UNL     1       7.740  -2.100   6.588  0.00  0.00    +0.146 A 
ATOM     22 CL   UNL     1       6.115  -4.413  10.102  0.00  0.00    -0.080 Cl
BRANCH  21  23
ATOM     23  O   UNL     1       8.233  -1.402   5.529  0.00  0.00    -0.493 OA
ATOM     24  C   UNL     1       8.114   0.021   5.577  0.00  0.00    +0.277 C 
ENDBRANCH  21  23
BRANCH  19  25
ATOM     25  O   UNL     1       6.078  -1.480   9.769  0.00  0.00    -0.494 OA
ATOM     26  C   UNL     1       6.021  -0.055   9.682  0.00  0.00    +0.277 C 
ENDBRANCH  19  25
ENDBRANCH  14  16
ENDBRANCH  11  14
ENDBRANCH   5  11
BRANCH   1  27
ATOM     27  C   UNL     1       1.353  -4.562   2.535  0.00  0.00    +0.249 C 
BRANCH  27  28
ATOM     28  C   UNL     1       1.205  -3.067   2.424  0.00  0.00    +0.327 C 
ATOM     29  O   UNL     1       1.697  -2.347   3.260  0.00  0.00    -0.249 OA
BRANCH  28  30
ATOM     30  O   UNL     1       0.525  -2.534   1.396  0.00  0.00    -0.463 OA
BRANCH  30  31
ATOM     31  C   UNL     1       0.425  -1.109   1.354  0.00  0.00    +0.232 C 
BRANCH  31  33
ATOM     32  C   UNL     1      -0.486   0.835   0.075  0.00  0.00    +0.007 C 
ATOM     33  C   UNL     1      -0.379  -0.691   0.120  0.00  0.00    +0.038 C 
ENDBRANCH  31  33
ENDBRANCH  30  31
ENDBRANCH  28  30
ENDBRANCH  27  28
ENDBRANCH   1  27
TORSDOF 10
