REMARK  Name = ZINC08790861
REMARK  8 active torsions:
REMARK  status: ('A' for Active; 'I' for Inactive)
REMARK    1  A    between atoms: C_1  and  C_2
REMARK    2  A    between atoms: C_7  and  C_8
REMARK    3  A    between atoms: C_17  and  C_19
REMARK    4  A    between atoms: C_19  and  C_20
REMARK    5  A    between atoms: C_20  and  C_21
REMARK    6  A    between atoms: N_26  and  C_29
REMARK    7  A    between atoms: C_29  and  C_30
REMARK    8  A    between atoms: C_30  and  C_31
REMARK                            x       y       z     vdW  Elec       q    Type
REMARK                         _______ _______ _______ _____ _____    ______ ____
ROOT
ATOM      1  C   UNL     1       1.061  -4.139  -0.036  0.00  0.00    +0.044 C 
ATOM      2  C   UNL     1       0.690  -2.678  -0.022  0.00  0.00    -0.046 A 
ATOM      3  C   UNL     1      -0.642  -2.307  -0.003  0.00  0.00    +0.004 A 
ATOM      4  C   UNL     1      -0.983  -0.966   0.008  0.00  0.00    +0.005 A 
ATOM      5  C   UNL     1       0.002  -0.004   0.002  0.00  0.00    -0.027 A 
ATOM      6  C   UNL     1       1.346  -0.366  -0.015  0.00  0.00    +0.039 A 
ATOM      7  C   UNL     1       1.680  -1.718  -0.028  0.00  0.00    -0.026 A 
ATOM      8  C   UNL     1       3.129  -2.134  -0.048  0.00  0.00    +0.046 C 
ATOM      9  N   UNL     1       2.153   0.773  -0.017  0.00  0.00    -0.286 N 
ATOM     10  C   UNL     1       1.429   1.909  -0.001  0.00  0.00    +0.211 C 
ATOM     11  O   UNL     1       1.860   3.043   0.002  0.00  0.00    -0.277 OA
ATOM     12  C   UNL     1      -0.018   1.498   0.010  0.00  0.00    +0.050 C 
ATOM     13  C   UNL     1      -0.747   2.047   1.242  0.00  0.00    +0.088 C 
ATOM     14  C   UNL     1      -2.173   2.396   0.732  0.00  0.00    +0.073 C 
ATOM     15  C   UNL     1      -2.169   1.993  -0.758  0.00  0.00    -0.057 C 
ATOM     16  C   UNL     1      -3.060   1.442   1.501  0.00  0.00    +0.224 C 
ATOM     17  O   UNL     1      -4.267   1.379   1.408  0.00  0.00    -0.275 OA
ATOM     18  N   UNL     1      -2.305   0.679   2.300  0.00  0.00    -0.241 N 
ATOM     19  C   UNL     1      -0.993   0.932   2.233  0.00  0.00    +0.225 C 
ATOM     20  O   UNL     1      -0.135   0.357   2.867  0.00  0.00    -0.275 OA
ATOM     21  H   UNL     1       3.123   0.750  -0.027  0.00  0.00    +0.155 HD
ATOM     22  N   UNL     1      -0.752   2.023  -1.128  0.00  0.00    +0.394 N 
ATOM     23  H   UNL     1      -0.589   1.439  -1.956  0.00  0.00    -0.083 HD
ATOM     24  H   UNL     1      -0.458   2.987  -1.326  0.00  0.00    -0.083 HD
ENDROOT
BRANCH  15  25
ATOM     25  C   UNL     1      -2.983   2.993  -1.582  0.00  0.00    -0.006 C 
BRANCH  25  26
ATOM     26  C   UNL     1      -3.004   2.550  -3.046  0.00  0.00    +0.094 C 
BRANCH  26  27
ATOM     27  C   UNL     1      -3.806   3.535  -3.857  0.00  0.00    +0.210 C 
ATOM     28  O   UNL     1      -4.311   4.496  -3.318  0.00  0.00    -0.276 OA
ATOM     29  N   UNL     1      -3.962   3.347  -5.183  0.00  0.00    -0.329 N 
ATOM     30  H   UNL     1      -3.558   2.578  -5.615  0.00  0.00    +0.145 HD
ATOM     31  H   UNL     1      -4.478   3.981  -5.705  0.00  0.00    +0.145 HD
ENDBRANCH  26  27
ENDBRANCH  25  26
ENDBRANCH  15  25
BRANCH  18  32
ATOM     32  C   UNL     1      -2.869  -0.350   3.177  0.00  0.00    +0.121 C 
BRANCH  32  33
ATOM     33  C   UNL     1      -2.933  -1.681   2.426  0.00  0.00    +0.054 C 
BRANCH  33  34
ATOM     34  C   UNL     1      -3.513  -2.740   3.329  0.00  0.00    -0.046 A 
ATOM     35  C   UNL     1      -2.679  -3.501   4.127  0.00  0.00    +0.004 A 
ATOM     36  C   UNL     1      -3.212  -4.468   4.958  0.00  0.00    +0.000 A 
ATOM     37  C   UNL     1      -4.578  -4.682   4.984  0.00  0.00    +0.000 A 
ATOM     38  C   UNL     1      -5.411  -3.925   4.181  0.00  0.00    +0.000 A 
ATOM     39  C   UNL     1      -4.878  -2.954   3.354  0.00  0.00    +0.004 A 
ENDBRANCH  33  34
ENDBRANCH  32  33
ENDBRANCH  18  32
TORSDOF 6
