REMARK  Name = ZINC39869282
REMARK  11 active torsions:
REMARK  status: ('A' for Active; 'I' for Inactive)
REMARK    1  A    between atoms: C_1  and  C_2
REMARK    2  A    between atoms: C_5  and  C_38
REMARK    3  A    between atoms: C_6  and  N_8
REMARK    4  A    between atoms: C_9  and  C_11
REMARK    5  A    between atoms: C_11  and  S_12
REMARK    6  A    between atoms: S_12  and  C_13
REMARK    7  A    between atoms: C_21  and  C_25
REMARK    8  A    between atoms: C_25  and  C_26
REMARK    9  A    between atoms: C_25  and  C_27
REMARK   10  A    between atoms: C_25  and  C_28
REMARK   11  A    between atoms: N_31  and  C_32
REMARK                            x       y       z     vdW  Elec       q    Type
REMARK                         _______ _______ _______ _____ _____    ______ ____
ROOT
ATOM      1  C   UNL     1       0.542  -2.770   7.656  0.00  0.00    +0.178 A 
ATOM      2  N   UNL     1       0.553  -4.079   7.507  0.00  0.00    -0.215 NA
ATOM      3  C   UNL     1       0.656  -4.883   8.559  0.00  0.00    +0.117 A 
ATOM      4  C   UNL     1       0.759  -4.389   9.870  0.00  0.00    +0.076 A 
ATOM      5  C   UNL     1       0.867  -5.397  10.927  0.00  0.00    -0.023 A 
ATOM      6  C   UNL     1       0.858  -6.689  10.542  0.00  0.00    -0.004 A 
ATOM      7  S   UNL     1       0.707  -6.644   8.777  0.00  0.00    -0.073 S 
ATOM      8  C   UNL     1       0.955  -7.899  11.422  0.00  0.00    +0.046 C 
ATOM      9  C   UNL     1       0.694  -7.465  12.872  0.00  0.00    -0.000 C 
ATOM     10  C   UNL     1       1.537  -6.223  13.172  0.00  0.00    +0.009 C 
ATOM     11  C   UNL     1       0.986  -5.023  12.401  0.00  0.00    +0.037 C 
ATOM     12  C   UNL     1       0.744  -2.965  10.003  0.00  0.00    +0.268 A 
ATOM     13  O   UNL     1       0.827  -2.446  11.103  0.00  0.00    -0.267 OA
ATOM     14  N   UNL     1       0.643  -2.205   8.897  0.00  0.00    -0.255 N 
ENDROOT
BRANCH  14  15
ATOM     15  C   UNL     1       0.634  -0.809   9.020  0.00  0.00    +0.052 A 
ATOM     16  C   UNL     1       1.763  -0.144   9.479  0.00  0.00    +0.026 A 
ATOM     17  C   UNL     1       1.751   1.232   9.598  0.00  0.00    +0.002 A 
ATOM     18  C   UNL     1       0.616   1.947   9.261  0.00  0.00    +0.000 A 
ATOM     19  C   UNL     1      -0.510   1.287   8.804  0.00  0.00    +0.002 A 
ATOM     20  C   UNL     1      -0.502  -0.088   8.677  0.00  0.00    +0.026 A 
ENDBRANCH  14  15
BRANCH   9  21
ATOM     21  C   UNL     1       1.085  -8.598  13.824  0.00  0.00    -0.035 C 
ATOM     22  C   UNL     1       2.571  -8.921  13.649  0.00  0.00    +0.011 C 
ATOM     23  C   UNL     1       0.825  -8.163  15.267  0.00  0.00    +0.011 C 
ATOM     24  C   UNL     1       0.252  -9.841  13.507  0.00  0.00    +0.011 C 
ENDBRANCH   9  21
BRANCH   1  25
ATOM     25  S   UNL     1       0.404  -1.734   6.238  0.00  0.00    -0.078 S 
BRANCH  25  26
ATOM     26  C   UNL     1       0.300  -2.900   4.852  0.00  0.00    +0.173 C 
BRANCH  26  28
ATOM     27  N   UNL     1       0.084  -2.797   2.390  0.00  0.00    -0.285 N 
ATOM     28  C   UNL     1       0.176  -2.134   3.560  0.00  0.00    +0.227 C 
ATOM     29  O   UNL     1       0.161  -0.921   3.572  0.00  0.00    -0.275 OA
ATOM     30  H   UNL     1       0.015  -3.764   2.385  0.00  0.00    +0.155 HD
BRANCH  27  36
ATOM     31  C   UNL     1       1.315   1.226  -0.154  0.00  0.00    +0.044 C 
ATOM     32  C   UNL     1       0.677  -0.137  -0.079  0.00  0.00    -0.049 A 
ATOM     33  C   UNL     1       0.093  -0.690  -1.204  0.00  0.00    +0.004 A 
ATOM     34  C   UNL     1      -0.493  -1.940  -1.139  0.00  0.00    +0.005 A 
ATOM     35  C   UNL     1      -0.498  -2.642   0.051  0.00  0.00    -0.029 A 
ATOM     36  C   UNL     1       0.087  -2.089   1.183  0.00  0.00    +0.037 A 
ATOM     37  C   UNL     1       0.680  -0.835   1.113  0.00  0.00    +0.027 A 
ATOM     38  C   UNL     1      -1.138  -4.004   0.121  0.00  0.00    +0.045 C 
ENDBRANCH  27  36
ENDBRANCH  26  28
ENDBRANCH  25  26
ENDBRANCH   1  25
TORSDOF 6
