REMARK  Name = ZINC20874704
REMARK  14 active torsions:
REMARK  status: ('A' for Active; 'I' for Inactive)
REMARK    1  A    between atoms: C_1  and  C_2
REMARK    2  A    between atoms: C_2  and  CA_3
REMARK    3  A    between atoms: CA_3  and  C_5
REMARK    4  A    between atoms: CA_3  and  N_7
REMARK    5  A    between atoms: C_5  and  O_6
REMARK    6  A    between atoms: N_7  and  C_8
REMARK    7  A    between atoms: C_8  and  C_9
REMARK    8  A    between atoms: C_11  and  O_25
REMARK    9  A    between atoms: C_12  and  O_16
REMARK   10  A    between atoms: O_16  and  C_17
REMARK   11  A    between atoms: C_17  and  C_18
REMARK   12  A    between atoms: C_21  and  C_24
REMARK   13  A    between atoms: O_25  and  C_26
REMARK   14  A    between atoms: C_26  and  C_27
REMARK                            x       y       z     vdW  Elec       q    Type
REMARK                         _______ _______ _______ _____ _____    ______ ____
ROOT
ATOM      1  C   UNL     1       3.637   3.350  -0.015  0.00  0.00    -0.060 A 
ATOM      2  C   UNL     1       3.040   3.023   1.188  0.00  0.00    +0.051 A 
ATOM      3  C   UNL     1       1.812   2.382   1.202  0.00  0.00    +0.163 A 
ATOM      4  C   UNL     1       1.186   2.059   0.002  0.00  0.00    +0.176 A 
ATOM      5  C   UNL     1       1.789   2.389  -1.202  0.00  0.00    +0.063 A 
ATOM      6  C   UNL     1       3.013   3.034  -1.208  0.00  0.00    +0.021 A 
ATOM      7 BR   UNL     1       0.940   1.957  -2.835  0.00  0.00    -0.046 Br
ENDROOT
BRANCH   1   8
ATOM      8  C   UNL     1       4.970   4.052  -0.028  0.00  0.00    -0.046 C 
BRANCH   8   9
ATOM      9  N   UNL     1       4.758   5.506  -0.019  0.00  0.00    +0.385 N 
ATOM     10  H1  UNL     1       4.195   5.775   0.887  0.00  0.00    -0.085 HD
ATOM     11  H2  UNL     1       4.175   5.782  -0.910  0.00  0.00    -0.085 HD
BRANCH   9  12
ATOM     12  CA  UNL     1       6.040   6.224  -0.030  0.00  0.00    -0.046 C 
BRANCH  12  14
ATOM     13  C   UNL     1       5.435   7.484  -2.102  0.00  0.00    +0.002 C 
ATOM     14  C   UNL     1       5.838   7.617  -0.632  0.00  0.00    -0.017 C 
ENDBRANCH  12  14
BRANCH  12  15
ATOM     15  C   UNL     1       6.562   6.358   1.401  0.00  0.00    +0.140 C 
BRANCH  15  16
ATOM     16  O   UNL     1       5.673   7.183   2.158  0.00  0.00    -0.397 OA
ATOM     17  H   UNL     1       5.885   7.394   3.216  0.00  0.00    +0.209 HD
ENDBRANCH  15  16
ENDBRANCH  12  15
ENDBRANCH   9  12
ENDBRANCH   8   9
ENDBRANCH   1   8
BRANCH   4  18
ATOM     18  O   UNL     1      -0.017   1.425   0.010  0.00  0.00    -0.483 OA
BRANCH  18  19
ATOM     19  C   UNL     1       0.002  -0.004   0.002  0.00  0.00    +0.264 C 
BRANCH  19  20
ATOM     20  C   UNL     1      -1.412  -0.526   0.013  0.00  0.00    -0.010 A 
ATOM     21  C   UNL     1      -2.047  -0.777   1.215  0.00  0.00    +0.007 A 
ATOM     22  C   UNL     1      -3.345  -1.251   1.224  0.00  0.00    +0.004 A 
ATOM     23  C   UNL     1      -4.005  -1.483   0.032  0.00  0.00    -0.050 A 
ATOM     24  C   UNL     1      -3.369  -1.237  -1.170  0.00  0.00    +0.004 A 
ATOM     25  C   UNL     1      -2.072  -0.758  -1.179  0.00  0.00    +0.007 A 
ATOM     26  C   UNL     1      -5.419  -2.005   0.043  0.00  0.00    +0.044 C 
ENDBRANCH  19  20
ENDBRANCH  18  19
ENDBRANCH   4  18
BRANCH   3  27
ATOM     27  O   UNL     1       1.222   2.065   2.385  0.00  0.00    -0.489 OA
BRANCH  27  28
ATOM     28  C   UNL     1       1.922   2.428   3.577  0.00  0.00    +0.226 C 
ATOM     29  C   UNL     1       1.109   1.993   4.798  0.00  0.00    +0.048 C 
ENDBRANCH  27  28
ENDBRANCH   3  27
TORSDOF 11
