REMARK  Name = ZINC18166941
REMARK  7 active torsions:
REMARK  status: ('A' for Active; 'I' for Inactive)
REMARK    1  A    between atoms: C_1  and  O_2
REMARK    2  A    between atoms: O_2  and  C_3
REMARK    3  A    between atoms: C_6  and  C_9
REMARK    4  A    between atoms: C_10  and  C_19
REMARK    5  A    between atoms: C_14  and  C_15
REMARK    6  A    between atoms: C_22  and  O_26
REMARK    7  A    between atoms: C_24  and  O_25
REMARK                            x       y       z     vdW  Elec       q    Type
REMARK                         _______ _______ _______ _____ _____    ______ ____
ROOT
ATOM      1  C   UNL     1       2.494  -2.494  -4.367  0.00  0.00    +0.039 A 
ATOM      2  C   UNL     1       1.875  -3.284  -5.327  0.00  0.00    +0.077 A 
ATOM      3  N   UNL     1       2.844  -3.683  -6.199  0.00  0.00    -0.276 N 
ATOM      4  H   UNL     1       2.712  -4.246  -6.978  0.00  0.00    +0.189 HD
ATOM      5  N   UNL     1       4.061  -3.138  -5.775  0.00  0.00    -0.169 NA
ATOM      6  C   UNL     1       3.860  -2.430  -4.696  0.00  0.00    +0.173 A 
ENDROOT
BRANCH   1  10
ATOM      7  C   UNL     1       0.606  -0.607  -1.056  0.00  0.00    +0.120 A 
ATOM      8  C   UNL     1       1.173   0.164  -2.062  0.00  0.00    +0.046 A 
ATOM      9  C   UNL     1       1.786  -0.445  -3.137  0.00  0.00    +0.012 A 
ATOM     10  C   UNL     1       1.836  -1.837  -3.212  0.00  0.00    -0.014 A 
ATOM     11  C   UNL     1       1.266  -2.608  -2.200  0.00  0.00    +0.012 A 
ATOM     12  C   UNL     1       0.659  -1.992  -1.125  0.00  0.00    +0.046 A 
BRANCH   7  14
ATOM     13  C   UNL     1      -0.017   1.425   0.010  0.00  0.00    +0.277 C 
ATOM     14  O   UNL     1       0.002  -0.004   0.002  0.00  0.00    -0.495 OA
ENDBRANCH   7  14
ENDBRANCH   1  10
BRANCH   2  15
ATOM     15  C   UNL     1       0.440  -3.626  -5.391  0.00  0.00    +0.042 A 
ATOM     16  C   UNL     1       0.027  -4.950  -5.227  0.00  0.00    +0.017 A 
ATOM     17  C   UNL     1      -1.313  -5.265  -5.287  0.00  0.00    +0.046 A 
ATOM     18  C   UNL     1      -2.256  -4.270  -5.510  0.00  0.00    +0.120 A 
ATOM     19  C   UNL     1      -1.856  -2.952  -5.675  0.00  0.00    +0.091 A 
ATOM     20  C   UNL     1      -0.513  -2.623  -5.611  0.00  0.00    +0.129 A 
BRANCH  20  21
ATOM     21  O   UNL     1      -0.120  -1.332  -5.766  0.00  0.00    -0.506 OA
ATOM     22  H   UNL     1       0.062  -1.084  -6.683  0.00  0.00    +0.292 HD
ENDBRANCH  20  21
BRANCH  18  23
ATOM     23  O   UNL     1      -3.576  -4.589  -5.569  0.00  0.00    -0.507 OA
ATOM     24  H   UNL     1      -4.027  -4.551  -4.714  0.00  0.00    +0.292 HD
ENDBRANCH  18  23
ENDBRANCH   2  15
BRANCH   6  25
ATOM     25  C   UNL     1       4.914  -1.674  -3.930  0.00  0.00    +0.437 C 
ATOM     26  F   UNL     1       5.470  -2.507  -2.954  0.00  0.00    -0.164 F 
ATOM     27  F   UNL     1       5.918  -1.254  -4.810  0.00  0.00    -0.164 F 
ATOM     28  F   UNL     1       4.335  -0.558  -3.317  0.00  0.00    -0.164 F 
ENDBRANCH   6  25
TORSDOF 6
