REMARK  Name = ZINC09218562
REMARK  8 active torsions:
REMARK  status: ('A' for Active; 'I' for Inactive)
REMARK    1  A    between atoms: C_2  and  C_3
REMARK    2  A    between atoms: C_3  and  N_4
REMARK    3  A    between atoms: C_8  and  C_10
REMARK    4  A    between atoms: C_10  and  N_11
REMARK    5  A    between atoms: N_11  and  C_12
REMARK    6  A    between atoms: C_14  and  C_25
REMARK    7  A    between atoms: C_17  and  N_18
REMARK    8  A    between atoms: N_18  and  C_19
REMARK                            x       y       z     vdW  Elec       q    Type
REMARK                         _______ _______ _______ _____ _____    ______ ____
ROOT
ATOM      1  C   UNL     1      -2.433   0.938   0.019  0.00  0.00    +0.049 A 
ATOM      2  C   UNL     1      -3.639   1.621   0.029  0.00  0.00    +0.037 A 
ATOM      3  C   UNL     1      -3.651   3.003   0.037  0.00  0.00    +0.057 A 
ATOM      4  C   UNL     1      -2.462   3.709   0.035  0.00  0.00    +0.014 A 
ATOM      5  C   UNL     1      -1.254   3.036   0.030  0.00  0.00    +0.025 A 
ATOM      6  C   UNL     1      -1.233   1.649   0.017  0.00  0.00    +0.049 A 
ENDROOT
BRANCH   3   7
ATOM      7  C   UNL     1      -4.964   3.743   0.048  0.00  0.00    +0.417 C 
ATOM      8  F   UNL     1      -5.363   3.965   1.370  0.00  0.00    -0.166 F 
ATOM      9  F   UNL     1      -4.812   4.971  -0.605  0.00  0.00    -0.166 F 
ATOM     10  F   UNL     1      -5.934   2.981  -0.611  0.00  0.00    -0.166 F 
ENDBRANCH   3   7
BRANCH   1  11
ATOM     11  N   UNL     1      -2.418  -0.462   0.011  0.00  0.00    -0.334 N 
ATOM     12  H   UNL     1      -1.573  -0.939   0.004  0.00  0.00    +0.147 HD
BRANCH  11  13
ATOM     13  C   UNL     1      -3.679  -1.208   0.013  0.00  0.00    +0.198 C 
BRANCH  13  18
ATOM     14  N   UNL     1      -5.160  -5.782  -0.005  0.00  0.00    -0.296 N 
ATOM     15  C   UNL     1      -4.144  -4.895  -0.005  0.00  0.00    +0.306 C 
ATOM     16  O   UNL     1      -2.994  -5.289  -0.013  0.00  0.00    -0.252 OA
ATOM     17  N   UNL     1      -4.404  -3.573   0.004  0.00  0.00    -0.239 N 
ATOM     18  C   UNL     1      -3.389  -2.687   0.004  0.00  0.00    +0.237 C 
ATOM     19  O   UNL     1      -2.242  -3.079  -0.004  0.00  0.00    -0.274 OA
ATOM     20  H   UNL     1      -6.078  -5.468   0.001  0.00  0.00    +0.151 HD
ATOM     21  H   UNL     1      -5.322  -3.259   0.009  0.00  0.00    +0.159 HD
BRANCH  14  22
ATOM     22  C   UNL     1      -4.878  -7.219  -0.014  0.00  0.00    +0.132 C 
BRANCH  22  24
ATOM     23  C   UNL     1      -6.412  -8.874  -0.945  0.00  0.00    +0.005 C 
ATOM     24  C   UNL     1      -6.175  -7.986  -0.012  0.00  0.00    -0.016 C 
ENDBRANCH  22  24
ENDBRANCH  14  22
ENDBRANCH  13  18
ENDBRANCH  11  13
ENDBRANCH   1  11
BRANCH   6  25
ATOM     25  N   UNL     1      -0.011   0.966   0.007  0.00  0.00    -0.340 N 
ATOM     26  H   UNL     1       0.002  -0.004   0.002  0.00  0.00    +0.146 HD
BRANCH  25  27
ATOM     27  C   UNL     1       1.248   1.716  -0.001  0.00  0.00    +0.070 C 
ATOM     28  C   UNL     1       1.608   2.092  -1.439  0.00  0.00    +0.022 C 
ATOM     29  C   UNL     1       2.922   2.875  -1.448  0.00  0.00    +0.002 C 
ATOM     30  C   UNL     1       4.035   2.010  -0.853  0.00  0.00    +0.000 C 
ATOM     31  C   UNL     1       3.675   1.633   0.585  0.00  0.00    +0.002 C 
ATOM     32  C   UNL     1       2.361   0.850   0.594  0.00  0.00    +0.022 C 
ENDBRANCH  25  27
ENDBRANCH   6  25
TORSDOF 8
