REMARK  Name = ZINC06546673
REMARK  12 active torsions:
REMARK  status: ('A' for Active; 'I' for Inactive)
REMARK    1  A    between atoms: C_1  and  C_2
REMARK    2  A    between atoms: C_2  and  O_3
REMARK    3  A    between atoms: O_3  and  C_4
REMARK    4  A    between atoms: C_4  and  C_6
REMARK    5  A    between atoms: C_6  and  N_7
REMARK    6  A    between atoms: C_8  and  C_10
REMARK    7  A    between atoms: C_10  and  C_12
REMARK    8  A    between atoms: C_10  and  N_19
REMARK    9  A    between atoms: N_19  and  C_20
REMARK   10  A    between atoms: C_27  and  C_29
REMARK   11  A    between atoms: C_30  and  N_37
REMARK   12  A    between atoms: C_31  and  C_34
REMARK                            x       y       z     vdW  Elec       q    Type
REMARK                         _______ _______ _______ _____ _____    ______ ____
ROOT
ATOM      1  N   UNL     1      -1.345   3.428   0.923  0.00  0.00    -0.251 N 
ATOM      2  C   UNL     1      -2.549   3.687   1.470  0.00  0.00    +0.262 C 
ATOM      3  O   UNL     1      -3.541   3.117   1.055  0.00  0.00    -0.269 OA
ENDROOT
BRANCH   1   4
ATOM      4  C   UNL     1      -0.190   3.997   1.472  0.00  0.00    +0.038 A 
ATOM      5  C   UNL     1       0.649   3.231   2.272  0.00  0.00    +0.026 A 
ATOM      6  C   UNL     1       1.791   3.793   2.809  0.00  0.00    +0.040 A 
ATOM      7  C   UNL     1       2.094   5.121   2.559  0.00  0.00    +0.124 A 
ATOM      8  C   UNL     1       1.256   5.887   1.767  0.00  0.00    +0.040 A 
ATOM      9  C   UNL     1       0.116   5.328   1.223  0.00  0.00    +0.026 A 
ATOM     10  F   UNL     1       3.209   5.669   3.089  0.00  0.00    -0.205 F 
ENDBRANCH   1   4
BRANCH   2  11
ATOM     11  C   UNL     1      -2.663   4.652   2.565  0.00  0.00    +0.116 A 
ATOM     12  C   UNL     1      -3.809   5.154   3.186  0.00  0.00    +0.076 A 
ATOM     13  C   UNL     1      -3.510   6.062   4.202  0.00  0.00    +0.155 A 
ATOM     14  N   UNL     1      -2.254   6.351   4.458  0.00  0.00    -0.203 NA
ATOM     15  S   UNL     1      -1.379   5.505   3.456  0.00  0.00    +0.019 S 
BRANCH  13  16
ATOM     16  C   UNL     1      -4.594   6.696   4.976  0.00  0.00    +0.262 C 
ATOM     17  O   UNL     1      -5.754   6.424   4.733  0.00  0.00    -0.269 OA
ATOM     18  N   UNL     1      -4.298   7.576   5.953  0.00  0.00    -0.324 N 
ATOM     19  H   UNL     1      -3.372   7.793   6.146  0.00  0.00    +0.145 HD
ATOM     20  H   UNL     1      -5.010   7.993   6.462  0.00  0.00    +0.145 HD
ENDBRANCH  13  16
BRANCH  12  21
ATOM     21  N   UNL     1      -5.101   4.789   2.833  0.00  0.00    -0.355 N 
ATOM     22  H   UNL     1      -5.246   4.149   2.118  0.00  0.00    +0.142 HD
ATOM     23  H   UNL     1      -5.859   5.173   3.301  0.00  0.00    +0.142 HD
ENDBRANCH  12  21
ENDBRANCH   2  11
BRANCH   1  24
ATOM     24  C   UNL     1      -1.245   2.552  -0.247  0.00  0.00    +0.197 C 
BRANCH  24  25
ATOM     25  C   UNL     1       0.207   2.292  -0.557  0.00  0.00    -0.018 A 
ATOM     26  C   UNL     1       1.055   3.350  -0.828  0.00  0.00    +0.009 A 
ATOM     27  C   UNL     1       2.385   3.113  -1.119  0.00  0.00    +0.038 A 
ATOM     28  C   UNL     1       2.868   1.815  -1.139  0.00  0.00    +0.123 A 
ATOM     29  C   UNL     1       2.018   0.757  -0.867  0.00  0.00    +0.038 A 
ATOM     30  C   UNL     1       0.688   0.997  -0.577  0.00  0.00    +0.009 A 
ATOM     31  F   UNL     1       4.168   1.582  -1.422  0.00  0.00    -0.205 F 
ENDBRANCH  24  25
BRANCH  24  33
ATOM     32  N   UNL     1      -1.929   2.592  -2.623  0.00  0.00    -0.303 N 
ATOM     33  C   UNL     1      -1.900   3.217  -1.430  0.00  0.00    +0.239 C 
ATOM     34  O   UNL     1      -2.402   4.315  -1.307  0.00  0.00    -0.273 OA
ATOM     35  H   UNL     1      -1.528   1.714  -2.721  0.00  0.00    +0.149 HD
BRANCH  32  36
ATOM     36  C   UNL     1      -2.567   3.239  -3.773  0.00  0.00    +0.225 C 
BRANCH  36  37
ATOM     37  C   UNL     1      -2.464   2.338  -4.977  0.00  0.00    +0.324 C 
ATOM     38  O   UNL     1      -1.915   1.266  -4.884  0.00  0.00    -0.249 OA
BRANCH  37  39
ATOM     39  O   UNL     1      -2.982   2.726  -6.152  0.00  0.00    -0.464 OA
BRANCH  39  41
ATOM     40  C   UNL     1      -3.493   2.419  -8.514  0.00  0.00    +0.048 C 
ATOM     41  C   UNL     1      -2.847   1.808  -7.269  0.00  0.00    +0.229 C 
ENDBRANCH  39  41
ENDBRANCH  37  39
ENDBRANCH  36  37
ENDBRANCH  32  36
ENDBRANCH  24  33
ENDBRANCH   1  24
TORSDOF 11
