REMARK  Name = ZINC44978700
REMARK  5 active torsions:
REMARK  status: ('A' for Active; 'I' for Inactive)
REMARK    1  A    between atoms: C_1  and  C_2
REMARK    2  A    between atoms: C_7  and  C_10
REMARK    3  A    between atoms: C_12  and  C_15
REMARK    4  A    between atoms: C_15  and  N_22
REMARK    5  A    between atoms: C_18  and  C_21
REMARK                            x       y       z     vdW  Elec       q    Type
REMARK                         _______ _______ _______ _____ _____    ______ ____
ROOT
ATOM      1  C   UNL     1       0.755  -0.517   3.721  0.00  0.00    +0.175 A 
ATOM      2  N   UNL     1       1.297   0.252   4.672  0.00  0.00    -0.197 NA
ATOM      3  C   UNL     1       1.852  -0.492   5.588  0.00  0.00    +0.216 A 
ATOM      4  O   UNL     1       1.679  -1.775   5.246  0.00  0.00    -0.340 OA
ATOM      5  N   UNL     1       0.955  -1.767   4.025  0.00  0.00    -0.061 NA
ENDROOT
BRANCH   1  11
ATOM      6  C   UNL     1      -0.019   1.526   0.010  0.00  0.00    +0.007 C 
ATOM      7  C   UNL     1       0.002  -0.004   0.002  0.00  0.00    -0.013 C 
ATOM      8  C   UNL     1      -1.433  -0.534   0.013  0.00  0.00    +0.003 C 
ATOM      9  C   UNL     1      -2.149  -0.040   1.272  0.00  0.00    +0.001 C 
ATOM     10  C   UNL     1      -1.409  -0.547   2.511  0.00  0.00    +0.011 C 
ATOM     11  C   UNL     1       0.026  -0.018   2.500  0.00  0.00    +0.061 C 
ATOM     12  C   UNL     1       0.742  -0.511   1.242  0.00  0.00    +0.014 C 
ENDBRANCH   1  11
BRANCH   3  13
ATOM     13  C   UNL     1       2.564   0.006   6.819  0.00  0.00    +0.010 C 
ATOM     14  C   UNL     1       3.750   0.879   6.403  0.00  0.00    -0.003 C 
ATOM     15  C   UNL     1       4.718   0.054   5.553  0.00  0.00    +0.002 C 
ATOM     16  C   UNL     1       5.223  -1.139   6.367  0.00  0.00    -0.014 C 
ATOM     17  C   UNL     1       4.037  -2.012   6.782  0.00  0.00    +0.002 C 
ATOM     18  C   UNL     1       3.070  -1.187   7.633  0.00  0.00    -0.003 C 
ATOM     19  C   UNL     1       6.191  -1.964   5.516  0.00  0.00    +0.007 C 
BRANCH  13  20
ATOM     20  N   UNL     1       1.635   0.798   7.636  0.00  0.00    +0.388 N 
ATOM     21  H   UNL     1       0.853   0.223   7.910  0.00  0.00    -0.089 HD
ATOM     22  H   UNL     1       2.112   1.132   8.460  0.00  0.00    -0.089 HD
ATOM     23  H   UNL     1       1.302   1.585   7.098  0.00  0.00    -0.089 HD
ENDBRANCH  13  20
ENDBRANCH   3  13
TORSDOF 3
