REMARK  Name = ZINC39609432
REMARK  9 active torsions:
REMARK  status: ('A' for Active; 'I' for Inactive)
REMARK    1  A    between atoms: C_1  and  C_2
REMARK    2  A    between atoms: C_2  and  O_3
REMARK    3  A    between atoms: O_3  and  C_4
REMARK    4  A    between atoms: C_8  and  C_10
REMARK    5  A    between atoms: C_10  and  C_11
REMARK    6  A    between atoms: C_11  and  N_12
REMARK    7  A    between atoms: C_13  and  C_15
REMARK    8  A    between atoms: C_26  and  C_28
REMARK    9  A    between atoms: C_33  and  C_34
REMARK                            x       y       z     vdW  Elec       q    Type
REMARK                         _______ _______ _______ _____ _____    ______ ____
ROOT
ATOM      1  C   UNL     1       6.594  -6.512   5.956  0.00  0.00    +0.100 C 
ATOM      2  C   UNL     1       6.493  -5.326   6.941  0.00  0.00    +0.121 C 
ATOM      3  N   UNL     1       7.836  -5.237   7.559  0.00  0.00    -0.296 N 
ATOM      4  C   UNL     1       8.774  -5.511   6.444  0.00  0.00    +0.115 C 
ATOM      5  C   UNL     1       8.093  -6.630   5.632  0.00  0.00    -0.004 C 
ATOM      6  C   UNL     1       8.329  -6.417   4.140  0.00  0.00    -0.010 C 
ATOM      7  C   UNL     1       9.819  -6.596   3.833  0.00  0.00    -0.082 C 
ATOM      8  N   UNL     1      10.243  -7.945   4.229  0.00  0.00    +0.379 N 
ATOM      9  C   UNL     1      10.099  -8.109   5.680  0.00  0.00    -0.082 C 
ATOM     10  C   UNL     1       8.622  -7.994   6.065  0.00  0.00    -0.010 C 
ATOM     11  C   UNL     1       8.138  -4.968   8.845  0.00  0.00    +0.247 C 
ATOM     12  O   UNL     1       9.297  -4.830   9.182  0.00  0.00    -0.270 OA
ATOM     13  H   UNL     1       9.671  -8.628   3.756  0.00  0.00    -0.086 HD
ATOM     14  H   UNL     1      11.208  -8.081   3.970  0.00  0.00    -0.086 HD
ENDROOT
BRANCH  11  15
ATOM     15  C   UNL     1       7.057  -4.842   9.847  0.00  0.00    +0.049 A 
ATOM     16  C   UNL     1       5.843  -4.248   9.497  0.00  0.00    +0.013 A 
ATOM     17  C   UNL     1       4.840  -4.133  10.436  0.00  0.00    +0.001 A 
ATOM     18  C   UNL     1       5.034  -4.606  11.723  0.00  0.00    +0.001 A 
ATOM     19  C   UNL     1       6.234  -5.196  12.075  0.00  0.00    +0.013 A 
ATOM     20  C   UNL     1       7.245  -5.321  11.144  0.00  0.00    +0.067 A 
BRANCH  20  21
ATOM     21  C   UNL     1       8.550  -5.969  11.528  0.00  0.00    +0.418 C 
ATOM     22  F   UNL     1       8.497  -6.365  12.869  0.00  0.00    -0.166 F 
ATOM     23  F   UNL     1       8.770  -7.090  10.720  0.00  0.00    -0.166 F 
ATOM     24  F   UNL     1       9.594  -5.055  11.353  0.00  0.00    -0.166 F 
ENDBRANCH  20  21
ENDBRANCH  11  15
BRANCH   1  26
ATOM     25  N   UNL     1       5.263  -7.236   4.001  0.00  0.00    -0.315 N 
ATOM     26  C   UNL     1       5.808  -6.223   4.704  0.00  0.00    +0.218 C 
ATOM     27  O   UNL     1       5.665  -5.079   4.328  0.00  0.00    -0.275 OA
ATOM     28  H   UNL     1       5.377  -8.152   4.302  0.00  0.00    +0.149 HD
BRANCH  25  29
ATOM     29  C   UNL     1       4.498  -6.955   2.784  0.00  0.00    +0.109 C 
BRANCH  29  30
ATOM     30  C   UNL     1       3.993  -8.269   2.184  0.00  0.00    +0.054 C 
BRANCH  30  35
ATOM     31  C   UNL     1       1.122  -7.494  -0.146  0.00  0.00    +0.121 A 
ATOM     32  C   UNL     1       1.768  -7.451  -1.373  0.00  0.00    +0.045 A 
ATOM     33  C   UNL     1       3.130  -7.672  -1.444  0.00  0.00    +0.004 A 
ATOM     34  C   UNL     1       3.849  -7.936  -0.292  0.00  0.00    +0.004 A 
ATOM     35  C   UNL     1       3.207  -7.981   0.931  0.00  0.00    -0.042 A 
ATOM     36  C   UNL     1       1.846  -7.754   1.008  0.00  0.00    +0.049 A 
BRANCH  31  37
ATOM     37  O   UNL     1      -0.218  -7.276  -0.074  0.00  0.00    -0.492 OA
BRANCH  37  39
ATOM     38  C   UNL     1      -2.388  -6.796  -1.024  0.00  0.00    +0.048 C 
ATOM     39  C   UNL     1      -0.899  -7.014  -1.303  0.00  0.00    +0.225 C 
ENDBRANCH  37  39
ENDBRANCH  31  37
ENDBRANCH  30  35
ENDBRANCH  29  30
ENDBRANCH  25  29
ENDBRANCH   1  26
TORSDOF 8
