REMARK  Name = ZINC41082991
REMARK  12 active torsions:
REMARK  status: ('A' for Active; 'I' for Inactive)
REMARK    1  A    between atoms: C_1  and  C_2
REMARK    2  A    between atoms: C_2  and  C_3
REMARK    3  A    between atoms: C_2  and  C_4
REMARK    4  A    between atoms: C_4  and  C_5
REMARK    5  A    between atoms: C_11  and  C_12
REMARK    6  A    between atoms: C_14  and  O_29
REMARK    7  A    between atoms: C_15  and  O_19
REMARK    8  A    between atoms: O_19  and  C_20
REMARK    9  A    between atoms: C_20  and  C_21
REMARK   10  A    between atoms: C_21  and  O_22
REMARK   11  A    between atoms: O_22  and  C_23
REMARK   12  A    between atoms: O_29  and  C_30
REMARK                            x       y       z     vdW  Elec       q    Type
REMARK                         _______ _______ _______ _____ _____    ______ ____
ROOT
ATOM      1  C   UNL     1      -3.867   3.740   6.898  0.00  0.00    -0.019 A 
ATOM      2  C   UNL     1      -4.623   4.890   7.164  0.00  0.00    +0.057 A 
ATOM      3  C   UNL     1      -4.617   5.438   8.430  0.00  0.00    +0.164 A 
ATOM      4  C   UNL     1      -3.860   4.848   9.443  0.00  0.00    +0.180 A 
ATOM      5  C   UNL     1      -3.109   3.708   9.181  0.00  0.00    +0.087 A 
ATOM      6  C   UNL     1      -3.113   3.150   7.922  0.00  0.00    +0.032 A 
ATOM      7 CL   UNL     1      -2.169   2.981  10.447  0.00  0.00    -0.080 Cl
ENDROOT
BRANCH   1  14
ATOM      8  C   UNL     1      -6.074   4.799   0.320  0.00  0.00    +0.100 C 
ATOM      9  N   UNL     1      -5.512   3.913   1.092  0.00  0.00    -0.169 NA
ATOM     10  N   UNL     1      -4.819   4.287   2.223  0.00  0.00    -0.152 N 
ATOM     11  C   UNL     1      -4.100   3.421   3.075  0.00  0.00    +0.152 C 
ATOM     12  N   UNL     1      -3.649   2.255   2.697  0.00  0.00    -0.283 NA
ATOM     13  C   UNL     1      -3.907   3.969   4.447  0.00  0.00    +0.081 C 
ATOM     14  C   UNL     1      -3.869   3.153   5.556  0.00  0.00    +0.024 C 
ATOM     15  C   UNL     1      -3.756   5.442   4.556  0.00  0.00    +0.273 C 
ATOM     16  O   UNL     1      -3.163   5.945   5.496  0.00  0.00    -0.268 OA
ATOM     17  N   UNL     1      -4.292   6.207   3.585  0.00  0.00    -0.152 NA
ATOM     18  C   UNL     1      -4.808   5.632   2.528  0.00  0.00    +0.181 C 
ATOM     19  S   UNL     1      -5.670   6.332   1.145  0.00  0.00    -0.038 S 
ATOM     20  H   UNL     1      -3.802   1.946   1.791  0.00  0.00    +0.188 HD
BRANCH   8  21
ATOM     21  C   UNL     1      -6.859   4.585  -0.949  0.00  0.00    +0.067 C 
BRANCH  21  23
ATOM     22  C   UNL     1      -7.740   2.385  -0.158  0.00  0.00    +0.007 C 
ATOM     23  C   UNL     1      -6.937   3.088  -1.254  0.00  0.00    -0.011 C 
ATOM     24  C   UNL     1      -7.625   2.879  -2.605  0.00  0.00    +0.007 C 
ENDBRANCH  21  23
ENDBRANCH   8  21
ENDBRANCH   1  14
BRANCH   3  25
ATOM     25  O   UNL     1      -5.349   6.554   8.691  0.00  0.00    -0.491 OA
ATOM     26  C   UNL     1      -6.100   7.105   7.608  0.00  0.00    +0.277 C 
ENDBRANCH   3  25
BRANCH   4  27
ATOM     27  O   UNL     1      -3.857   5.390  10.688  0.00  0.00    -0.483 OA
BRANCH  27  28
ATOM     28  C   UNL     1      -4.849   4.921  11.602  0.00  0.00    +0.270 C 
BRANCH  28  29
ATOM     29  C   UNL     1      -4.689   5.641  12.943  0.00  0.00    +0.270 C 
BRANCH  29  30
ATOM     30  O   UNL     1      -4.960   7.033  12.772  0.00  0.00    -0.489 OA
BRANCH  30  31
ATOM     31  C   UNL     1      -4.862   7.821  13.874  0.00  0.00    +0.121 A 
ATOM     32  C   UNL     1      -4.505   7.267  15.095  0.00  0.00    +0.045 A 
ATOM     33  C   UNL     1      -4.404   8.070  16.214  0.00  0.00    +0.004 A 
ATOM     34  C   UNL     1      -4.660   9.426  16.119  0.00  0.00    +0.000 A 
ATOM     35  C   UNL     1      -5.016   9.981  14.903  0.00  0.00    +0.004 A 
ATOM     36  C   UNL     1      -5.112   9.182  13.780  0.00  0.00    +0.045 A 
ENDBRANCH  30  31
ENDBRANCH  29  30
ENDBRANCH  28  29
ENDBRANCH  27  28
ENDBRANCH   4  27
TORSDOF 9
