REMARK  Name = ZINC38845822
REMARK  8 active torsions:
REMARK  status: ('A' for Active; 'I' for Inactive)
REMARK    1  A    between atoms: C_1  and  N_2
REMARK    2  A    between atoms: N_2  and  C_3
REMARK    3  A    between atoms: N_2  and  C_4
REMARK    4  A    between atoms: C_4  and  C_5
REMARK    5  A    between atoms: C_5  and  N_6
REMARK    6  A    between atoms: C_12  and  S_16
REMARK    7  A    between atoms: S_16  and  C_19
REMARK    8  A    between atoms: C_20  and  C_22
REMARK                            x       y       z     vdW  Elec       q    Type
REMARK                         _______ _______ _______ _____ _____    ______ ____
ROOT
ATOM      1  N   UNL     1       3.007  -0.579  -2.237  0.00  0.00    -0.251 N 
ATOM      2  C   UNL     1       3.170   0.178  -3.386  0.00  0.00    +0.168 A 
ATOM      3  N   UNL     1       2.890   1.445  -3.584  0.00  0.00    -0.224 NA
ATOM      4  C   UNL     1       3.103   2.059  -4.768  0.00  0.00    +0.080 A 
ATOM      5  C   UNL     1       2.846   3.407  -5.110  0.00  0.00    +0.031 A 
ATOM      6  C   UNL     1       3.122   3.874  -6.369  0.00  0.00    +0.029 A 
ATOM      7  C   UNL     1       3.659   3.050  -7.347  0.00  0.00    +0.089 A 
ATOM      8  C   UNL     1       3.923   1.726  -7.046  0.00  0.00    +0.044 A 
ATOM      9  C   UNL     1       3.650   1.249  -5.788  0.00  0.00    +0.043 A 
ATOM     10  S   UNL     1       3.823  -0.320  -4.974  0.00  0.00    -0.052 S 
ATOM     11  C   UNL     1       3.365  -1.879  -2.230  0.00  0.00    +0.233 C 
ATOM     12  O   UNL     1       3.910  -2.363  -3.199  0.00  0.00    -0.274 OA
ENDROOT
BRANCH  11  13
ATOM     13  C   UNL     1       3.087  -2.730  -1.018  0.00  0.00    +0.142 C 
ATOM     14  C   UNL     1       4.391  -3.189  -0.424  0.00  0.00    +0.011 A 
ATOM     15  C   UNL     1       5.133  -2.311   0.346  0.00  0.00    +0.008 A 
ATOM     16  C   UNL     1       6.332  -2.714   0.900  0.00  0.00    +0.001 A 
ATOM     17  C   UNL     1       6.796  -4.000   0.688  0.00  0.00    +0.004 A 
ATOM     18  C   UNL     1       6.059  -4.880  -0.079  0.00  0.00    +0.046 A 
ATOM     19  C   UNL     1       4.852  -4.478  -0.638  0.00  0.00    +0.133 A 
ATOM     20  O   UNL     1       4.143  -5.356  -1.387  0.00  0.00    -0.455 OA
ATOM     21  C   UNL     1       2.817  -5.163  -1.586  0.00  0.00    +0.133 A 
ATOM     22  C   UNL     1       2.247  -3.911  -1.422  0.00  0.00    +0.011 A 
ATOM     23  C   UNL     1       0.890  -3.739  -1.630  0.00  0.00    +0.008 A 
ATOM     24  C   UNL     1       0.102  -4.812  -2.001  0.00  0.00    +0.001 A 
ATOM     25  C   UNL     1       0.668  -6.062  -2.165  0.00  0.00    +0.004 A 
ATOM     26  C   UNL     1       2.022  -6.240  -1.959  0.00  0.00    +0.046 A 
ENDBRANCH  11  13
BRANCH   7  27
ATOM     27  S   UNL     1       4.002   3.683  -8.955  0.00  0.00    -0.006 S 
ATOM     28  O   UNL     1       3.930   2.552  -9.812  0.00  0.00    -0.170 OA
ATOM     29  O   UNL     1       3.103   4.771  -9.115  0.00  0.00    -0.170 OA
ATOM     30  C   UNL     1       5.709   4.290  -8.863  0.00  0.00    +0.200 C 
ENDBRANCH   7  27
BRANCH   1  31
ATOM     31  C   UNL     1       2.447   0.033  -1.030  0.00  0.00    +0.097 C 
BRANCH  31  32
ATOM     32  C   UNL     1       0.930  -0.171  -1.012  0.00  0.00    -0.060 C 
BRANCH  32  34
ATOM     33  C   UNL     1       0.582   1.782   0.337  0.00  0.00    -0.097 C 
ATOM     34  N   UNL     1       0.384   0.329   0.257  0.00  0.00    +0.377 N 
ATOM     35  C   UNL     1      -1.052   0.026   0.325  0.00  0.00    -0.097 C 
ATOM     36  H   UNL     1       0.859  -0.118   1.026  0.00  0.00    -0.083 HD
ENDBRANCH  32  34
ENDBRANCH  31  32
ENDBRANCH   1  31
TORSDOF 5
