REMARK  Name = ZINC11124369
REMARK  4 active torsions:
REMARK  status: ('A' for Active; 'I' for Inactive)
REMARK    1  A    between atoms: C_6  and  S_7
REMARK    2  A    between atoms: S_7  and  N_10
REMARK    3  A    between atoms: C_13  and  C_16
REMARK    4  A    between atoms: C_22  and  C_24
REMARK                            x       y       z     vdW  Elec       q    Type
REMARK                         _______ _______ _______ _____ _____    ______ ____
ROOT
ATOM      1  C   UNL     1       0.828  -1.999  -1.218  0.00  0.00    +0.224 C 
ATOM      2  O   UNL     1       0.219  -2.621  -0.373  0.00  0.00    -0.275 OA
ATOM      3  N   UNL     1       1.500  -2.656  -2.184  0.00  0.00    -0.238 N 
ATOM      4  C   UNL     1       1.495  -4.041  -2.213  0.00  0.00    +0.314 A 
ATOM      5  N   UNL     1       0.881  -4.832  -1.366  0.00  0.00    -0.092 NA
ATOM      6  N   UNL     1       1.091  -6.058  -1.696  0.00  0.00    -0.106 NA
ATOM      7  C   UNL     1       1.848  -6.097  -2.766  0.00  0.00    +0.250 A 
ATOM      8  O   UNL     1       2.114  -4.821  -3.119  0.00  0.00    -0.405 OA
ATOM      9  H   UNL     1       1.986  -2.158  -2.860  0.00  0.00    +0.159 HD
ENDROOT
BRANCH   7  10
ATOM     10  C   UNL     1       2.318  -7.313  -3.461  0.00  0.00    +0.039 A 
ATOM     11  C   UNL     1       3.119  -7.208  -4.600  0.00  0.00    +0.013 A 
ATOM     12  C   UNL     1       3.552  -8.350  -5.235  0.00  0.00    +0.004 A 
ATOM     13  C   UNL     1       3.191  -9.607  -4.762  0.00  0.00    -0.044 A 
ATOM     14  C   UNL     1       2.399  -9.718  -3.640  0.00  0.00    -0.043 A 
ATOM     15  C   UNL     1       1.961  -8.574  -2.989  0.00  0.00    +0.017 A 
ATOM     16  C   UNL     1       1.981 -11.049  -3.071  0.00  0.00    +0.035 C 
ATOM     17  C   UNL     1       2.163 -12.157  -4.106  0.00  0.00    +0.005 C 
ATOM     18  C   UNL     1       3.589 -12.068  -4.662  0.00  0.00    +0.005 C 
ATOM     19  C   UNL     1       3.693 -10.809  -5.521  0.00  0.00    +0.035 C 
ENDBRANCH   7  10
BRANCH   1  23
ATOM     20  N   UNL     1       1.366   2.019  -0.000  0.00  0.00    -0.177 NA
ATOM     21  C   UNL     1      -0.019   1.528   0.010  0.00  0.00    +0.110 C 
ATOM     22  C   UNL     1       0.002  -0.004   0.002  0.00  0.00    +0.030 C 
ATOM     23  C   UNL     1       0.834  -0.492  -1.186  0.00  0.00    +0.078 C 
ATOM     24  C   UNL     1       2.272   0.009  -1.045  0.00  0.00    +0.030 C 
ATOM     25  C   UNL     1       2.277   1.541  -1.048  0.00  0.00    +0.110 C 
BRANCH  20  26
ATOM     26  S   UNL     1       1.889   3.092   1.148  0.00  0.00    +0.061 S 
ATOM     27  O   UNL     1       2.997   3.781   0.585  0.00  0.00    -0.153 OA
ATOM     28  O   UNL     1       0.735   3.768   1.628  0.00  0.00    -0.153 OA
BRANCH  26  34
ATOM     29  C   UNL     1       1.677   1.774   3.529  0.00  0.00    +0.030 A 
ATOM     30  C   UNL     1       2.167   1.028   4.584  0.00  0.00    +0.022 A 
ATOM     31  C   UNL     1       3.502   0.664   4.612  0.00  0.00    +0.041 A 
ATOM     32  C   UNL     1       4.343   1.042   3.580  0.00  0.00    +0.022 A 
ATOM     33  C   UNL     1       3.850   1.783   2.523  0.00  0.00    +0.030 A 
ATOM     34  C   UNL     1       2.517   2.147   2.496  0.00  0.00    +0.106 A 
ATOM     35 CL   UNL     1       4.120  -0.268   5.940  0.00  0.00    -0.084 Cl
ENDBRANCH  26  34
ENDBRANCH  20  26
ENDBRANCH   1  23
TORSDOF 4
