REMARK  Name = ZINC30823020
REMARK  5 active torsions:
REMARK  status: ('A' for Active; 'I' for Inactive)
REMARK    1  A    between atoms: C_1  and  C_2
REMARK    2  A    between atoms: C_5  and  C_8
REMARK    3  A    between atoms: C_20  and  C_22
REMARK    4  A    between atoms: C_30  and  C_32
REMARK    5  A    between atoms: C_30  and  C_33
REMARK                            x       y       z     vdW  Elec       q    Type
REMARK                         _______ _______ _______ _____ _____    ______ ____
ROOT
ATOM      1  C   UNL     1      -4.744   1.621  -3.487  0.00  0.00    +0.252 C 
ATOM      2  O   UNL     1      -4.090   0.629  -3.743  0.00  0.00    -0.270 OA
ATOM      3  N   UNL     1      -4.123   2.777  -3.180  0.00  0.00    -0.251 N 
ATOM      4  C   UNL     1      -4.875   3.936  -3.006  0.00  0.00    +0.059 A 
ATOM      5  C   UNL     1      -5.569   4.512  -4.060  0.00  0.00    +0.025 A 
ATOM      6  C   UNL     1      -6.263   5.691  -3.855  0.00  0.00    +0.002 A 
ATOM      7  C   UNL     1      -6.266   6.296  -2.611  0.00  0.00    +0.002 A 
ATOM      8  C   UNL     1      -5.590   5.715  -1.551  0.00  0.00    +0.025 A 
ATOM      9  C   UNL     1      -4.916   4.523  -1.750  0.00  0.00    +0.053 A 
ATOM     10  N   UNL     1      -4.287   3.841  -0.714  0.00  0.00    -0.316 N 
ATOM     11  C   UNL     1      -2.952   3.599  -0.639  0.00  0.00    +0.017 C 
ATOM     12  C   UNL     1      -2.198   3.127  -1.645  0.00  0.00    +0.040 C 
ATOM     13  C   UNL     1      -2.683   2.797  -3.038  0.00  0.00    +0.182 C 
ATOM     14  C   UNL     1      -0.814   2.901  -1.454  0.00  0.00    +0.163 C 
ATOM     15  O   UNL     1      -0.159   2.456  -2.377  0.00  0.00    -0.292 OA
ATOM     16  C   UNL     1      -0.128   3.190  -0.153  0.00  0.00    +0.086 C 
ATOM     17  C   UNL     1      -0.876   4.327   0.553  0.00  0.00    -0.023 C 
ATOM     18  C   UNL     1      -2.334   3.886   0.719  0.00  0.00    +0.058 C 
ATOM     19  C   UNL     1      -0.247   4.590   1.923  0.00  0.00    +0.011 C 
ATOM     20  C   UNL     1      -0.814   5.596  -0.299  0.00  0.00    +0.011 C 
ATOM     21  H   UNL     1      -4.879   3.452   0.127  0.00  0.00    +0.152 HD
ENDROOT
BRANCH   1  26
ATOM     22  C   UNL     1     -10.492   1.379  -3.579  0.00  0.00    +0.044 C 
ATOM     23  C   UNL     1      -8.987   1.442  -3.555  0.00  0.00    -0.050 A 
ATOM     24  C   UNL     1      -8.250   0.621  -4.390  0.00  0.00    +0.004 A 
ATOM     25  C   UNL     1      -6.871   0.674  -4.373  0.00  0.00    +0.013 A 
ATOM     26  C   UNL     1      -6.221   1.559  -3.511  0.00  0.00    +0.037 A 
ATOM     27  C   UNL     1      -6.970   2.381  -2.668  0.00  0.00    +0.013 A 
ATOM     28  C   UNL     1      -8.348   2.322  -2.699  0.00  0.00    +0.004 A 
ENDBRANCH   1  26
BRANCH  13  29
ATOM     29  C   UNL     1      -2.122   3.819  -3.993  0.00  0.00    +0.130 A 
ATOM     30  C   UNL     1      -1.049   3.648  -4.787  0.00  0.00    +0.047 A 
ATOM     31  C   UNL     1      -0.882   4.850  -5.513  0.00  0.00    +0.041 A 
ATOM     32  C   UNL     1      -1.857   5.686  -5.114  0.00  0.00    +0.195 A 
ATOM     33  O   UNL     1      -2.606   5.056  -4.193  0.00  0.00    -0.466 OA
ENDBRANCH  13  29
TORSDOF 2
