REMARK  Name = ZINC09670049
REMARK  10 active torsions:
REMARK  status: ('A' for Active; 'I' for Inactive)
REMARK    1  A    between atoms: C_1  and  C_2
REMARK    2  A    between atoms: C_2  and  N_3
REMARK    3  A    between atoms: C_7  and  S_30
REMARK    4  A    between atoms: C_11  and  S_12
REMARK    5  A    between atoms: S_12  and  C_13
REMARK    6  A    between atoms: C_13  and  C_14
REMARK    7  A    between atoms: N_16  and  C_17
REMARK    8  A    between atoms: C_18  and  C_28
REMARK    9  A    between atoms: C_23  and  C_27
REMARK   10  A    between atoms: S_30  and  N_33
REMARK                            x       y       z     vdW  Elec       q    Type
REMARK                         _______ _______ _______ _____ _____    ______ ____
ROOT
ATOM      1  S   UNL     1       1.669   3.295   2.654  0.00  0.00    -0.078 S 
ENDROOT
BRANCH   1  10
ATOM      2  N   UNL     1      -0.020   1.094   2.454  0.00  0.00    -0.319 N 
ATOM      3  C   UNL     1      -0.258  -0.095   3.124  0.00  0.00    +0.070 A 
ATOM      4  C   UNL     1      -1.141  -1.147   2.931  0.00  0.00    +0.030 A 
ATOM      5  C   UNL     1      -1.125  -2.224   3.794  0.00  0.00    +0.030 A 
ATOM      6  C   UNL     1      -0.226  -2.265   4.850  0.00  0.00    +0.107 A 
ATOM      7  C   UNL     1       0.662  -1.232   5.052  0.00  0.00    +0.058 A 
ATOM      8  C   UNL     1       0.658  -0.134   4.188  0.00  0.00    +0.092 A 
ATOM      9  N   UNL     1       1.391   1.009   4.128  0.00  0.00    -0.222 NA
ATOM     10  C   UNL     1       0.994   1.732   3.110  0.00  0.00    +0.170 A 
BRANCH   6  11
ATOM     11  S   UNL     1      -0.221  -3.649   5.940  0.00  0.00    +0.056 S 
ATOM     12  O   UNL     1      -0.779  -4.737   5.217  0.00  0.00    -0.153 OA
ATOM     13  O   UNL     1       1.075  -3.704   6.520  0.00  0.00    -0.153 OA
BRANCH  11  14
ATOM     14  N   UNL     1      -1.276  -3.307   7.170  0.00  0.00    -0.204 NA
ATOM     15  H   UNL     1      -1.752  -4.025   7.615  0.00  0.00    +0.144 HD
ATOM     16  H   UNL     1      -1.418  -2.388   7.446  0.00  0.00    +0.144 HD
ENDBRANCH  11  14
ENDBRANCH   6  11
BRANCH   2  18
ATOM     17  C   UNL     1      -0.013   1.086   0.008  0.00  0.00    +0.027 C 
ATOM     18  C   UNL     1      -0.729   1.579   1.267  0.00  0.00    +0.121 C 
ENDBRANCH   2  18
ENDBRANCH   1  10
BRANCH   1  19
ATOM     19  C   UNL     1       2.927   3.481   3.942  0.00  0.00    +0.173 C 
BRANCH  19  20
ATOM     20  C   UNL     1       3.655   4.787   3.748  0.00  0.00    +0.228 C 
ATOM     21  O   UNL     1       3.352   5.519   2.830  0.00  0.00    -0.275 OA
ATOM     22  N   UNL     1       4.641   5.141   4.595  0.00  0.00    -0.278 N 
ATOM     23  H   UNL     1       4.883   4.555   5.330  0.00  0.00    +0.155 HD
BRANCH  22  24
ATOM     24  C   UNL     1       5.312   6.343   4.417  0.00  0.00    +0.090 A 
ATOM     25  C   UNL     1       6.340   6.878   5.179  0.00  0.00    +0.084 A 
ATOM     26  C   UNL     1       6.877   8.165   4.774  0.00  0.00    -0.018 A 
ATOM     27  C   UNL     1       6.297   8.713   3.683  0.00  0.00    -0.004 A 
ATOM     28  S   UNL     1       5.062   7.543   3.193  0.00  0.00    -0.077 S 
ATOM     29  C   UNL     1       6.636  10.023   3.042  0.00  0.00    +0.046 C 
ATOM     30  C   UNL     1       7.996  10.488   3.582  0.00  0.00    -0.009 C 
ATOM     31  C   UNL     1       7.993  10.357   5.108  0.00  0.00    +0.008 C 
ATOM     32  C   UNL     1       8.008   8.879   5.503  0.00  0.00    +0.037 C 
ATOM     33  C   UNL     1       8.232  11.948   3.190  0.00  0.00    +0.008 C 
BRANCH  25  34
ATOM     34  C   UNL     1       6.855   6.184   6.321  0.00  0.00    +0.102 C 
ATOM     35  N   UNL     1       7.264   5.635   7.227  0.00  0.00    -0.191 NA
ENDBRANCH  25  34
ENDBRANCH  22  24
ENDBRANCH  19  20
ENDBRANCH   1  19
TORSDOF 8
