REMARK  Name = ZINC12497421
REMARK  14 active torsions:
REMARK  status: ('A' for Active; 'I' for Inactive)
REMARK    1  A    between atoms: C_1  and  C_2
REMARK    2  A    between atoms: C_2  and  O_3
REMARK    3  A    between atoms: O_3  and  C_4
REMARK    4  A    between atoms: C_4  and  C_6
REMARK    5  A    between atoms: C_6  and  C_34
REMARK    6  A    between atoms: C_11  and  C_13
REMARK    7  A    between atoms: C_16  and  O_21
REMARK    8  A    between atoms: C_17  and  O_19
REMARK    9  A    between atoms: O_19  and  C_20
REMARK   10  A    between atoms: N_24  and  C_27
REMARK   11  A    between atoms: C_30  and  C_33
REMARK   12  A    between atoms: C_34  and  C_35
REMARK   13  A    between atoms: C_35  and  S_36
REMARK   14  A    between atoms: S_36  and  C_37
REMARK                            x       y       z     vdW  Elec       q    Type
REMARK                         _______ _______ _______ _____ _____    ______ ____
ROOT
ATOM      1  C   UNL     1       2.234   0.599  -0.150  0.00  0.00    +0.044 C 
ATOM      2  C   UNL     1       1.329  -0.368  -0.923  0.00  0.00    +0.086 C 
ATOM      3  C   UNL     1       0.032  -0.116  -0.053  0.00  0.00    +0.077 C 
ATOM      4  C   UNL     1      -0.061   1.353  -0.027  0.00  0.00    -0.027 C 
ATOM      5  C   UNL     1      -0.777  -1.260  -0.414  0.00  0.00    +0.229 C 
ATOM      6  O   UNL     1      -1.981  -1.305  -0.544  0.00  0.00    -0.275 OA
ATOM      7  N   UNL     1       0.124  -2.283  -0.575  0.00  0.00    -0.210 N 
ATOM      8  C   UNL     1       1.416  -1.843  -0.642  0.00  0.00    +0.229 C 
ATOM      9  O   UNL     1       2.423  -2.504  -0.503  0.00  0.00    -0.275 OA
ATOM     10  N   UNL     1       1.362   1.800  -0.004  0.00  0.00    +0.395 N 
ATOM     11  H   UNL     1       1.534   2.450  -0.780  0.00  0.00    -0.083 HD
ATOM     12  H   UNL     1       1.564   2.269   0.887  0.00  0.00    -0.083 HD
ENDROOT
BRANCH   7  13
ATOM     13  C   UNL     1      -0.242  -3.633  -0.662  0.00  0.00    +0.044 A 
ATOM     14  C   UNL     1       0.732  -4.608  -0.830  0.00  0.00    +0.024 A 
ATOM     15  C   UNL     1       0.369  -5.938  -0.911  0.00  0.00    +0.005 A 
ATOM     16  C   UNL     1      -0.964  -6.298  -0.834  0.00  0.00    -0.050 A 
ATOM     17  C   UNL     1      -1.937  -5.329  -0.671  0.00  0.00    +0.005 A 
ATOM     18  C   UNL     1      -1.579  -3.998  -0.585  0.00  0.00    +0.024 A 
ATOM     19  C   UNL     1      -1.357  -7.750  -0.927  0.00  0.00    +0.044 C 
ENDBRANCH   7  13
BRANCH   4  20
ATOM     20  C   UNL     1      -0.758   1.859  -1.263  0.00  0.00    -0.057 A 
ATOM     21  C   UNL     1      -0.059   1.971  -2.451  0.00  0.00    +0.006 A 
ATOM     22  C   UNL     1      -0.694   2.435  -3.588  0.00  0.00    +0.049 A 
ATOM     23  C   UNL     1      -2.033   2.788  -3.540  0.00  0.00    +0.158 A 
ATOM     24  C   UNL     1      -2.736   2.675  -2.344  0.00  0.00    +0.161 A 
ATOM     25  C   UNL     1      -2.095   2.204  -1.209  0.00  0.00    +0.051 A 
BRANCH  24  26
ATOM     26  O   UNL     1      -4.050   3.020  -2.291  0.00  0.00    -0.491 OA
ATOM     27  C   UNL     1      -4.708   2.878  -1.030  0.00  0.00    +0.277 C 
ENDBRANCH  24  26
BRANCH  23  28
ATOM     28  O   UNL     1      -2.659   3.245  -4.657  0.00  0.00    -0.503 OA
ATOM     29  H   UNL     1      -3.065   2.550  -5.192  0.00  0.00    +0.292 HD
ENDBRANCH  23  28
ENDBRANCH   4  20
BRANCH   1  30
ATOM     30  C   UNL     1       3.474   0.922  -0.945  0.00  0.00    +0.297 C 
ATOM     31  O   UNL     1       3.876   0.145  -1.778  0.00  0.00    -0.252 OA
BRANCH  30  32
ATOM     32  O   UNL     1       4.131   2.072  -0.726  0.00  0.00    -0.466 OA
BRANCH  32  34
ATOM     33  C   UNL     1       5.925   3.665  -1.140  0.00  0.00    +0.048 C 
ATOM     34  C   UNL     1       5.316   2.316  -1.528  0.00  0.00    +0.228 C 
ENDBRANCH  32  34
ENDBRANCH  30  32
ENDBRANCH   1  30
BRANCH   1  35
ATOM     35  C   UNL     1       2.600   0.024   1.219  0.00  0.00    +0.010 C 
BRANCH  35  36
ATOM     36  C   UNL     1       3.565   0.974   1.931  0.00  0.00    +0.068 C 
BRANCH  36  37
ATOM     37  S   UNL     1       3.998   0.291   3.555  0.00  0.00    -0.164 S 
ATOM     38  C   UNL     1       5.132   1.520   4.259  0.00  0.00    +0.084 C 
ENDBRANCH  36  37
ENDBRANCH  35  36
ENDBRANCH   1  35
TORSDOF 10
