REMARK  Name = ZINC34764978
REMARK  7 active torsions:
REMARK  status: ('A' for Active; 'I' for Inactive)
REMARK    1  A    between atoms: C_1  and  S_2
REMARK    2  A    between atoms: S_2  and  C_3
REMARK    3  A    between atoms: C_8  and  N_9
REMARK    4  A    between atoms: C_10  and  C_12
REMARK    5  A    between atoms: C_12  and  N_13
REMARK    6  A    between atoms: N_16  and  S_19
REMARK    7  A    between atoms: S_19  and  C_22
REMARK                            x       y       z     vdW  Elec       q    Type
REMARK                         _______ _______ _______ _____ _____    ______ ____
ROOT
ATOM      1  N   UNL     1       0.925  -6.455   0.765  0.00  0.00    -0.291 NA
ATOM      2  C   UNL     1       0.222  -6.796   2.009  0.00  0.00    +0.102 C 
ATOM      3  C   UNL     1       0.830  -8.072   2.602  0.00  0.00    +0.125 C 
ATOM      4  N   UNL     1       0.813  -9.120   1.571  0.00  0.00    -0.174 NA
ATOM      5  C   UNL     1       1.377  -8.806   0.250  0.00  0.00    +0.125 C 
ATOM      6  C   UNL     1       0.748  -7.502  -0.251  0.00  0.00    +0.102 C 
ENDROOT
BRANCH   4   7
ATOM      7  S   UNL     1       0.176 -10.615   1.890  0.00  0.00    +0.061 S 
ATOM      8  O   UNL     1       0.784 -11.519   0.977  0.00  0.00    -0.153 OA
ATOM      9  O   UNL     1       0.244 -10.794   3.298  0.00  0.00    -0.153 OA
BRANCH   7  10
ATOM     10  C   UNL     1      -1.534 -10.553   1.472  0.00  0.00    +0.106 A 
ATOM     11  C   UNL     1      -2.463 -10.170   2.438  0.00  0.00    +0.029 A 
ATOM     12  C   UNL     1      -3.792 -10.112   2.149  0.00  0.00    +0.010 A 
ATOM     13  C   UNL     1      -4.237 -10.441   0.857  0.00  0.00    -0.018 A 
ATOM     14  C   UNL     1      -5.601 -10.392   0.521  0.00  0.00    +0.008 A 
ATOM     15  C   UNL     1      -5.995 -10.718  -0.740  0.00  0.00    +0.001 A 
ATOM     16  C   UNL     1      -5.066 -11.100  -1.707  0.00  0.00    +0.001 A 
ATOM     17  C   UNL     1      -3.738 -11.159  -1.417  0.00  0.00    +0.008 A 
ATOM     18  C   UNL     1      -3.293 -10.830  -0.125  0.00  0.00    -0.016 A 
ATOM     19  C   UNL     1      -1.928 -10.873   0.210  0.00  0.00    +0.037 A 
ENDBRANCH   7  10
ENDBRANCH   4   7
BRANCH   1  20
ATOM     20  C   UNL     1       0.489  -5.148   0.255  0.00  0.00    +0.180 C 
BRANCH  20  22
ATOM     21  N   UNL     1       0.613  -2.780   0.957  0.00  0.00    -0.284 N 
ATOM     22  C   UNL     1       0.907  -4.068   1.219  0.00  0.00    +0.231 C 
ATOM     23  O   UNL     1       1.509  -4.359   2.232  0.00  0.00    -0.274 OA
ATOM     24  H   UNL     1       0.063  -2.554   0.190  0.00  0.00    +0.155 HD
BRANCH  21  30
ATOM     25  C   UNL     1       0.435  -0.541   1.868  0.00  0.00    +0.029 A 
ATOM     26  C   UNL     1       0.921   0.457   2.701  0.00  0.00    +0.016 A 
ATOM     27  C   UNL     1       2.064   0.238   3.447  0.00  0.00    +0.001 A 
ATOM     28  C   UNL     1       2.726  -0.973   3.367  0.00  0.00    +0.002 A 
ATOM     29  C   UNL     1       2.250  -1.973   2.540  0.00  0.00    +0.024 A 
ATOM     30  C   UNL     1       1.101  -1.765   1.792  0.00  0.00    +0.047 A 
BRANCH  25  32
ATOM     31  C   UNL     1      -1.512   1.427   1.343  0.00  0.00    +0.090 C 
ATOM     32  S   UNL     1      -1.022  -0.267   0.916  0.00  0.00    -0.127 S 
ENDBRANCH  25  32
ENDBRANCH  21  30
ENDBRANCH  20  22
ENDBRANCH   1  20
TORSDOF 6
