REMARK  Name = ZINC40630740
REMARK  3 active torsions:
REMARK  status: ('A' for Active; 'I' for Inactive)
REMARK    1  A    between atoms: C_4  and  C_7
REMARK    2  A    between atoms: C_11  and  C_13
REMARK    3  A    between atoms: N_15  and  C_16
REMARK                            x       y       z     vdW  Elec       q    Type
REMARK                         _______ _______ _______ _____ _____    ______ ____
ROOT
ATOM      1  C   UNL     1       4.977  -4.229  -0.087  0.00  0.00    +0.248 C 
ATOM      2  O   UNL     1       3.939  -4.861  -0.082  0.00  0.00    -0.270 OA
ATOM      3  N   UNL     1       6.160  -4.875  -0.094  0.00  0.00    -0.279 N 
ATOM      4  H   UNL     1       6.986  -4.373  -0.164  0.00  0.00    +0.155 HD
ENDROOT
BRANCH   3   5
ATOM      5  C   UNL     1       6.194  -6.272  -0.002  0.00  0.00    +0.078 A 
ATOM      6  C   UNL     1       5.195  -7.036  -0.592  0.00  0.00    +0.027 A 
ATOM      7  C   UNL     1       5.228  -8.414  -0.501  0.00  0.00    +0.004 A 
ATOM      8  C   UNL     1       6.257  -9.043   0.177  0.00  0.00    +0.027 A 
ATOM      9  C   UNL     1       7.258  -8.290   0.768  0.00  0.00    +0.078 A 
ATOM     10  C   UNL     1       7.232  -6.901   0.676  0.00  0.00    +0.163 A 
ATOM     11  O   UNL     1       8.222  -6.172   1.258  0.00  0.00    -0.479 OA
ATOM     12  C   UNL     1       8.792  -6.704   2.457  0.00  0.00    +0.325 C 
ATOM     13  C   UNL     1       9.092  -8.169   2.267  0.00  0.00    +0.255 C 
ATOM     14  O   UNL     1      10.027  -8.680   2.847  0.00  0.00    -0.272 OA
ATOM     15  N   UNL     1       8.309  -8.911   1.459  0.00  0.00    -0.280 N 
ATOM     16  H   UNL     1       8.477  -9.860   1.349  0.00  0.00    +0.155 HD
ENDBRANCH   3   5
BRANCH   1  21
ATOM     17  C   UNL     1       3.697  -0.690  -0.076  0.00  0.00    -0.017 A 
ATOM     18  C   UNL     1       4.894   0.026  -0.082  0.00  0.00    +0.008 A 
ATOM     19  C   UNL     1       6.102  -0.643  -0.089  0.00  0.00    +0.001 A 
ATOM     20  C   UNL     1       6.134  -2.023  -0.091  0.00  0.00    +0.013 A 
ATOM     21  C   UNL     1       4.942  -2.751  -0.085  0.00  0.00    +0.038 A 
ATOM     22  C   UNL     1       3.720  -2.080  -0.072  0.00  0.00    +0.021 A 
BRANCH  17  26
ATOM     23  C   UNL     1      -0.020   1.376  -0.053  0.00  0.00    +0.000 A 
ATOM     24  C   UNL     1       1.165   2.090  -0.064  0.00  0.00    +0.001 A 
ATOM     25  C   UNL     1       2.374   1.424  -0.072  0.00  0.00    +0.008 A 
ATOM     26  C   UNL     1       2.400   0.031  -0.068  0.00  0.00    -0.018 A 
ATOM     27  C   UNL     1       1.203  -0.682  -0.057  0.00  0.00    +0.008 A 
ATOM     28  C   UNL     1      -0.001  -0.007  -0.050  0.00  0.00    +0.001 A 
ENDBRANCH  17  26
ENDBRANCH   1  21
TORSDOF 3
