REMARK  Name = ZINC02973591
REMARK  12 active torsions:
REMARK  status: ('A' for Active; 'I' for Inactive)
REMARK    1  A    between atoms: C_1  and  C_2
REMARK    2  A    between atoms: C_2  and  O_3
REMARK    3  A    between atoms: O_3  and  C_4
REMARK    4  A    between atoms: C_4  and  C_5
REMARK    5  A    between atoms: C_4  and  O_32
REMARK    6  A    between atoms: C_5  and  C_6
REMARK    7  A    between atoms: C_6  and  N_7
REMARK    8  A    between atoms: C_8  and  C_10
REMARK    9  A    between atoms: N_19  and  C_22
REMARK   10  A    between atoms: C_22  and  C_23
REMARK   11  A    between atoms: O_32  and  C_33
REMARK   12  A    between atoms: C_33  and  C_34
REMARK                            x       y       z     vdW  Elec       q    Type
REMARK                         _______ _______ _______ _____ _____    ______ ____
ROOT
ATOM      1  C   UNL     1      -6.723  -0.585   5.737  0.00  0.00    +0.039 A 
ATOM      2  C   UNL     1      -7.115   0.575   5.062  0.00  0.00    +0.014 A 
ATOM      3  C   UNL     1      -7.050   0.633   3.687  0.00  0.00    +0.016 A 
ATOM      4  C   UNL     1      -6.591  -0.469   2.970  0.00  0.00    +0.065 A 
ATOM      5  C   UNL     1      -6.196  -1.637   3.643  0.00  0.00    +0.080 A 
ATOM      6  C   UNL     1      -6.263  -1.691   5.026  0.00  0.00    +0.041 A 
ATOM      7  N   UNL     1      -5.743  -2.717   2.898  0.00  0.00    -0.222 NA
ATOM      8  C   UNL     1      -5.689  -2.650   1.556  0.00  0.00    +0.183 A 
ATOM      9  S   UNL     1      -5.128  -4.016   0.690  0.00  0.00    -0.011 SA
ATOM     10  N   UNL     1      -6.050  -1.556   0.868  0.00  0.00    -0.282 N 
ATOM     11  C   UNL     1      -6.505  -0.450   1.496  0.00  0.00    +0.263 A 
ATOM     12  O   UNL     1      -6.835   0.535   0.864  0.00  0.00    -0.267 OA
ENDROOT
BRANCH   1  14
ATOM     13  N   UNL     1      -7.241   0.431   7.906  0.00  0.00    -0.311 N 
ATOM     14  C   UNL     1      -6.796  -0.637   7.215  0.00  0.00    +0.244 C 
ATOM     15  O   UNL     1      -6.456  -1.644   7.805  0.00  0.00    -0.270 OA
ATOM     16  H   UNL     1      -7.549   1.342   7.372  0.00  0.00    +0.149 HD
BRANCH  13  17
ATOM     17  C   UNL     1      -7.314   0.379   9.368  0.00  0.00    +0.109 C 
BRANCH  17  18
ATOM     18  C   UNL     1      -7.847   1.711   9.900  0.00  0.00    +0.080 C 
BRANCH  18  19
ATOM     19  C   UNL     1      -7.923   1.657  11.427  0.00  0.00    +0.251 C 
BRANCH  19  20
ATOM     20  O   UNL     1      -6.605   1.535  11.966  0.00  0.00    -0.352 OA
BRANCH  20  22
ATOM     21  C   UNL     1      -5.121   0.881  13.757  0.00  0.00    +0.034 C 
ATOM     22  C   UNL     1      -6.547   0.827  13.205  0.00  0.00    +0.159 C 
ENDBRANCH  20  22
ENDBRANCH  19  20
BRANCH  19  23
ATOM     23  O   UNL     1      -8.529   2.855  11.916  0.00  0.00    -0.352 OA
BRANCH  23  24
ATOM     24  C   UNL     1      -8.932   2.785  13.286  0.00  0.00    +0.159 C 
ATOM     25  C   UNL     1      -9.711   4.049  13.653  0.00  0.00    +0.034 C 
ENDBRANCH  23  24
ENDBRANCH  19  23
ENDBRANCH  18  19
ENDBRANCH  17  18
ENDBRANCH  13  17
ENDBRANCH   1  14
BRANCH  10  26
ATOM     26  C   UNL     1      -5.955  -1.564  -0.594  0.00  0.00    +0.162 C 
BRANCH  26  27
ATOM     27  C   UNL     1      -4.594  -1.068  -1.012  0.00  0.00    -0.024 A 
ATOM     28  C   UNL     1      -4.389   0.282  -1.229  0.00  0.00    +0.009 A 
ATOM     29  C   UNL     1      -3.144   0.741  -1.619  0.00  0.00    +0.050 A 
ATOM     30  C   UNL     1      -2.097  -0.151  -1.785  0.00  0.00    +0.166 A 
ATOM     31  C   UNL     1      -2.302  -1.510  -1.559  0.00  0.00    +0.167 A 
ATOM     32  C   UNL     1      -3.552  -1.963  -1.169  0.00  0.00    +0.055 A 
ATOM     33  O   UNL     1      -1.131  -2.172  -1.787  0.00  0.00    -0.453 OA
ATOM     34  C   UNL     1      -0.316  -1.261  -2.549  0.00  0.00    +0.466 C 
ATOM     35  O   UNL     1      -0.797   0.038  -2.155  0.00  0.00    -0.453 OA
ENDBRANCH  26  27
ENDBRANCH  10  26
TORSDOF 10
