REMARK  Name = ZINC39534470
REMARK  10 active torsions:
REMARK  status: ('A' for Active; 'I' for Inactive)
REMARK    1  A    between atoms: C_1  and  C_2
REMARK    2  A    between atoms: C_2  and  C_3
REMARK    3  A    between atoms: C_2  and  S_4
REMARK    4  A    between atoms: S_4  and  C_7
REMARK    5  A    between atoms: C_10  and  C_13
REMARK    6  A    between atoms: C_13  and  C_15
REMARK    7  A    between atoms: C_13  and  N_18
REMARK    8  A    between atoms: C_15  and  N_16
REMARK    9  A    between atoms: C_22  and  O_25
REMARK   10  A    between atoms: O_25  and  C_26
REMARK                            x       y       z     vdW  Elec       q    Type
REMARK                         _______ _______ _______ _____ _____    ______ ____
ROOT
ATOM      1  C   UNL     1       6.414   1.716  -1.114  0.00  0.00    +0.102 C 
ENDROOT
BRANCH   1   2
ATOM      2  N   UNL     1       6.910   1.331   0.213  0.00  0.00    -0.289 NA
ATOM      3  C   UNL     1       7.796   2.365   0.766  0.00  0.00    +0.100 C 
ATOM      4  C   UNL     1       8.227   1.963   2.178  0.00  0.00    +0.098 C 
ATOM      5  N   UNL     1       8.908   0.662   2.128  0.00  0.00    -0.289 NA
ATOM      6  C   UNL     1       8.022  -0.373   1.576  0.00  0.00    +0.200 C 
ATOM      7  C   UNL     1       7.591   0.029   0.164  0.00  0.00    +0.132 C 
ATOM      8  H   UNL     1       9.766   0.722   1.600  0.00  0.00    +0.124 HD
BRANCH   6   9
ATOM      9  O   UNL     1       8.718  -1.620   1.526  0.00  0.00    -0.364 OA
ATOM     10  C   UNL     1       8.870  -2.252   2.799  0.00  0.00    +0.196 C 
ENDBRANCH   6   9
ENDBRANCH   1   2
BRANCH   1  14
ATOM     11  C   UNL     1       2.417   0.295  -1.611  0.00  0.00    +0.088 A 
ATOM     12  C   UNL     1       2.745   1.582  -1.993  0.00  0.00    +0.027 A 
ATOM     13  C   UNL     1       4.039   2.042  -1.832  0.00  0.00    +0.007 A 
ATOM     14  C   UNL     1       5.004   1.215  -1.289  0.00  0.00    -0.029 A 
ATOM     15  C   UNL     1       4.675  -0.072  -0.906  0.00  0.00    +0.007 A 
ATOM     16  C   UNL     1       3.381  -0.531  -1.063  0.00  0.00    +0.027 A 
BRANCH  11  17
ATOM     17  S   UNL     1       0.768  -0.291  -1.816  0.00  0.00    -0.001 S 
ATOM     18  O   UNL     1       0.896  -1.702  -1.927  0.00  0.00    -0.169 OA
ATOM     19  O   UNL     1       0.242   0.475  -2.891  0.00  0.00    -0.169 OA
BRANCH  17  21
ATOM     20  C   UNL     1      -0.035   1.657  -0.072  0.00  0.00    +0.032 C 
ATOM     21  C   UNL     1      -0.076   0.140  -0.270  0.00  0.00    +0.130 C 
ATOM     22  C   UNL     1      -1.532  -0.327  -0.336  0.00  0.00    +0.032 C 
ENDBRANCH  17  21
ENDBRANCH  11  17
ENDBRANCH   1  14
BRANCH   1  23
ATOM     23  C   UNL     1       7.311   1.102  -2.192  0.00  0.00    +0.117 C 
BRANCH  23  24
ATOM     24  N   UNL     1       8.697   1.543  -1.985  0.00  0.00    -0.254 NA
ATOM     25 BR   UNL     1       9.819   0.824  -3.268  0.00  0.00    +0.010 Br
ATOM     26  H   UNL     1       8.758   2.550  -1.974  0.00  0.00    +0.135 HD
ENDBRANCH  23  24
ENDBRANCH   1  23
TORSDOF 7
