REMARK  Name = ZINC39560879
REMARK  12 active torsions:
REMARK  status: ('A' for Active; 'I' for Inactive)
REMARK    1  A    between atoms: C_1  and  N_2
REMARK    2  A    between atoms: N_2  and  C_3
REMARK    3  A    between atoms: N_2  and  C_4
REMARK    4  A    between atoms: C_4  and  C_5
REMARK    5  A    between atoms: C_5  and  N_6
REMARK    6  A    between atoms: N_6  and  C_7
REMARK    7  A    between atoms: C_10  and  C_32
REMARK    8  A    between atoms: C_26  and  C_28
REMARK    9  A    between atoms: C_28  and  O_30
REMARK   10  A    between atoms: O_30  and  C_31
REMARK   11  A    between atoms: C_36  and  O_38
REMARK   12  A    between atoms: O_38  and  C_39
REMARK                            x       y       z     vdW  Elec       q    Type
REMARK                         _______ _______ _______ _____ _____    ______ ____
ROOT
ATOM      1  C   UNL     1      -3.787  -4.067  -0.782  0.00  0.00    -0.068 C 
ATOM      2  C   UNL     1      -2.819  -4.465   0.335  0.00  0.00    +0.008 C 
ATOM      3  C   UNL     1      -2.460  -5.946   0.194  0.00  0.00    +0.087 C 
ATOM      4  N   UNL     1      -3.684  -6.752   0.268  0.00  0.00    -0.274 NA
ATOM      5  C   UNL     1      -4.596  -6.425  -0.839  0.00  0.00    +0.106 C 
ATOM      6  C   UNL     1      -5.028  -4.963  -0.721  0.00  0.00    +0.009 C 
ATOM      7  C   UNL     1      -5.803  -7.325  -0.739  0.00  0.00    +0.063 C 
ATOM      8  N   UNL     1      -6.969  -7.190  -1.317  0.00  0.00    -0.250 NA
ATOM      9  C   UNL     1      -7.761  -8.211  -0.961  0.00  0.00    +0.068 C 
ATOM     10  C   UNL     1      -9.077  -8.505  -1.315  0.00  0.00    +0.028 C 
ATOM     11  C   UNL     1      -9.653  -9.672  -0.771  0.00  0.00    -0.002 C 
ATOM     12  C   UNL     1      -9.012 -10.494   0.052  0.00  0.00    -0.022 C 
ATOM     13  C   UNL     1      -7.597 -10.308   0.522  0.00  0.00    +0.064 C 
ATOM     14  C   UNL     1      -7.022  -9.058  -0.081  0.00  0.00    -0.013 C 
ATOM     15  C   UNL     1      -5.809  -8.498   0.048  0.00  0.00    -0.017 C 
ATOM     16  C   UNL     1      -4.613  -8.952   0.847  0.00  0.00    +0.067 C 
ATOM     17  C   UNL     1      -3.386  -8.187   0.332  0.00  0.00    +0.172 C 
ENDROOT
BRANCH   3  18
ATOM     18  C   UNL     1      -1.526  -6.345   1.308  0.00  0.00    -0.027 A 
ATOM     19  C   UNL     1      -2.031  -6.627   2.565  0.00  0.00    +0.005 A 
ATOM     20  C   UNL     1      -1.178  -6.994   3.589  0.00  0.00    +0.004 A 
ATOM     21  C   UNL     1       0.182  -7.078   3.359  0.00  0.00    +0.045 A 
ATOM     22  C   UNL     1       0.691  -6.795   2.100  0.00  0.00    +0.120 A 
ATOM     23  C   UNL     1      -0.168  -6.434   1.072  0.00  0.00    +0.050 A 
BRANCH  22  24
ATOM     24  O   UNL     1       2.028  -6.878   1.872  0.00  0.00    -0.495 OA
ATOM     25  C   UNL     1       2.852  -7.261   2.975  0.00  0.00    +0.277 C 
ENDBRANCH  22  24
ENDBRANCH   3  18
BRANCH   1  26
ATOM     26  N   UNL     1      -4.186  -2.664  -0.609  0.00  0.00    +0.382 N 
ATOM     27  H   UNL     1      -4.564  -2.534   0.317  0.00  0.00    -0.085 HD
ATOM     28  H   UNL     1      -4.887  -2.426  -1.295  0.00  0.00    -0.085 HD
BRANCH  26  29
ATOM     29  C   UNL     1      -3.014  -1.797  -0.786  0.00  0.00    -0.067 C 
BRANCH  29  30
ATOM     30  C   UNL     1      -3.429  -0.335  -0.606  0.00  0.00    +0.065 C 
BRANCH  30  32
ATOM     31  C   UNL     1      -2.653   1.945  -0.853  0.00  0.00    +0.104 C 
ATOM     32  N   UNL     1      -2.257   0.532  -0.783  0.00  0.00    -0.310 NA
ATOM     33  C   UNL     1      -1.274   0.314   0.286  0.00  0.00    +0.104 C 
ENDBRANCH  30  32
ENDBRANCH  29  30
ENDBRANCH  26  29
ENDBRANCH   1  26
BRANCH  17  34
ATOM     34  C   UNL     1      -3.026  -8.685  -1.044  0.00  0.00    +0.325 C 
ATOM     35  O   UNL     1      -3.730  -8.414  -1.988  0.00  0.00    -0.249 OA
BRANCH  34  36
ATOM     36  O   UNL     1      -1.923  -9.429  -1.221  0.00  0.00    -0.467 OA
ATOM     37  C   UNL     1      -1.643  -9.867  -2.552  0.00  0.00    +0.280 C 
ENDBRANCH  34  36
ENDBRANCH  17  34
TORSDOF 8
