REMARK  Name = ZINC21808498
REMARK  8 active torsions:
REMARK  status: ('A' for Active; 'I' for Inactive)
REMARK    1  A    between atoms: C_1  and  C_2
REMARK    2  A    between atoms: C_2  and  C_25
REMARK    3  A    between atoms: N_14  and  C_15
REMARK    4  A    between atoms: C_15  and  C_16
REMARK    5  A    between atoms: C_16  and  N_17
REMARK    6  A    between atoms: N_17  and  C_18
REMARK    7  A    between atoms: N_17  and  C_19
REMARK    8  A    between atoms: N_27  and  C_28
REMARK                            x       y       z     vdW  Elec       q    Type
REMARK                         _______ _______ _______ _____ _____    ______ ____
ROOT
ATOM      1  C   UNL     1       0.336   6.306  -1.492  0.00  0.00    +0.043 C 
ATOM      2  C   UNL     1      -0.118   6.150  -2.945  0.00  0.00    +0.128 C 
ATOM      3  C   UNL     1      -0.063   7.518  -3.626  0.00  0.00    +0.157 C 
ATOM      4  N   UNL     1      -1.183   8.335  -3.152  0.00  0.00    -0.333 N 
ATOM      5  C   UNL     1      -1.265   9.710  -3.034  0.00  0.00    +0.057 A 
ATOM      6  C   UNL     1      -0.463  10.840  -3.252  0.00  0.00    +0.034 A 
ATOM      7  C   UNL     1      -0.947  12.075  -3.004  0.00  0.00    +0.048 A 
ATOM      8  S   UNL     1      -2.604  11.737  -2.433  0.00  0.00    -0.095 S 
ATOM      9  C   UNL     1      -2.559   9.968  -2.555  0.00  0.00    +0.038 A 
ATOM     10  C   UNL     1      -3.238   8.768  -2.381  0.00  0.00    +0.048 A 
ATOM     11  C   UNL     1      -2.385   7.768  -2.742  0.00  0.00    +0.106 A 
ATOM     12  C   UNL     1      -2.566   6.312  -2.743  0.00  0.00    +0.264 C 
ATOM     13  O   UNL     1      -3.654   5.801  -2.555  0.00  0.00    -0.268 OA
ATOM     14  N   UNL     1      -1.455   5.568  -2.960  0.00  0.00    -0.282 N 
ENDROOT
BRANCH   2  15
ATOM     15  C   UNL     1       0.828   5.215  -3.653  0.00  0.00    +0.238 C 
ATOM     16  O   UNL     1       1.892   4.930  -3.145  0.00  0.00    -0.273 OA
ATOM     17  N   UNL     1       0.491   4.696  -4.850  0.00  0.00    -0.311 N 
ATOM     18  H   UNL     1      -0.435   5.017  -5.348  0.00  0.00    +0.149 HD
BRANCH  17  19
ATOM     19  C   UNL     1       1.360   3.703  -5.487  0.00  0.00    +0.073 C 
ATOM     20  C   UNL     1       2.462   4.417  -6.271  0.00  0.00    +0.022 C 
ATOM     21  C   UNL     1       3.369   3.380  -6.937  0.00  0.00    +0.002 C 
ATOM     22  C   UNL     1       2.542   2.517  -7.892  0.00  0.00    +0.000 C 
ATOM     23  C   UNL     1       1.439   1.802  -7.108  0.00  0.00    +0.002 C 
ATOM     24  C   UNL     1       0.532   2.840  -6.442  0.00  0.00    +0.022 C 
ENDBRANCH  17  19
ENDBRANCH   2  15
BRANCH  14  25
ATOM     25  C   UNL     1      -1.602   4.135  -3.224  0.00  0.00    +0.091 C 
BRANCH  25  26
ATOM     26  C   UNL     1      -1.409   3.354  -1.922  0.00  0.00    -0.060 C 
BRANCH  26  27
ATOM     27  N   UNL     1      -1.555   1.917  -2.186  0.00  0.00    +0.381 N 
ATOM     28  C   UNL     1      -2.931   1.593  -2.587  0.00  0.00    -0.096 C 
ATOM     29  H   UNL     1      -0.890   1.657  -3.023  0.00  0.00    -0.082 HD
BRANCH  27  30
ATOM     30  C   UNL     1      -1.146   1.122  -1.020  0.00  0.00    -0.069 C 
ATOM     31  C   UNL     1       0.320   1.414  -0.694  0.00  0.00    -0.015 C 
ATOM     32  C   UNL     1       0.747   0.586   0.520  0.00  0.00    -0.002 C 
ATOM     33  C   UNL     1       0.580  -0.902   0.207  0.00  0.00    -0.000 C 
ATOM     34  C   UNL     1      -0.886  -1.194  -0.119  0.00  0.00    -0.002 C 
ATOM     35  C   UNL     1      -1.313  -0.366  -1.333  0.00  0.00    -0.015 C 
ENDBRANCH  27  30
ENDBRANCH  26  27
ENDBRANCH  25  26
ENDBRANCH  14  25
TORSDOF 6
