REMARK  Name = ZINC12561477
REMARK  11 active torsions:
REMARK  status: ('A' for Active; 'I' for Inactive)
REMARK    1  A    between atoms: C_1  and  C_2
REMARK    2  A    between atoms: C_7  and  C_9
REMARK    3  A    between atoms: C_7  and  C_10
REMARK    4  A    between atoms: N_11  and  C_13
REMARK    5  A    between atoms: C_13  and  C_14
REMARK    6  A    between atoms: C_14  and  C_16
REMARK    7  A    between atoms: C_14  and  O_33
REMARK    8  A    between atoms: C_16  and  O_17
REMARK    9  A    between atoms: O_17  and  C_18
REMARK   10  A    between atoms: C_18  and  C_19
REMARK   11  A    between atoms: C_18  and  C_26
REMARK                            x       y       z     vdW  Elec       q    Type
REMARK                         _______ _______ _______ _____ _____    ______ ____
ROOT
ATOM      1  C   UNL     1      -4.372  -3.691   0.098  0.00  0.00    +0.190 C 
ENDROOT
BRANCH   1   2
ATOM      2  C   UNL     1      -3.595  -2.512  -0.493  0.00  0.00    +0.124 C 
BRANCH   2   3
ATOM      3  O   UNL     1      -4.098  -2.217  -1.798  0.00  0.00    -0.391 OA
ATOM      4  H   UNL     1      -4.023  -2.950  -2.424  0.00  0.00    +0.210 HD
ENDBRANCH   2   3
BRANCH   2   5
ATOM      5  C   UNL     1      -2.112  -2.876  -0.589  0.00  0.00    -0.044 C 
BRANCH   5  15
ATOM      6  C   UNL     1      -0.019   1.532   0.011  0.00  0.00    +0.009 C 
ATOM      7  C   UNL     1       0.002  -0.004   0.002  0.00  0.00    -0.048 C 
ATOM      8  C   UNL     1       0.709  -0.579  -1.256  0.00  0.00    -0.011 C 
ATOM      9  C   UNL     1       0.075  -1.998  -1.275  0.00  0.00    -0.067 C 
ATOM     10  C   UNL     1       0.699  -2.799  -0.149  0.00  0.00    -0.009 C 
ATOM     11  C   UNL     1       0.880  -2.099   1.179  0.00  0.00    -0.036 C 
ATOM     12  C   UNL     1       0.727  -0.591   1.213  0.00  0.00    +0.011 C 
ATOM     13  C   UNL     1       2.317  -2.418   1.669  0.00  0.00    +0.011 C 
ATOM     14  C   UNL     1      -0.069  -2.724   2.219  0.00  0.00    +0.011 C 
ATOM     15  N   UNL     1      -1.355  -1.714  -1.040  0.00  0.00    +0.384 N 
ATOM     16  C   UNL     1      -1.418  -0.611  -0.062  0.00  0.00    -0.072 C 
ATOM     17  H   UNL     1      -1.763  -1.380  -1.915  0.00  0.00    -0.081 HD
ENDBRANCH   5  15
ENDBRANCH   2   5
ENDBRANCH   1   2
BRANCH   1  18
ATOM     18  O   UNL     1      -5.735  -3.311   0.295  0.00  0.00    -0.365 OA
BRANCH  18  19
ATOM     19  C   UNL     1      -6.552  -4.346   0.847  0.00  0.00    +0.178 C 
BRANCH  19  20
ATOM     20  C   UNL     1      -7.654  -3.731   1.670  0.00  0.00    -0.014 A 
ATOM     21  C   UNL     1      -8.296  -2.590   1.225  0.00  0.00    +0.008 A 
ATOM     22  C   UNL     1      -9.306  -2.026   1.980  0.00  0.00    +0.020 A 
ATOM     23  C   UNL     1      -9.676  -2.602   3.182  0.00  0.00    +0.041 A 
ATOM     24  C   UNL     1      -9.033  -3.743   3.628  0.00  0.00    +0.020 A 
ATOM     25  C   UNL     1      -8.027  -4.310   2.869  0.00  0.00    +0.008 A 
ATOM     26 CL   UNL     1     -10.944  -1.893   4.131  0.00  0.00    -0.084 Cl
ENDBRANCH  19  20
BRANCH  19  27
ATOM     27  C   UNL     1      -7.154  -5.160  -0.270  0.00  0.00    -0.014 A 
ATOM     28  C   UNL     1      -7.511  -4.546  -1.456  0.00  0.00    +0.008 A 
ATOM     29  C   UNL     1      -8.064  -5.292  -2.481  0.00  0.00    +0.020 A 
ATOM     30  C   UNL     1      -8.259  -6.652  -2.319  0.00  0.00    +0.041 A 
ATOM     31  C   UNL     1      -7.902  -7.265  -1.131  0.00  0.00    +0.020 A 
ATOM     32  C   UNL     1      -7.344  -6.519  -0.110  0.00  0.00    +0.008 A 
ATOM     33 CL   UNL     1      -8.953  -7.589  -3.605  0.00  0.00    -0.084 Cl
ENDBRANCH  19  27
ENDBRANCH  18  19
ENDBRANCH   1  18
TORSDOF 8
