REMARK  Name = ZINC07772101
REMARK  9 active torsions:
REMARK  status: ('A' for Active; 'I' for Inactive)
REMARK    1  A    between atoms: C_1  and  C_2
REMARK    2  A    between atoms: C_2  and  C_4
REMARK    3  A    between atoms: C_2  and  O_19
REMARK    4  A    between atoms: N_6  and  C_7
REMARK    5  A    between atoms: C_8  and  C_17
REMARK    6  A    between atoms: O_19  and  C_20
REMARK    7  A    between atoms: C_23  and  O_29
REMARK    8  A    between atoms: C_25  and  N_26
REMARK    9  A    between atoms: O_29  and  C_30
REMARK                            x       y       z     vdW  Elec       q    Type
REMARK                         _______ _______ _______ _____ _____    ______ ____
ROOT
ATOM      1  C   UNL     1      -0.902   3.173   1.430  0.00  0.00    +0.258 C 
ATOM      2  O   UNL     1      -1.966   3.689   1.159  0.00  0.00    -0.271 OA
ATOM      3  N   UNL     1       0.172   3.943   1.693  0.00  0.00    -0.276 N 
ATOM      4  H   UNL     1       1.023   3.531   1.910  0.00  0.00    +0.155 HD
ENDROOT
BRANCH   3   5
ATOM      5  C   UNL     1       0.062   5.326   1.653  0.00  0.00    +0.090 A 
ATOM      6  C   UNL     1       1.042   6.276   1.891  0.00  0.00    +0.084 A 
ATOM      7  C   UNL     1       0.667   7.679   1.782  0.00  0.00    -0.018 A 
ATOM      8  C   UNL     1      -0.626   7.900   1.463  0.00  0.00    -0.004 A 
ATOM      9  S   UNL     1      -1.334   6.284   1.287  0.00  0.00    -0.077 S 
ATOM     10  C   UNL     1      -1.316   9.217   1.294  0.00  0.00    +0.043 C 
ATOM     11  C   UNL     1      -0.473  10.114   0.378  0.00  0.00    +0.005 C 
ATOM     12  C   UNL     1       0.506  10.903   1.242  0.00  0.00    +0.001 C 
ATOM     13  C   UNL     1       0.932  10.069   2.448  0.00  0.00    +0.005 C 
ATOM     14  C   UNL     1       1.664   8.811   1.996  0.00  0.00    +0.037 C 
BRANCH   6  15
ATOM     15  C   UNL     1       2.378   5.891   2.231  0.00  0.00    +0.102 C 
ATOM     16  N   UNL     1       3.438   5.585   2.501  0.00  0.00    -0.191 NA
ENDBRANCH   6  15
ENDBRANCH   3   5
BRANCH   1  18
ATOM     17  C   UNL     1       0.167   1.204   0.368  0.00  0.00    +0.062 C 
ATOM     18  C   UNL     1      -0.781   1.672   1.474  0.00  0.00    +0.256 C 
BRANCH  18  19
ATOM     19  O   UNL     1      -2.070   1.085   1.277  0.00  0.00    -0.478 OA
BRANCH  19  20
ATOM     20  C   UNL     1      -2.264  -0.162   1.784  0.00  0.00    +0.152 A 
ATOM     21  C   UNL     1      -1.204  -0.851   2.356  0.00  0.00    +0.051 A 
ATOM     22  C   UNL     1      -1.403  -2.115   2.876  0.00  0.00    +0.049 A 
ATOM     23  C   UNL     1      -2.659  -2.700   2.816  0.00  0.00    +0.122 A 
ATOM     24  C   UNL     1      -3.717  -2.014   2.240  0.00  0.00    +0.082 A 
ATOM     25  C   UNL     1      -3.520  -0.747   1.725  0.00  0.00    +0.171 A 
BRANCH  25  26
ATOM     26  N   UNL     1      -4.649  -0.014   1.110  0.00  0.00    +0.060 N 
ATOM     27  O   UNL     1      -5.752  -0.528   1.058  0.00  0.00    -0.126 OA
ATOM     28  O   UNL     1      -4.475   1.103   0.656  0.00  0.00    -0.126 OA
ENDBRANCH  25  26
BRANCH  23  29
ATOM     29  O   UNL     1      -2.853  -3.947   3.322  0.00  0.00    -0.495 OA
ATOM     30  C   UNL     1      -1.719  -4.596   3.901  0.00  0.00    +0.277 C 
ENDBRANCH  23  29
ENDBRANCH  19  20
ENDBRANCH  18  19
ENDBRANCH   1  18
TORSDOF 7
