REMARK  Name = ZINC10211780
REMARK  12 active torsions:
REMARK  status: ('A' for Active; 'I' for Inactive)
REMARK    1  A    between atoms: C_1  and  C_2
REMARK    2  A    between atoms: C_4  and  C_32
REMARK    3  A    between atoms: C_5  and  S_9
REMARK    4  A    between atoms: C_6  and  C_8
REMARK    5  A    between atoms: S_9  and  N_12
REMARK    6  A    between atoms: N_12  and  C_13
REMARK    7  A    between atoms: C_18  and  C_19
REMARK    8  A    between atoms: C_19  and  O_21
REMARK    9  A    between atoms: O_21  and  C_22
REMARK   10  A    between atoms: C_22  and  C_23
REMARK   11  A    between atoms: N_25  and  C_26
REMARK   12  A    between atoms: C_26  and  C_27
REMARK                            x       y       z     vdW  Elec       q    Type
REMARK                         _______ _______ _______ _____ _____    ______ ____
ROOT
ATOM      1  C   UNL     1       4.967  -1.252  -2.498  0.00  0.00    +0.062 A 
ATOM      2  C   UNL     1       5.308   0.021  -2.057  0.00  0.00    +0.025 A 
ATOM      3  C   UNL     1       5.405   1.061  -2.958  0.00  0.00    +0.002 A 
ATOM      4  C   UNL     1       5.156   0.849  -4.305  0.00  0.00    +0.001 A 
ATOM      5  C   UNL     1       4.812  -0.405  -4.761  0.00  0.00    +0.017 A 
ATOM      6  C   UNL     1       4.714  -1.471  -3.861  0.00  0.00    +0.081 A 
ENDROOT
BRANCH   1   7
ATOM      7  N   UNL     1       4.873  -2.302  -1.594  0.00  0.00    -0.215 N 
ATOM      8  H   UNL     1       4.011  -2.545  -1.221  0.00  0.00    +0.174 HD
BRANCH   7   9
ATOM      9  S   UNL     1       6.232  -3.139  -1.152  0.00  0.00    +0.073 S 
ATOM     10  O   UNL     1       6.904  -3.486  -2.355  0.00  0.00    -0.150 OA
ATOM     11  O   UNL     1       5.819  -4.112  -0.202  0.00  0.00    -0.150 OA
BRANCH   9  16
ATOM     12  C   UNL     1       9.831   0.714   1.782  0.00  0.00    +0.044 C 
ATOM     13  C   UNL     1       8.929  -0.245   1.048  0.00  0.00    -0.050 A 
ATOM     14  C   UNL     1       7.974  -0.964   1.743  0.00  0.00    +0.008 A 
ATOM     15  C   UNL     1       7.151  -1.848   1.071  0.00  0.00    -0.023 A 
ATOM     16  C   UNL     1       7.282  -2.013  -0.295  0.00  0.00    +0.114 A 
ATOM     17  C   UNL     1       8.237  -1.294  -0.990  0.00  0.00    -0.023 A 
ATOM     18  C   UNL     1       9.060  -0.409  -0.318  0.00  0.00    +0.008 A 
ATOM     19  C   UNL     1       8.380  -1.473  -2.479  0.00  0.00    +0.046 C 
ATOM     20  C   UNL     1       6.109  -2.632   1.828  0.00  0.00    +0.046 C 
ENDBRANCH   9  16
ENDBRANCH   7   9
ENDBRANCH   1   7
BRANCH   6  21
ATOM     21  C   UNL     1       4.347  -2.814  -4.341  0.00  0.00    +0.341 C 
ATOM     22  O   UNL     1       4.262  -3.738  -3.556  0.00  0.00    -0.245 OA
BRANCH  21  23
ATOM     23  O   UNL     1       4.105  -3.018  -5.651  0.00  0.00    -0.452 OA
BRANCH  23  24
ATOM     24  C   UNL     1       3.748  -4.367  -6.053  0.00  0.00    +0.328 C 
BRANCH  24  25
ATOM     25  C   UNL     1       3.516  -4.404  -7.541  0.00  0.00    +0.251 C 
ATOM     26  O   UNL     1       3.639  -3.392  -8.199  0.00  0.00    -0.272 OA
ATOM     27  N   UNL     1       3.171  -5.560  -8.142  0.00  0.00    -0.305 N 
ATOM     28  H   UNL     1       3.073  -6.369  -7.616  0.00  0.00    +0.149 HD
BRANCH  27  29
ATOM     29  C   UNL     1       2.946  -5.595  -9.589  0.00  0.00    +0.178 C 
BRANCH  29  30
ATOM     30  C   UNL     1       2.575  -6.995 -10.005  0.00  0.00    +0.122 A 
ATOM     31  C   UNL     1       1.327  -7.495 -10.064  0.00  0.00    +0.046 A 
ATOM     32  C   UNL     1       1.442  -8.834 -10.501  0.00  0.00    +0.041 A 
ATOM     33  C   UNL     1       2.753  -9.074 -10.683  0.00  0.00    +0.195 A 
ATOM     34  O   UNL     1       3.434  -7.955 -10.387  0.00  0.00    -0.466 OA
ENDBRANCH  29  30
ENDBRANCH  27  29
ENDBRANCH  24  25
ENDBRANCH  23  24
ENDBRANCH  21  23
ENDBRANCH   6  21
TORSDOF 9
