REMARK  Name = ZINC23701078
REMARK  9 active torsions:
REMARK  status: ('A' for Active; 'I' for Inactive)
REMARK    1  A    between atoms: C_1  and  C_2
REMARK    2  A    between atoms: C_2  and  O_3
REMARK    3  A    between atoms: O_3  and  C_4
REMARK    4  A    between atoms: C_9  and  C_10
REMARK    5  A    between atoms: C_10  and  N_11
REMARK    6  A    between atoms: C_12  and  C_14
REMARK    7  A    between atoms: C_14  and  N_15
REMARK    8  A    between atoms: C_23  and  C_25
REMARK    9  A    between atoms: C_30  and  C_33
REMARK                            x       y       z     vdW  Elec       q    Type
REMARK                         _______ _______ _______ _____ _____    ______ ____
ROOT
ATOM      1  N   UNL     1      -0.242   1.246   2.466  0.00  0.00    -0.310 N 
ATOM      2  C   UNL     1      -0.718   1.572   1.248  0.00  0.00    +0.231 C 
ATOM      3  O   UNL     1      -1.714   2.256   1.150  0.00  0.00    -0.274 OA
ATOM      4  H   UNL     1       0.662   0.625   2.555  0.00  0.00    +0.149 HD
ENDROOT
BRANCH   1   5
ATOM      5  C   UNL     1      -0.927   1.718   3.671  0.00  0.00    +0.143 C 
BRANCH   5  11
ATOM      6  C   UNL     1       0.949   1.867   5.324  0.00  0.00    +0.126 A 
ATOM      7  C   UNL     1       1.616   1.405   6.450  0.00  0.00    +0.053 A 
ATOM      8  C   UNL     1       1.143   0.301   7.124  0.00  0.00    +0.001 A 
ATOM      9  C   UNL     1      -0.006  -0.354   6.700  0.00  0.00    +0.125 A 
ATOM     10  C   UNL     1      -0.672   0.116   5.571  0.00  0.00    +0.054 A 
ATOM     11  C   UNL     1      -0.198   1.219   4.892  0.00  0.00    +0.015 A 
ATOM     12  O   UNL     1      -0.307  -1.401   7.518  0.00  0.00    -0.488 OA
ATOM     13  C   UNL     1       0.866  -1.770   8.263  0.00  0.00    +0.175 C 
ATOM     14  C   UNL     1       1.653  -0.441   8.344  0.00  0.00    +0.083 C 
ATOM     15  C   UNL     1       0.488  -2.262   9.662  0.00  0.00    +0.052 C 
BRANCH   6  16
ATOM     16  O   UNL     1       1.415   2.954   4.652  0.00  0.00    -0.492 OA
BRANCH  16  18
ATOM     17  C   UNL     1       2.969   4.765   4.276  0.00  0.00    +0.048 C 
ATOM     18  C   UNL     1       2.602   3.569   5.156  0.00  0.00    +0.225 C 
ENDBRANCH  16  18
ENDBRANCH   6  16
ENDBRANCH   5  11
ENDBRANCH   1   5
BRANCH   2  19
ATOM     19  C   UNL     1      -0.013   1.086   0.008  0.00  0.00    +0.213 C 
BRANCH  19  20
ATOM     20  N   UNL     1      -0.721   1.571  -1.179  0.00  0.00    -0.215 N 
ATOM     21  C   UNL     1      -1.716   0.900  -1.795  0.00  0.00    +0.247 C 
ATOM     22  O   UNL     1      -2.176  -0.178  -1.485  0.00  0.00    -0.273 OA
ATOM     23  C   UNL     1      -2.138   1.776  -2.952  0.00  0.00    +0.115 C 
ATOM     24  C   UNL     1      -1.921   1.047  -4.273  0.00  0.00    +0.035 C 
ATOM     25  C   UNL     1      -2.317   1.962  -5.434  0.00  0.00    +0.003 C 
ATOM     26  C   UNL     1      -3.787   2.362  -5.288  0.00  0.00    +0.000 C 
ATOM     27  C   UNL     1      -3.985   3.111  -3.969  0.00  0.00    +0.006 C 
ATOM     28  C   UNL     1      -3.595   2.200  -2.803  0.00  0.00    +0.018 C 
ATOM     29  C   UNL     1      -3.774   2.955  -1.484  0.00  0.00    +0.010 C 
ATOM     30  N   UNL     1      -1.251   2.943  -2.857  0.00  0.00    -0.285 N 
ATOM     31  C   UNL     1      -0.458   2.733  -1.790  0.00  0.00    +0.310 C 
ATOM     32  O   UNL     1       0.401   3.510  -1.422  0.00  0.00    -0.252 OA
ATOM     33  H   UNL     1      -1.335   3.758  -3.591  0.00  0.00    +0.151 HD
ENDBRANCH  19  20
ENDBRANCH   2  19
TORSDOF 6
