REMARK  Name = ZINC08073676
REMARK  3 active torsions:
REMARK  status: ('A' for Active; 'I' for Inactive)
REMARK    1  A    between atoms: C_6  and  C_7
REMARK    2  A    between atoms: C_12  and  N_13
REMARK    3  A    between atoms: C_12  and  N_58
REMARK                            x       y       z     vdW  Elec       q    Type
REMARK                         _______ _______ _______ _____ _____    ______ ____
ROOT
ATOM      1  C   UNL     1       3.997   0.469  -1.504  0.00  0.00    -0.035 C 
ATOM      2  C   UNL     1       4.900   1.002  -2.644  0.00  0.00    -0.012 C 
ATOM      3  C   UNL     1       4.821   2.534  -2.415  0.00  0.00    -0.020 C 
ATOM      4  C   UNL     1       3.367   2.740  -1.940  0.00  0.00    -0.076 C 
ATOM      5  N   UNL     1       2.894   1.446  -1.421  0.00  0.00    +0.395 N 
ATOM      6  H   UNL     1       2.107   1.119  -1.993  0.00  0.00    -0.079 HD
ENDROOT
BRANCH   1  12
ATOM      7  C   UNL     1       2.434  -1.010  -2.780  0.00  0.00    +0.006 A 
ATOM      8  C   UNL     1       1.932  -2.256  -3.109  0.00  0.00    +0.049 A 
ATOM      9  C   UNL     1       2.458  -3.388  -2.510  0.00  0.00    +0.162 A 
ATOM     10  C   UNL     1       3.484  -3.271  -1.582  0.00  0.00    +0.162 A 
ATOM     11  C   UNL     1       3.987  -2.022  -1.259  0.00  0.00    +0.051 A 
ATOM     12  C   UNL     1       3.456  -0.893  -1.856  0.00  0.00    -0.057 A 
ATOM     13  O   UNL     1       3.995  -4.392  -0.997  0.00  0.00    -0.488 OA
ATOM     14  C   UNL     1       3.121  -5.083  -0.101  0.00  0.00    +0.232 C 
ATOM     15  C   UNL     1       2.208  -6.032  -0.863  0.00  0.00    +0.082 C 
ATOM     16  C   UNL     1       1.254  -5.297  -1.791  0.00  0.00    +0.232 C 
ATOM     17  O   UNL     1       1.973  -4.623  -2.826  0.00  0.00    -0.488 OA
ENDBRANCH   1  12
BRANCH   5  18
ATOM     18  C   UNL     1       2.443   1.592  -0.013  0.00  0.00    +0.043 C 
BRANCH  18  19
ATOM     19  N   UNL     1       1.048   2.039   0.003  0.00  0.00    -0.241 N 
ATOM     20  C   UNL     1      -0.014   1.208   0.009  0.00  0.00    +0.245 C 
ATOM     21  O   UNL     1       0.002  -0.004   0.002  0.00  0.00    -0.273 OA
ATOM     22  C   UNL     1      -1.230   2.107   0.018  0.00  0.00    +0.112 C 
ATOM     23  C   UNL     1      -2.058   1.866   1.276  0.00  0.00    +0.035 C 
ATOM     24  C   UNL     1      -3.268   2.804   1.280  0.00  0.00    +0.003 C 
ATOM     25  C   UNL     1      -4.116   2.547   0.033  0.00  0.00    +0.000 C 
ATOM     26  C   UNL     1      -3.279   2.817  -1.219  0.00  0.00    +0.003 C 
ATOM     27  C   UNL     1      -2.069   1.879  -1.234  0.00  0.00    +0.035 C 
ATOM     28  N   UNL     1      -0.670   3.464   0.026  0.00  0.00    -0.285 N 
ATOM     29  C   UNL     1       0.670   3.323   0.013  0.00  0.00    +0.308 C 
ATOM     30  O   UNL     1       1.448   4.257   0.010  0.00  0.00    -0.252 OA
ATOM     31  H   UNL     1      -1.166   4.297   0.034  0.00  0.00    +0.151 HD
ENDBRANCH  18  19
ENDBRANCH   5  18
TORSDOF 3
