REMARK  Name = ZINC65375793
REMARK  3 active torsions:
REMARK  status: ('A' for Active; 'I' for Inactive)
REMARK    1  A    between atoms: C_1  and  C_2
REMARK    2  A    between atoms: C_3  and  C_11
REMARK    3  A    between atoms: C_21  and  N_23
REMARK                            x       y       z     vdW  Elec       q    Type
REMARK                         _______ _______ _______ _____ _____    ______ ____
ROOT
ATOM      1  C   UNL     1      -2.502  -0.483   0.137  0.00  0.00    +0.061 C 
ATOM      2  C   UNL     1      -2.883   0.237  -1.157  0.00  0.00    +0.109 C 
ATOM      3  C   UNL     1      -2.205   1.580  -1.215  0.00  0.00    +0.218 C 
ATOM      4  O   UNL     1      -1.828   2.015  -2.282  0.00  0.00    -0.275 OA
ATOM      5  N   UNL     1      -2.013   2.303  -0.096  0.00  0.00    -0.285 N 
ATOM      6  C   UNL     1      -2.427   1.810   1.146  0.00  0.00    +0.039 A 
ATOM      7  C   UNL     1      -2.678   0.453   1.304  0.00  0.00    -0.018 A 
ATOM      8  C   UNL     1      -3.087  -0.036   2.530  0.00  0.00    +0.008 A 
ATOM      9  C   UNL     1      -3.247   0.822   3.601  0.00  0.00    +0.024 A 
ATOM     10  C   UNL     1      -2.998   2.180   3.448  0.00  0.00    +0.040 A 
ATOM     11  C   UNL     1      -2.587   2.674   2.219  0.00  0.00    +0.047 A 
ATOM     12  H   UNL     1      -1.584   3.171  -0.151  0.00  0.00    +0.155 HD
ENDROOT
BRANCH   1  15
ATOM     13  C   UNL     1      -0.395   0.460   2.110  0.00  0.00    +0.052 C 
ATOM     14  C   UNL     1      -0.170  -0.482   0.956  0.00  0.00    -0.008 A 
ATOM     15  C   UNL     1      -1.064  -0.926   0.060  0.00  0.00    -0.022 A 
ATOM     16  C   UNL     1      -0.631  -1.840  -0.986  0.00  0.00    -0.007 A 
ATOM     17  C   UNL     1      -1.396  -2.427  -2.022  0.00  0.00    +0.009 A 
ATOM     18  C   UNL     1      -0.819  -3.268  -2.921  0.00  0.00    +0.001 A 
ATOM     19  C   UNL     1       0.533  -3.582  -2.858  0.00  0.00    +0.001 A 
ATOM     20  C   UNL     1       1.313  -3.030  -1.862  0.00  0.00    +0.015 A 
ATOM     21  C   UNL     1       0.740  -2.175  -0.945  0.00  0.00    +0.020 A 
ATOM     22  S   UNL     1       1.350  -1.264   0.451  0.00  0.00    -0.093 S 
ENDBRANCH   1  15
BRANCH  10  23
ATOM     23  N   UNL     1      -3.160   3.048   4.534  0.00  0.00    -0.254 N 
ATOM     24  C   UNL     1      -3.474   2.640   5.911  0.00  0.00    +0.134 C 
ATOM     25  C   UNL     1      -3.539   3.971   6.685  0.00  0.00    +0.125 C 
ATOM     26  N   UNL     1      -3.254   4.988   5.661  0.00  0.00    -0.297 N 
ATOM     27  C   UNL     1      -3.048   4.382   4.484  0.00  0.00    +0.307 C 
ATOM     28  O   UNL     1      -2.788   4.988   3.463  0.00  0.00    -0.252 OA
ATOM     29  H   UNL     1      -3.218   5.945   5.814  0.00  0.00    +0.150 HD
ENDBRANCH  10  23
TORSDOF 2
