REMARK  Name = ZINC43670201
REMARK  5 active torsions:
REMARK  status: ('A' for Active; 'I' for Inactive)
REMARK    1  A    between atoms: C_1  and  C_2
REMARK    2  A    between atoms: C_3  and  N_17
REMARK    3  A    between atoms: C_4  and  N_16
REMARK    4  A    between atoms: N_5  and  C_7
REMARK    5  A    between atoms: C_7  and  C_8
REMARK                            x       y       z     vdW  Elec       q    Type
REMARK                         _______ _______ _______ _____ _____    ______ ____
ROOT
ATOM      1  C   UNL     1      -0.018   1.503   0.010  0.00  0.00    +0.070 C 
ATOM      2  C   UNL     1       0.002  -0.004   0.002  0.00  0.00    +0.092 A 
ATOM      3  C   UNL     1       0.008  -0.816  -1.136  0.00  0.00    +0.188 A 
ATOM      4  C   UNL     1       0.028  -2.113  -0.721  0.00  0.00    +0.146 A 
ATOM      5  N   UNL     1       0.035  -2.110   0.631  0.00  0.00    -0.244 N 
ATOM      6  N   UNL     1       0.023  -0.776   1.058  0.00  0.00    -0.172 NA
ENDROOT
BRANCH   4   7
ATOM      7  N   UNL     1       0.040  -3.238  -1.541  0.00  0.00    -0.342 N 
ATOM      8  H   UNL     1       0.034  -3.136  -2.506  0.00  0.00    +0.144 HD
ATOM      9  H   UNL     1       0.054  -4.125  -1.147  0.00  0.00    +0.144 HD
ENDBRANCH   4   7
BRANCH   3  10
ATOM     10  N   UNL     1      -0.005  -0.349  -2.540  0.00  0.00    +0.062 N 
ATOM     11  O   UNL     1       1.036  -0.144  -3.119  0.00  0.00    -0.126 OA
ATOM     12  O   UNL     1      -1.058  -0.173  -3.109  0.00  0.00    -0.126 OA
ENDBRANCH   3  10
BRANCH   5  13
ATOM     13  C   UNL     1       0.055  -3.292   1.496  0.00  0.00    +0.180 C 
BRANCH  13  14
ATOM     14  C   UNL     1       1.483  -3.678   1.786  0.00  0.00    -0.025 A 
ATOM     15  C   UNL     1       2.144  -4.558   0.949  0.00  0.00    +0.007 A 
ATOM     16  C   UNL     1       3.453  -4.913   1.214  0.00  0.00    +0.022 A 
ATOM     17  C   UNL     1       4.103  -4.388   2.317  0.00  0.00    +0.059 A 
ATOM     18  C   UNL     1       3.441  -3.507   3.154  0.00  0.00    +0.060 A 
ATOM     19  C   UNL     1       2.132  -3.148   2.885  0.00  0.00    +0.027 A 
ATOM     20 CL   UNL     1       4.254  -2.847   4.539  0.00  0.00    -0.082 Cl
ATOM     21 CL   UNL     1       5.747  -4.835   2.650  0.00  0.00    -0.082 Cl
ENDBRANCH  13  14
ENDBRANCH   5  13
TORSDOF 4
