REMARK  Name = ZINC21964277
REMARK  11 active torsions:
REMARK  status: ('A' for Active; 'I' for Inactive)
REMARK    1  A    between atoms: C_1  and  C_2
REMARK    2  A    between atoms: C_4  and  C_29
REMARK    3  A    between atoms: C_5  and  N_9
REMARK    4  A    between atoms: C_6  and  C_8
REMARK    5  A    between atoms: C_10  and  C_12
REMARK    6  A    between atoms: C_13  and  N_14
REMARK    7  A    between atoms: C_13  and  C_28
REMARK    8  A    between atoms: N_14  and  N_15
REMARK    9  A    between atoms: C_16  and  C_18
REMARK   10  A    between atoms: C_20  and  N_27
REMARK   11  A    between atoms: C_22  and  N_24
REMARK                            x       y       z     vdW  Elec       q    Type
REMARK                         _______ _______ _______ _____ _____    ______ ____
ROOT
ATOM      1  N   UNL     1       0.489  -8.547   1.990  0.00  0.00    -0.268 N 
ATOM      2  H   UNL     1       0.853  -9.136   2.668  0.00  0.00    +0.170 HD
ENDROOT
BRANCH   1   3
ATOM      3  N   UNL     1       0.136  -9.058   0.734  0.00  0.00    -0.233 N 
ATOM      4  C   UNL     1       0.303 -10.369   0.469  0.00  0.00    +0.260 C 
ATOM      5  O   UNL     1       0.759 -11.108   1.319  0.00  0.00    -0.269 OA
ATOM      6  H   UNL     1      -0.227  -8.468   0.055  0.00  0.00    +0.173 HD
BRANCH   4   7
ATOM      7  C   UNL     1      -0.069 -10.908  -0.857  0.00  0.00    +0.042 A 
ATOM      8  C   UNL     1      -0.587 -10.061  -1.837  0.00  0.00    +0.036 A 
ATOM      9  C   UNL     1      -0.933 -10.574  -3.078  0.00  0.00    +0.027 A 
ATOM     10  C   UNL     1      -0.763 -11.929  -3.341  0.00  0.00    +0.055 A 
ATOM     11  C   UNL     1      -0.250 -12.768  -2.370  0.00  0.00    +0.129 A 
ATOM     12  C   UNL     1       0.103 -12.265  -1.134  0.00  0.00    +0.046 A 
BRANCH  11  13
ATOM     13  N   UNL     1      -0.073 -14.209  -2.659  0.00  0.00    +0.057 N 
ATOM     14  O   UNL     1      -0.377 -14.650  -3.743  0.00  0.00    -0.126 OA
ATOM     15  O   UNL     1       0.376 -14.944  -1.811  0.00  0.00    -0.126 OA
ENDBRANCH  11  13
BRANCH   9  16
ATOM     16  N   UNL     1      -1.452  -9.731  -4.062  0.00  0.00    -0.358 N 
ATOM     17  H   UNL     1      -1.571  -8.786  -3.878  0.00  0.00    +0.142 HD
ATOM     18  H   UNL     1      -1.694 -10.090  -4.930  0.00  0.00    +0.142 HD
ENDBRANCH   9  16
ENDBRANCH   4   7
ENDBRANCH   1   3
BRANCH   1  20
ATOM     19  C   UNL     1      -0.186  -6.397   1.314  0.00  0.00    +0.087 C 
ATOM     20  C   UNL     1       0.320  -7.217   2.258  0.00  0.00    +0.024 C 
ATOM     21  C   UNL     1       0.699  -6.667   3.609  0.00  0.00    +0.062 C 
BRANCH  19  23
ATOM     22  N   UNL     1      -0.906  -4.208   0.674  0.00  0.00    -0.281 N 
ATOM     23  C   UNL     1      -0.519  -5.063   1.641  0.00  0.00    +0.243 C 
ATOM     24  O   UNL     1      -0.457  -4.686   2.798  0.00  0.00    -0.270 OA
ATOM     25  H   UNL     1      -1.027  -4.526  -0.234  0.00  0.00    +0.155 HD
BRANCH  22  30
ATOM     26  C   UNL     1      -1.827   1.251   1.912  0.00  0.00    +0.044 C 
ATOM     27  C   UNL     1      -1.583  -0.199   1.583  0.00  0.00    -0.050 A 
ATOM     28  C   UNL     1      -0.670  -0.540   0.601  0.00  0.00    +0.008 A 
ATOM     29  C   UNL     1      -0.444  -1.868   0.297  0.00  0.00    -0.029 A 
ATOM     30  C   UNL     1      -1.133  -2.862   0.980  0.00  0.00    +0.040 A 
ATOM     31  C   UNL     1      -2.048  -2.517   1.966  0.00  0.00    -0.029 A 
ATOM     32  C   UNL     1      -2.266  -1.187   2.268  0.00  0.00    +0.008 A 
ATOM     33  C   UNL     1      -2.798  -3.592   2.708  0.00  0.00    +0.045 C 
ATOM     34  C   UNL     1       0.550  -2.238  -0.774  0.00  0.00    +0.045 C 
ENDBRANCH  22  30
ENDBRANCH  19  23
ENDBRANCH   1  20
TORSDOF 7
