REMARK  Name = ZINC35641977
REMARK  13 active torsions:
REMARK  status: ('A' for Active; 'I' for Inactive)
REMARK    1  A    between atoms: C_1  and  C_2
REMARK    2  A    between atoms: C_2  and  O_3
REMARK    3  A    between atoms: O_3  and  C_4
REMARK    4  A    between atoms: C_4  and  C_6
REMARK    5  A    between atoms: C_7  and  C_24
REMARK    6  A    between atoms: N_8  and  C_21
REMARK    7  A    between atoms: C_12  and  C_14
REMARK    8  A    between atoms: C_21  and  C_22
REMARK    9  A    between atoms: C_24  and  N_25
REMARK   10  A    between atoms: C_31  and  C_33
REMARK   11  A    between atoms: C_33  and  C_34
REMARK   12  A    between atoms: C_34  and  C_35
REMARK   13  A    between atoms: C_34  and  C_36
REMARK                            x       y       z     vdW  Elec       q    Type
REMARK                         _______ _______ _______ _____ _____    ______ ____
ROOT
ATOM      1  C   UNL     1      -2.796  -2.417   0.163  0.00  0.00    +0.080 C 
ATOM      2  C   UNL     1      -2.985  -3.731  -0.085  0.00  0.00    +0.041 C 
ATOM      3  N   UNL     1      -4.240  -4.249  -0.223  0.00  0.00    -0.254 N 
ATOM      4  C   UNL     1      -5.359  -3.519  -0.129  0.00  0.00    +0.307 C 
ATOM      5  O   UNL     1      -6.434  -4.071  -0.268  0.00  0.00    -0.252 OA
ATOM      6  N   UNL     1      -5.333  -2.194   0.114  0.00  0.00    -0.288 N 
ATOM      7  C   UNL     1      -4.025  -1.539   0.286  0.00  0.00    +0.144 C 
ATOM      8  H   UNL     1      -6.156  -1.685   0.178  0.00  0.00    +0.151 HD
ENDROOT
BRANCH   7   9
ATOM      9  C   UNL     1      -3.920  -0.445  -0.744  0.00  0.00    -0.021 A 
ATOM     10  C   UNL     1      -4.260  -0.699  -2.060  0.00  0.00    +0.006 A 
ATOM     11  C   UNL     1      -4.164   0.304  -3.006  0.00  0.00    +0.002 A 
ATOM     12  C   UNL     1      -3.728   1.563  -2.637  0.00  0.00    +0.020 A 
ATOM     13  C   UNL     1      -3.388   1.818  -1.321  0.00  0.00    +0.041 A 
ATOM     14  C   UNL     1      -3.490   0.815  -0.373  0.00  0.00    +0.025 A 
ATOM     15 CL   UNL     1      -2.840   3.399  -0.856  0.00  0.00    -0.084 Cl
ENDBRANCH   7   9
BRANCH   1  16
ATOM     16  C   UNL     1      -1.496  -1.879   0.307  0.00  0.00    +0.339 C 
ATOM     17  O   UNL     1      -1.056  -1.640   1.416  0.00  0.00    -0.245 OA
BRANCH  16  18
ATOM     18  O   UNL     1      -0.744  -1.629  -0.785  0.00  0.00    -0.462 OA
BRANCH  18  20
ATOM     19  C   UNL     1       1.257  -0.873  -1.911  0.00  0.00    +0.048 C 
ATOM     20  C   UNL     1       0.560  -1.086  -0.566  0.00  0.00    +0.229 C 
ENDBRANCH  18  20
ENDBRANCH  16  18
ENDBRANCH   1  16
BRANCH   3  21
ATOM     21  C   UNL     1      -4.371  -5.684  -0.490  0.00  0.00    +0.141 C 
BRANCH  21  22
ATOM     22  C   UNL     1      -4.464  -6.431   0.815  0.00  0.00    -0.015 C 
ATOM     23  C   UNL     1      -5.477  -7.231   1.041  0.00  0.00    +0.005 C 
ENDBRANCH  21  22
ENDBRANCH   3  21
BRANCH   2  24
ATOM     24  C   UNL     1      -1.789  -4.640  -0.210  0.00  0.00    +0.136 C 
BRANCH  24  25
ATOM     25  N   UNL     1      -1.770  -5.582   0.917  0.00  0.00    -0.294 NA
ATOM     26  C   UNL     1      -1.552  -4.878   2.188  0.00  0.00    +0.104 C 
ATOM     27  C   UNL     1      -1.719  -5.864   3.349  0.00  0.00    +0.123 C 
ATOM     28  N   UNL     1      -0.834  -7.016   3.116  0.00  0.00    -0.299 N 
ATOM     29  C   UNL     1      -0.899  -7.689   1.810  0.00  0.00    +0.123 C 
ATOM     30  C   UNL     1      -0.764  -6.632   0.709  0.00  0.00    +0.104 C 
ATOM     31  C   UNL     1       0.013  -7.442   4.073  0.00  0.00    +0.216 C 
ATOM     32  O   UNL     1       0.054  -6.875   5.144  0.00  0.00    -0.276 OA
BRANCH  31  33
ATOM     33  C   UNL     1       0.911  -8.624   3.812  0.00  0.00    +0.099 C 
BRANCH  33  34
ATOM     34  C   UNL     1       1.766  -8.899   5.051  0.00  0.00    -0.008 C 
ATOM     35  C   UNL     1       2.586 -10.172   4.833  0.00  0.00    +0.008 C 
ATOM     36  C   UNL     1       2.710  -7.719   5.290  0.00  0.00    +0.008 C 
ENDBRANCH  33  34
ENDBRANCH  31  33
ENDBRANCH  24  25
ENDBRANCH   2  24
TORSDOF 10
