REMARK  Name = ZINC00720242
REMARK  4 active torsions:
REMARK  status: ('A' for Active; 'I' for Inactive)
REMARK    1  A    between atoms: C_5  and  C_7
REMARK    2  A    between atoms: C_9  and  C_28
REMARK    3  A    between atoms: C_10  and  N_27
REMARK    4  A    between atoms: N_11  and  C_19
REMARK                            x       y       z     vdW  Elec       q    Type
REMARK                         _______ _______ _______ _____ _____    ______ ____
ROOT
ATOM      1  C   UNL     1       2.488   1.321  -0.014  0.00  0.00    +0.100 C 
ATOM      2  C   UNL     1       3.266   1.679   1.218  0.00  0.00    +0.077 C 
ATOM      3  C   UNL     1       4.297   2.560   1.168  0.00  0.00    +0.107 C 
ATOM      4  N   UNL     1       4.652   3.138  -0.029  0.00  0.00    -0.255 N 
ATOM      5  C   UNL     1       4.274   2.568  -1.216  0.00  0.00    +0.025 C 
ATOM      6  C   UNL     1       3.247   1.692  -1.263  0.00  0.00    +0.025 C 
ATOM      7  C   UNL     1       2.853   1.102  -2.476  0.00  0.00    +0.162 C 
ATOM      8  O   UNL     1       1.935   0.305  -2.481  0.00  0.00    -0.292 OA
ATOM      9  C   UNL     1       3.546   1.438  -3.768  0.00  0.00    +0.080 C 
ATOM     10  C   UNL     1       4.106   2.862  -3.677  0.00  0.00    +0.014 C 
ATOM     11  C   UNL     1       5.036   2.939  -2.464  0.00  0.00    +0.052 C 
ENDROOT
BRANCH   4  12
ATOM     12  C   UNL     1       5.406   4.319  -0.035  0.00  0.00    +0.110 A 
ATOM     13  C   UNL     1       6.795   4.260  -0.043  0.00  0.00    +0.148 A 
ATOM     14  C   UNL     1       7.536   5.428  -0.054  0.00  0.00    +0.040 A 
ATOM     15  C   UNL     1       6.897   6.654  -0.045  0.00  0.00    +0.006 A 
ATOM     16  C   UNL     1       5.516   6.718  -0.031  0.00  0.00    +0.040 A 
ATOM     17  C   UNL     1       4.768   5.554  -0.026  0.00  0.00    +0.148 A 
ATOM     18  F   UNL     1       3.418   5.618  -0.012  0.00  0.00    -0.203 F 
ATOM     19  F   UNL     1       7.420   3.062  -0.046  0.00  0.00    -0.203 F 
ENDBRANCH   4  12
BRANCH   1  24
ATOM     20  C   UNL     1      -0.054   4.112   0.023  0.00  0.00    +0.000 A 
ATOM     21  C   UNL     1      -1.242   3.405   0.031  0.00  0.00    +0.003 A 
ATOM     22  C   UNL     1      -1.224   2.023   0.019  0.00  0.00    +0.038 A 
ATOM     23  C   UNL     1      -0.016   1.347   0.009  0.00  0.00    +0.127 A 
ATOM     24  C   UNL     1       1.173   2.056   0.002  0.00  0.00    +0.000 A 
ATOM     25  C   UNL     1       1.153   3.438   0.009  0.00  0.00    +0.007 A 
ATOM     26  F   UNL     1       0.002  -0.004   0.002  0.00  0.00    -0.205 F 
ENDBRANCH   1  24
BRANCH   3  27
ATOM     27  N   UNL     1       4.987   2.876   2.314  0.00  0.00    -0.345 N 
ATOM     28  H   UNL     1       5.724   3.506   2.278  0.00  0.00    +0.144 HD
ATOM     29  H   UNL     1       4.738   2.469   3.158  0.00  0.00    +0.144 HD
ENDBRANCH   3  27
BRANCH   2  30
ATOM     30  C   UNL     1       2.915   1.080   2.471  0.00  0.00    +0.099 C 
ATOM     31  N   UNL     1       2.636   0.605   3.465  0.00  0.00    -0.191 NA
ENDBRANCH   2  30
TORSDOF 4
