REMARK  Name = ZINC09411803
REMARK  10 active torsions:
REMARK  status: ('A' for Active; 'I' for Inactive)
REMARK    1  A    between atoms: C_1  and  C_2
REMARK    2  A    between atoms: C_3  and  C_30
REMARK    3  A    between atoms: C_11  and  C_13
REMARK    4  A    between atoms: C_13  and  C_15
REMARK    5  A    between atoms: C_13  and  O_16
REMARK    6  A    between atoms: O_16  and  C_17
REMARK    7  A    between atoms: C_17  and  C_19
REMARK    8  A    between atoms: C_19  and  C_21
REMARK    9  A    between atoms: C_19  and  O_22
REMARK   10  A    between atoms: O_22  and  C_23
REMARK                            x       y       z     vdW  Elec       q    Type
REMARK                         _______ _______ _______ _____ _____    ______ ____
ROOT
ATOM      1  C   UNL     1      -2.751   3.704   0.347  0.00  0.00    +0.239 C 
ATOM      2  C   UNL     1      -2.382   5.168   0.595  0.00  0.00    +0.060 C 
ENDROOT
BRANCH   1  13
ATOM      3  C   UNL     1       2.089  -0.870   1.119  0.00  0.00    +0.045 C 
ATOM      4  C   UNL     1       1.999   0.626   0.958  0.00  0.00    -0.026 A 
ATOM      5  C   UNL     1       3.112   1.376   0.949  0.00  0.00    -0.008 A 
ATOM      6  S   UNL     1       2.491   3.034   0.740  0.00  0.00    -0.073 S 
ATOM      7  C   UNL     1       0.756   2.671   0.670  0.00  0.00    +0.116 A 
ATOM      8  C   UNL     1       0.708   1.272   0.812  0.00  0.00    +0.075 A 
ATOM      9  C   UNL     1      -0.602   0.692   0.791  0.00  0.00    +0.260 A 
ATOM     10  O   UNL     1      -0.747  -0.513   0.906  0.00  0.00    -0.267 OA
ATOM     11  N   UNL     1      -1.669   1.498   0.637  0.00  0.00    -0.307 N 
ATOM     12  H   UNL     1      -2.558   1.111   0.618  0.00  0.00    +0.170 HD
ATOM     13  C   UNL     1      -1.526   2.842   0.512  0.00  0.00    +0.152 A 
ATOM     14  N   UNL     1      -0.346   3.401   0.527  0.00  0.00    -0.223 NA
ATOM     15  C   UNL     1       4.544   0.925   1.084  0.00  0.00    +0.052 C 
ENDBRANCH   1  13
BRANCH   1  16
ATOM     16  O   UNL     1      -3.269   3.557  -1.002  0.00  0.00    -0.451 OA
BRANCH  16  17
ATOM     17  C   UNL     1      -4.593   3.707  -1.166  0.00  0.00    +0.349 C 
ATOM     18  O   UNL     1      -5.296   3.953  -0.215  0.00  0.00    -0.247 OA
BRANCH  17  19
ATOM     19  C   UNL     1      -5.202   3.568  -2.537  0.00  0.00    +0.278 C 
ATOM     20  C   UNL     1      -4.593   4.613  -3.474  0.00  0.00    +0.064 C 
BRANCH  19  21
ATOM     21  O   UNL     1      -6.614   3.769  -2.454  0.00  0.00    -0.478 OA
BRANCH  21  22
ATOM     22  C   UNL     1      -7.378   3.195  -3.420  0.00  0.00    +0.122 A 
ATOM     23  C   UNL     1      -8.761   3.248  -3.336  0.00  0.00    +0.047 A 
ATOM     24  C   UNL     1      -9.536   2.669  -4.323  0.00  0.00    +0.019 A 
ATOM     25  C   UNL     1      -8.932   2.027  -5.389  0.00  0.00    +0.018 A 
ATOM     26  C   UNL     1      -7.552   1.967  -5.472  0.00  0.00    +0.019 A 
ATOM     27  C   UNL     1      -6.775   2.550  -4.490  0.00  0.00    +0.047 A 
ATOM     28 BR   UNL     1      -9.994   1.229  -6.734  0.00  0.00    -0.050 Br
ENDBRANCH  21  22
ENDBRANCH  19  21
ENDBRANCH  17  19
ENDBRANCH  16  17
ENDBRANCH   1  16
TORSDOF 6
