REMARK  Name = ZINC28314418
REMARK  8 active torsions:
REMARK  status: ('A' for Active; 'I' for Inactive)
REMARK    1  A    between atoms: C_1  and  C_2
REMARK    2  A    between atoms: C_5  and  C_32
REMARK    3  A    between atoms: C_6  and  N_8
REMARK    4  A    between atoms: N_10  and  C_29
REMARK    5  A    between atoms: C_13  and  C_16
REMARK    6  A    between atoms: C_16  and  C_17
REMARK    7  A    between atoms: N_19  and  C_20
REMARK    8  A    between atoms: C_24  and  N_26
REMARK                            x       y       z     vdW  Elec       q    Type
REMARK                         _______ _______ _______ _____ _____    ______ ____
ROOT
ATOM      1  N   UNL     1       4.767   0.263   3.425  0.00  0.00    -0.226 NA
ATOM      2  C   UNL     1       4.035   0.558   2.377  0.00  0.00    +0.164 C 
ATOM      3  N   UNL     1       4.405   1.265   1.252  0.00  0.00    -0.247 N 
ATOM      4  C   UNL     1       3.567   1.498   0.256  0.00  0.00    +0.235 C 
ATOM      5  O   UNL     1       3.897   2.120  -0.732  0.00  0.00    -0.274 OA
ATOM      6  C   UNL     1       2.165   0.937   0.425  0.00  0.00    +0.149 C 
ATOM      7  S   UNL     1       2.325   0.139   2.071  0.00  0.00    -0.077 S 
ENDROOT
BRANCH   1  13
ATOM      8  C   UNL     1       2.773  -4.049   4.612  0.00  0.00    +0.044 C 
ATOM      9  C   UNL     1       3.301  -2.691   4.997  0.00  0.00    -0.048 A 
ATOM     10  C   UNL     1       3.293  -2.298   6.324  0.00  0.00    +0.004 A 
ATOM     11  C   UNL     1       3.776  -1.053   6.686  0.00  0.00    +0.006 A 
ATOM     12  C   UNL     1       4.269  -0.195   5.725  0.00  0.00    -0.025 A 
ATOM     13  C   UNL     1       4.279  -0.585   4.384  0.00  0.00    +0.070 A 
ATOM     14  C   UNL     1       3.785  -1.840   4.025  0.00  0.00    +0.031 A 
ATOM     15  C   UNL     1       4.795   1.161   6.121  0.00  0.00    +0.046 C 
ENDBRANCH   1  13
BRANCH   3  16
ATOM     16  C   UNL     1       5.774   1.776   1.157  0.00  0.00    +0.084 C 
ATOM     17  C   UNL     1       6.809   1.208   2.131  0.00  0.00    +0.025 C 
ATOM     18  C   UNL     1       6.289   2.636   2.314  0.00  0.00    +0.025 C 
ENDBRANCH   3  16
BRANCH   6  19
ATOM     19  C   UNL     1       1.120   2.054   0.450  0.00  0.00    +0.120 C 
BRANCH  19  20
ATOM     20  C   UNL     1      -0.245   1.460   0.683  0.00  0.00    +0.219 C 
ATOM     21  O   UNL     1      -0.370   0.261   0.815  0.00  0.00    -0.275 OA
ATOM     22  N   UNL     1      -1.328   2.261   0.738  0.00  0.00    -0.285 N 
ATOM     23  H   UNL     1      -1.213   3.350   0.637  0.00  0.00    +0.155 HD
BRANCH  22  24
ATOM     24  C   UNL     1      -2.599   1.706   0.923  0.00  0.00    +0.036 A 
ATOM     25  C   UNL     1      -2.763   0.601   1.748  0.00  0.00    +0.023 A 
ATOM     26  C   UNL     1      -4.019   0.056   1.929  0.00  0.00    +0.004 A 
ATOM     27  C   UNL     1      -5.113   0.610   1.290  0.00  0.00    +0.033 A 
ATOM     28  C   UNL     1      -4.954   1.711   0.469  0.00  0.00    +0.128 A 
ATOM     29  C   UNL     1      -3.701   2.264   0.288  0.00  0.00    +0.056 A 
BRANCH  28  30
ATOM     30  N   UNL     1      -6.128   2.301  -0.213  0.00  0.00    +0.056 N 
ATOM     31  O   UNL     1      -7.233   1.816  -0.051  0.00  0.00    -0.126 OA
ATOM     32  O   UNL     1      -5.988   3.270  -0.937  0.00  0.00    -0.126 OA
ENDBRANCH  28  30
ENDBRANCH  22  24
ENDBRANCH  19  20
ENDBRANCH   6  19
TORSDOF 6
