REMARK  Name = ZINC00866864
REMARK  4 active torsions:
REMARK  status: ('A' for Active; 'I' for Inactive)
REMARK    1  A    between atoms: C_3  and  C_6
REMARK    2  A    between atoms: C_9  and  C_28
REMARK    3  A    between atoms: C_14  and  C_16
REMARK    4  A    between atoms: N_18  and  C_19
REMARK                            x       y       z     vdW  Elec       q    Type
REMARK                         _______ _______ _______ _____ _____    ______ ____
ROOT
ATOM      1  C   UNL     1       3.608   0.647  -0.045  0.00  0.00    +0.140 C 
ATOM      2  C   UNL     1       4.132   0.377   1.370  0.00  0.00    +0.066 C 
ATOM      3  C   UNL     1       5.664   0.404   1.374  0.00  0.00    +0.215 C 
ATOM      4  N   UNL     1       6.157  -0.455   0.294  0.00  0.00    -0.237 N 
ATOM      5  C   UNL     1       5.397  -0.842  -0.773  0.00  0.00    +0.137 A 
ATOM      6  C   UNL     1       6.155  -1.625  -1.567  0.00  0.00    +0.112 A 
ATOM      7  C   UNL     1       7.434  -1.726  -0.971  0.00  0.00    +0.167 A 
ATOM      8  N   UNL     1       7.424  -1.019   0.146  0.00  0.00    -0.163 NA
ATOM      9 CL   UNL     1       5.653  -2.374  -3.051  0.00  0.00    -0.078 Cl
ATOM     10  N   UNL     1       4.066  -0.438  -0.935  0.00  0.00    -0.318 N 
ATOM     11  H   UNL     1       3.480  -0.848  -1.589  0.00  0.00    +0.148 HD
ENDROOT
BRANCH   1  14
ATOM     12  C   UNL     1      -0.005   1.374  -0.008  0.00  0.00    +0.041 A 
ATOM     13  C   UNL     1       1.344   1.798  -0.023  0.00  0.00    +0.046 A 
ATOM     14  C   UNL     1       2.102   0.687  -0.029  0.00  0.00    +0.125 A 
ATOM     15  O   UNL     1       1.288  -0.382  -0.019  0.00  0.00    -0.466 OA
ATOM     16  C   UNL     1       0.010   0.029  -0.006  0.00  0.00    +0.195 A 
ENDBRANCH   1  14
BRANCH   7  17
ATOM     17  C   UNL     1       8.580  -2.489  -1.504  0.00  0.00    +0.270 C 
ATOM     18  O   UNL     1       8.469  -3.104  -2.547  0.00  0.00    -0.268 OA
ATOM     19  N   UNL     1       9.750  -2.503  -0.835  0.00  0.00    -0.280 N 
ATOM     20  H   UNL     1       9.860  -1.959  -0.039  0.00  0.00    +0.155 HD
BRANCH  19  21
ATOM     21  C   UNL     1      10.805  -3.302  -1.287  0.00  0.00    +0.034 A 
ATOM     22  C   UNL     1      11.654  -3.914  -0.375  0.00  0.00    +0.025 A 
ATOM     23  C   UNL     1      12.695  -4.703  -0.824  0.00  0.00    +0.022 A 
ATOM     24  C   UNL     1      12.892  -4.883  -2.182  0.00  0.00    +0.041 A 
ATOM     25  C   UNL     1      12.047  -4.274  -3.093  0.00  0.00    +0.022 A 
ATOM     26  C   UNL     1      11.002  -3.489  -2.649  0.00  0.00    +0.025 A 
ATOM     27 CL   UNL     1      14.202  -5.874  -2.744  0.00  0.00    -0.084 Cl
ENDBRANCH  19  21
ENDBRANCH   7  17
BRANCH   3  28
ATOM     28  C   UNL     1       6.182  -0.110   2.719  0.00  0.00    +0.412 C 
ATOM     29  F   UNL     1       5.740  -1.422   2.918  0.00  0.00    -0.168 F 
ATOM     30  F   UNL     1       7.581  -0.084   2.720  0.00  0.00    -0.168 F 
ATOM     31  F   UNL     1       5.699   0.706   3.748  0.00  0.00    -0.168 F 
ENDBRANCH   3  28
TORSDOF 4
