REMARK  Name = ZINC39210600
REMARK  5 active torsions:
REMARK  status: ('A' for Active; 'I' for Inactive)
REMARK    1  A    between atoms: C_10  and  C_20
REMARK    2  A    between atoms: C_15  and  N_19
REMARK    3  A    between atoms: C_16  and  C_17
REMARK    4  A    between atoms: N_29  and  C_30
REMARK    5  A    between atoms: C_30  and  C_31
REMARK                            x       y       z     vdW  Elec       q    Type
REMARK                         _______ _______ _______ _____ _____    ______ ____
ROOT
ATOM      1  C   UNL     1       0.692   1.418  -0.424  0.00  0.00    +0.000 A 
ATOM      2  C   UNL     1       1.905   2.061  -0.280  0.00  0.00    +0.002 A 
ATOM      3  C   UNL     1       3.086   1.363  -0.084  0.00  0.00    +0.024 A 
ATOM      4  C   UNL     1       3.006  -0.029  -0.038  0.00  0.00    +0.041 A 
ATOM      5  C   UNL     1       1.769  -0.670  -0.185  0.00  0.00    -0.005 A 
ATOM      6  C   UNL     1       0.598   0.031  -0.380  0.00  0.00    +0.007 A 
ATOM      7  C   UNL     1       2.043  -2.137  -0.090  0.00  0.00    +0.130 C 
ATOM      8  C   UNL     1       1.308  -2.757   1.098  0.00  0.00    +0.152 C 
ATOM      9  C   UNL     1       2.096  -2.590   2.376  0.00  0.00    +0.084 C 
ATOM     10  N   UNL     1       2.405  -3.796   2.773  0.00  0.00    -0.150 NA
ATOM     11  N   UNL     1       1.950  -4.775   1.890  0.00  0.00    -0.115 NA
ATOM     12  C   UNL     1       1.338  -4.266   0.863  0.00  0.00    +0.228 C 
ATOM     13  O   UNL     1       0.859  -4.807  -0.278  0.00  0.00    -0.425 OA
ATOM     14  C   UNL     1       1.120  -4.084  -1.397  0.00  0.00    +0.201 C 
ATOM     15  C   UNL     1       1.657  -2.845  -1.357  0.00  0.00    +0.107 C 
ATOM     16  C   UNL     1       3.539  -2.226   0.124  0.00  0.00    +0.237 C 
ATOM     17  O   UNL     1       4.190  -3.241   0.255  0.00  0.00    -0.274 OA
ATOM     18  N   UNL     1       4.011  -0.962   0.143  0.00  0.00    -0.259 N 
ENDROOT
BRANCH   9  19
ATOM     19  C   UNL     1       2.447  -1.324   3.040  0.00  0.00    -0.001 A 
ATOM     20  C   UNL     1       1.947  -0.113   2.551  0.00  0.00    +0.011 A 
ATOM     21  C   UNL     1       2.280   1.069   3.178  0.00  0.00    +0.016 A 
ATOM     22  C   UNL     1       3.107   1.059   4.289  0.00  0.00    +0.018 A 
ATOM     23  C   UNL     1       3.605  -0.137   4.779  0.00  0.00    +0.016 A 
ATOM     24  C   UNL     1       3.276  -1.328   4.166  0.00  0.00    +0.011 A 
ATOM     25 BR   UNL     1       3.558   2.685   5.141  0.00  0.00    -0.050 Br
ENDBRANCH   9  19
BRANCH  14  26
ATOM     26  N   UNL     1       0.826  -4.634  -2.620  0.00  0.00    -0.328 N 
ATOM     27  H   UNL     1       0.440  -5.522  -2.672  0.00  0.00    +0.145 HD
ATOM     28  H   UNL     1       1.004  -4.135  -3.432  0.00  0.00    +0.145 HD
ENDBRANCH  14  26
BRANCH  15  29
ATOM     29  C   UNL     1       1.872  -2.166  -2.598  0.00  0.00    +0.101 C 
ATOM     30  N   UNL     1       2.042  -1.626  -3.584  0.00  0.00    -0.191 NA
ENDBRANCH  15  29
BRANCH  18  31
ATOM     31  C   UNL     1       5.423  -0.618   0.331  0.00  0.00    +0.238 C 
BRANCH  31  32
ATOM     32  C   UNL     1       5.706  -0.447   1.801  0.00  0.00    +0.373 C 
ATOM     33  O   UNL     1       4.811  -0.597   2.616  0.00  0.00    -0.245 OA
ATOM     34  O   UNL     1       6.829  -0.157   2.176  0.00  0.00    -0.245 OA
ENDBRANCH  31  32
ENDBRANCH  18  31
TORSDOF 5
