REMARK  Name = ZINC37443286
REMARK  11 active torsions:
REMARK  status: ('A' for Active; 'I' for Inactive)
REMARK    1  A    between atoms: C_1  and  C_2
REMARK    2  A    between atoms: C_8  and  N_10
REMARK    3  A    between atoms: C_11  and  C_13
REMARK    4  A    between atoms: C_13  and  C_38
REMARK    5  A    between atoms: N_25  and  C_26
REMARK    6  A    between atoms: C_26  and  C_27
REMARK    7  A    between atoms: C_27  and  C_28
REMARK    8  A    between atoms: C_31  and  O_36
REMARK    9  A    between atoms: C_32  and  O_34
REMARK   10  A    between atoms: O_34  and  C_35
REMARK   11  A    between atoms: O_36  and  C_37
REMARK                            x       y       z     vdW  Elec       q    Type
REMARK                         _______ _______ _______ _____ _____    ______ ____
ROOT
ATOM      1  C   UNL     1       0.033   0.579   4.842  0.00  0.00    +0.128 C 
ATOM      2  C   UNL     1      -0.567  -0.622   5.572  0.00  0.00    +0.157 C 
ATOM      3  N   UNL     1      -1.744  -1.095   4.836  0.00  0.00    -0.331 N 
ATOM      4  C   UNL     1      -2.275  -2.346   4.745  0.00  0.00    +0.088 A 
ATOM      5  C   UNL     1      -2.156  -3.703   5.129  0.00  0.00    +0.067 A 
ATOM      6  C   UNL     1      -3.180  -4.368   4.568  0.00  0.00    +0.198 A 
ATOM      7  O   UNL     1      -3.934  -3.513   3.857  0.00  0.00    -0.461 OA
ATOM      8  C   UNL     1      -3.411  -2.271   3.939  0.00  0.00    +0.153 A 
ATOM      9  C   UNL     1      -3.557  -0.936   3.532  0.00  0.00    +0.079 A 
ATOM     10  C   UNL     1      -2.529  -0.227   4.080  0.00  0.00    +0.109 A 
ATOM     11  C   UNL     1      -2.182   1.194   3.966  0.00  0.00    +0.264 C 
ATOM     12  O   UNL     1      -2.939   2.001   3.459  0.00  0.00    -0.268 OA
ATOM     13  N   UNL     1      -0.974   1.561   4.457  0.00  0.00    -0.280 N 
ATOM     14  C   UNL     1       1.055   1.253   5.760  0.00  0.00    +0.043 C 
ENDROOT
BRANCH   1  16
ATOM     15  N   UNL     1       0.056  -0.038   2.447  0.00  0.00    -0.310 N 
ATOM     16  C   UNL     1       0.738   0.093   3.602  0.00  0.00    +0.238 C 
ATOM     17  O   UNL     1       1.919  -0.179   3.644  0.00  0.00    -0.273 OA
ATOM     18  H   UNL     1      -0.888   0.180   2.413  0.00  0.00    +0.149 HD
BRANCH  15  25
ATOM     19  C   UNL     1      -0.019   1.526   0.010  0.00  0.00    +0.009 C 
ATOM     20  C   UNL     1       0.002  -0.004   0.002  0.00  0.00    +0.006 C 
ATOM     21  C   UNL     1      -1.433  -0.534   0.013  0.00  0.00    +0.005 C 
ATOM     22  C   UNL     1      -1.413  -2.063   0.004  0.00  0.00    +0.000 C 
ATOM     23  C   UNL     1      -0.673  -2.570   1.244  0.00  0.00    +0.002 C 
ATOM     24  C   UNL     1       0.763  -2.041   1.233  0.00  0.00    +0.022 C 
ATOM     25  C   UNL     1       0.742  -0.511   1.242  0.00  0.00    +0.076 C 
ENDBRANCH  15  25
ENDBRANCH   1  16
BRANCH  13  26
ATOM     26  C   UNL     1      -0.670   2.987   4.605  0.00  0.00    +0.114 C 
BRANCH  26  27
ATOM     27  C   UNL     1      -0.028   3.508   3.318  0.00  0.00    +0.054 C 
BRANCH  27  28
ATOM     28  C   UNL     1       0.284   4.974   3.471  0.00  0.00    -0.042 A 
ATOM     29  C   UNL     1      -0.659   5.921   3.117  0.00  0.00    +0.007 A 
ATOM     30  C   UNL     1      -0.377   7.267   3.255  0.00  0.00    +0.049 A 
ATOM     31  C   UNL     1       0.853   7.670   3.750  0.00  0.00    +0.161 A 
ATOM     32  C   UNL     1       1.802   6.717   4.106  0.00  0.00    +0.162 A 
ATOM     33  C   UNL     1       1.511   5.369   3.970  0.00  0.00    +0.053 A 
BRANCH  32  34
ATOM     34  O   UNL     1       3.011   7.108   4.592  0.00  0.00    -0.491 OA
ATOM     35  C   UNL     1       3.936   6.075   4.938  0.00  0.00    +0.277 C 
ENDBRANCH  32  34
BRANCH  31  36
ATOM     36  O   UNL     1       1.132   8.994   3.886  0.00  0.00    -0.491 OA
ATOM     37  C   UNL     1       0.110   9.916   3.499  0.00  0.00    +0.277 C 
ENDBRANCH  31  36
ENDBRANCH  27  28
ENDBRANCH  26  27
ENDBRANCH  13  26
TORSDOF 7
