REMARK  Name = ZINC13498844
REMARK  15 active torsions:
REMARK  status: ('A' for Active; 'I' for Inactive)
REMARK    1  A    between atoms: C_1  and  C_2
REMARK    2  A    between atoms: C_6  and  C_15
REMARK    3  A    between atoms: C_13  and  C_14
REMARK    4  A    between atoms: C_15  and  N_16
REMARK    5  A    between atoms: N_16  and  C_17
REMARK    6  A    between atoms: N_16  and  C_23
REMARK    7  A    between atoms: C_17  and  C_18
REMARK    8  A    between atoms: C_23  and  C_25
REMARK    9  A    between atoms: C_23  and  C_34
REMARK   10  A    between atoms: N_29  and  C_30
REMARK   11  A    between atoms: C_30  and  C_31
REMARK   12  A    between atoms: C_30  and  C_32
REMARK   13  A    between atoms: C_30  and  C_33
REMARK   14  A    between atoms: C_34  and  C_35
REMARK   15  A    between atoms: C_34  and  C_36
REMARK                            x       y       z     vdW  Elec       q    Type
REMARK                         _______ _______ _______ _____ _____    ______ ____
ROOT
ATOM      1  N   UNL     1       1.064  -5.125  -4.846  0.00  0.00    -0.281 NA
ENDROOT
BRANCH   1   2
ATOM      2  C   UNL     1      -0.356  -5.155  -4.473  0.00  0.00    +0.126 C 
BRANCH   2   8
ATOM      3  C   UNL     1      -1.760   0.334   0.377  0.00  0.00    +0.044 C 
ATOM      4  C   UNL     1      -1.421  -1.104   0.082  0.00  0.00    -0.047 A 
ATOM      5  C   UNL     1      -1.289  -1.517  -1.214  0.00  0.00    +0.013 A 
ATOM      6  C   UNL     1      -0.974  -2.852  -1.487  0.00  0.00    -0.001 A 
ATOM      7  C   UNL     1      -0.824  -3.328  -2.864  0.00  0.00    +0.020 A 
ATOM      8  C   UNL     1      -0.518  -4.633  -3.068  0.00  0.00    +0.031 A 
ATOM      9  C   UNL     1      -0.350  -5.504  -1.971  0.00  0.00    +0.254 A 
ATOM     10  O   UNL     1      -0.075  -6.673  -2.177  0.00  0.00    -0.268 OA
ATOM     11  N   UNL     1      -0.485  -5.076  -0.703  0.00  0.00    -0.322 N 
ATOM     12  H   UNL     1      -0.362  -5.702   0.028  0.00  0.00    +0.169 HD
ATOM     13  C   UNL     1      -0.796  -3.761  -0.428  0.00  0.00    +0.049 A 
ATOM     14  C   UNL     1      -0.936  -3.319   0.883  0.00  0.00    +0.030 A 
ATOM     15  C   UNL     1      -1.241  -1.997   1.130  0.00  0.00    -0.046 A 
ATOM     16  C   UNL     1      -1.386  -1.518   2.551  0.00  0.00    +0.044 C 
ENDBRANCH   2   8
ENDBRANCH   1   2
BRANCH   1  17
ATOM     17  C   UNL     1       1.489  -3.762  -5.193  0.00  0.00    +0.159 C 
BRANCH  17  18
ATOM     18  C   UNL     1       2.991  -3.716  -5.297  0.00  0.00    +0.119 A 
ATOM     19  C   UNL     1       3.715  -4.019  -6.389  0.00  0.00    +0.046 A 
ATOM     20  C   UNL     1       5.074  -3.840  -6.044  0.00  0.00    +0.041 A 
ATOM     21  C   UNL     1       5.100  -3.437  -4.761  0.00  0.00    +0.195 A 
ATOM     22  O   UNL     1       3.835  -3.358  -4.315  0.00  0.00    -0.467 OA
ENDBRANCH  17  18
ENDBRANCH   1  17
BRANCH   1  23
ATOM     23  C   UNL     1       1.339  -6.059  -5.947  0.00  0.00    +0.130 C 
BRANCH  23  24
ATOM     24  C   UNL     1       1.401  -7.465  -5.409  0.00  0.00    +0.169 A 
ATOM     25  N   UNL     1       0.396  -8.177  -4.960  0.00  0.00    -0.112 NA
ATOM     26  N   UNL     1       0.853  -9.323  -4.591  0.00  0.00    -0.023 NA
ATOM     27  N   UNL     1       2.124  -9.361  -4.793  0.00  0.00    -0.043 NA
ATOM     28  N   UNL     1       2.498  -8.236  -5.301  0.00  0.00    -0.222 N 
BRANCH  28  29
ATOM     29  C   UNL     1       3.863  -7.866  -5.685  0.00  0.00    +0.059 C 
ATOM     30  C   UNL     1       4.322  -6.671  -4.848  0.00  0.00    +0.036 C 
ATOM     31  C   UNL     1       4.801  -9.050  -5.440  0.00  0.00    +0.036 C 
ATOM     32  C   UNL     1       3.892  -7.492  -7.168  0.00  0.00    +0.036 C 
ENDBRANCH  28  29
ENDBRANCH  23  24
BRANCH  23  33
ATOM     33  C   UNL     1       0.223  -5.960  -6.989  0.00  0.00    +0.008 C 
ATOM     34  C   UNL     1       0.301  -4.604  -7.694  0.00  0.00    +0.009 C 
ATOM     35  C   UNL     1       0.387  -7.080  -8.019  0.00  0.00    +0.009 C 
ENDBRANCH  23  33
ENDBRANCH   1  23
TORSDOF 8
