REMARK  Name = ZINC49574106
REMARK  9 active torsions:
REMARK  status: ('A' for Active; 'I' for Inactive)
REMARK    1  A    between atoms: C_4  and  C_7
REMARK    2  A    between atoms: C_7  and  C_9
REMARK    3  A    between atoms: C_7  and  N_16
REMARK    4  A    between atoms: C_9  and  N_10
REMARK    5  A    between atoms: N_16  and  C_17
REMARK    6  A    between atoms: C_17  and  C_18
REMARK    7  A    between atoms: N_20  and  C_21
REMARK    8  A    between atoms: N_20  and  C_27
REMARK    9  A    between atoms: C_21  and  C_22
REMARK                            x       y       z     vdW  Elec       q    Type
REMARK                         _______ _______ _______ _____ _____    ______ ____
ROOT
ATOM      1  C   UNL     1       3.282  -2.653   3.194  0.00  0.00    +0.199 C 
ATOM      2  O   UNL     1       3.389  -3.769   2.732  0.00  0.00    -0.278 OA
ATOM      3  N   UNL     1       3.207  -2.480   4.529  0.00  0.00    -0.290 N 
ENDROOT
BRANCH   3   4
ATOM      4  C   UNL     1       3.152  -3.644   5.416  0.00  0.00    +0.039 C 
ATOM      5  C   UNL     1       1.969  -4.531   5.022  0.00  0.00    +0.029 C 
ATOM      6  C   UNL     1       1.912  -5.747   5.949  0.00  0.00    -0.008 C 
ATOM      7  C   UNL     1       3.212  -6.545   5.823  0.00  0.00    +0.007 C 
ATOM      8  C   UNL     1       4.395  -5.659   6.217  0.00  0.00    -0.008 C 
ATOM      9  C   UNL     1       4.452  -4.443   5.290  0.00  0.00    +0.029 C 
ATOM     10  C   UNL     1       4.222  -5.190   7.663  0.00  0.00    +0.007 C 
ATOM     11  C   UNL     1       2.923  -4.392   7.789  0.00  0.00    -0.008 C 
ATOM     12  C   UNL     1       1.740  -5.278   7.395  0.00  0.00    +0.007 C 
ATOM     13  C   UNL     1       2.980  -3.176   6.862  0.00  0.00    +0.029 C 
ENDBRANCH   3   4
BRANCH   1  14
ATOM     14  C   UNL     1       3.233  -1.459   2.276  0.00  0.00    +0.016 C 
BRANCH  14  15
ATOM     15  N   UNL     1       3.332  -1.909   0.881  0.00  0.00    +0.390 N 
ATOM     16  H   UNL     1       2.562  -2.527   0.671  0.00  0.00    -0.084 HD
ATOM     17  H   UNL     1       4.203  -2.401   0.748  0.00  0.00    -0.084 HD
BRANCH  15  18
ATOM     18  C   UNL     1       3.284  -0.746  -0.014  0.00  0.00    -0.026 C 
BRANCH  18  22
ATOM     19  C   UNL     1      -0.539   1.135   0.295  0.00  0.00    +0.000 A 
ATOM     20  C   UNL     1       0.605   1.905   0.197  0.00  0.00    +0.000 A 
ATOM     21  C   UNL     1       1.842   1.297   0.097  0.00  0.00    +0.002 A 
ATOM     22  C   UNL     1       1.936  -0.082   0.096  0.00  0.00    -0.060 A 
ATOM     23  C   UNL     1       0.792  -0.853   0.195  0.00  0.00    +0.002 A 
ATOM     24  C   UNL     1      -0.445  -0.245   0.293  0.00  0.00    +0.000 A 
ENDBRANCH  18  22
BRANCH  18  25
ATOM     25  C   UNL     1       3.513  -1.202  -1.456  0.00  0.00    +0.073 C 
BRANCH  25  26
ATOM     26  N   UNL     1       4.772  -1.953  -1.539  0.00  0.00    -0.299 NA
ATOM     27  C   UNL     1       5.925  -1.081  -1.269  0.00  0.00    +0.112 C 
ATOM     28  C   UNL     1       7.208  -1.914  -1.306  0.00  0.00    +0.175 C 
ATOM     29  O   UNL     1       7.310  -2.568  -2.574  0.00  0.00    -0.377 OA
ATOM     30  C   UNL     1       6.204  -3.426  -2.869  0.00  0.00    +0.175 C 
ATOM     31  C   UNL     1       4.910  -2.608  -2.848  0.00  0.00    +0.112 C 
ENDBRANCH  25  26
ENDBRANCH  18  25
ENDBRANCH  15  18
ENDBRANCH  14  15
ENDBRANCH   1  14
BRANCH   3  32
ATOM     32  C   UNL     1       3.179  -1.128   5.092  0.00  0.00    +0.182 C 
BRANCH  32  33
ATOM     33  C   UNL     1       4.586  -0.683   5.397  0.00  0.00    +0.122 A 
ATOM     34  C   UNL     1       5.420  -0.067   4.540  0.00  0.00    +0.046 A 
ATOM     35  C   UNL     1       6.627   0.167   5.239  0.00  0.00    +0.041 A 
ATOM     36  C   UNL     1       6.458  -0.320   6.482  0.00  0.00    +0.195 A 
ATOM     37  O   UNL     1       5.218  -0.828   6.574  0.00  0.00    -0.466 OA
ENDBRANCH  32  33
ENDBRANCH   3  32
TORSDOF 9
