REMARK  Name = ZINC36776255
REMARK  13 active torsions:
REMARK  status: ('A' for Active; 'I' for Inactive)
REMARK    1  A    between atoms: C_1  and  C_2
REMARK    2  A    between atoms: C_8  and  N_10
REMARK    3  A    between atoms: C_11  and  C_13
REMARK    4  A    between atoms: C_13  and  C_15
REMARK    5  A    between atoms: C_13  and  O_16
REMARK    6  A    between atoms: O_16  and  C_17
REMARK    7  A    between atoms: C_17  and  C_19
REMARK    8  A    between atoms: C_22  and  O_38
REMARK    9  A    between atoms: C_23  and  S_25
REMARK   10  A    between atoms: S_25  and  N_28
REMARK   11  A    between atoms: C_30  and  C_37
REMARK   12  A    between atoms: C_33  and  C_36
REMARK   13  A    between atoms: O_38  and  C_39
REMARK                            x       y       z     vdW  Elec       q    Type
REMARK                         _______ _______ _______ _____ _____    ______ ____
ROOT
ATOM      1  C   UNL     1       1.655   1.925   7.929  0.00  0.00    +0.061 A 
ATOM      2  C   UNL     1       2.820   1.158   8.036  0.00  0.00    +0.018 A 
ATOM      3  C   UNL     1       3.691   1.374   9.079  0.00  0.00    +0.048 A 
ATOM      4  C   UNL     1       3.415   2.353  10.027  0.00  0.00    +0.146 A 
ATOM      5  C   UNL     1       2.259   3.118   9.925  0.00  0.00    +0.148 A 
ATOM      6  C   UNL     1       1.385   2.912   8.881  0.00  0.00    +0.047 A 
ENDROOT
BRANCH   5   7
ATOM      7  S   UNL     1       1.914   4.356  11.130  0.00  0.00    +0.064 S 
ATOM      8  O   UNL     1       3.100   5.126  11.271  0.00  0.00    -0.153 OA
ATOM      9  O   UNL     1       0.668   4.937  10.771  0.00  0.00    -0.153 OA
BRANCH   7  10
ATOM     10  N   UNL     1       1.677   3.582  12.574  0.00  0.00    -0.176 NA
ATOM     11  C   UNL     1       0.336   3.131  12.970  0.00  0.00    +0.112 C 
ATOM     12  C   UNL     1       0.400   1.641  13.319  0.00  0.00    +0.002 C 
ATOM     13  C   UNL     1       1.478   1.415  14.381  0.00  0.00    +0.009 C 
ATOM     14  C   UNL     1       2.840   1.841  13.827  0.00  0.00    +0.002 C 
ATOM     15  C   UNL     1       2.804   3.328  13.481  0.00  0.00    +0.112 C 
ATOM     16  C   UNL     1       3.922   1.584  14.878  0.00  0.00    +0.009 C 
ATOM     17  C   UNL     1      -0.956   1.184  13.861  0.00  0.00    +0.009 C 
ENDBRANCH   7  10
ENDBRANCH   5   7
BRANCH   1  18
ATOM     18  C   UNL     1       0.720   1.697   6.813  0.00  0.00    +0.340 C 
ATOM     19  O   UNL     1      -0.289   2.368   6.719  0.00  0.00    -0.245 OA
BRANCH  18  20
ATOM     20  O   UNL     1       0.983   0.745   5.896  0.00  0.00    -0.449 OA
BRANCH  20  21
ATOM     21  C   UNL     1       0.033   0.579   4.842  0.00  0.00    +0.259 C 
ATOM     22  C   UNL     1      -1.023  -0.445   5.263  0.00  0.00    +0.062 C 
BRANCH  21  24
ATOM     23  N   UNL     1       0.056  -0.038   2.447  0.00  0.00    -0.309 N 
ATOM     24  C   UNL     1       0.738   0.093   3.602  0.00  0.00    +0.254 C 
ATOM     25  O   UNL     1       1.919  -0.179   3.644  0.00  0.00    -0.272 OA
ATOM     26  H   UNL     1      -0.888   0.180   2.413  0.00  0.00    +0.149 HD
BRANCH  23  33
ATOM     27  C   UNL     1      -0.019   1.526   0.010  0.00  0.00    +0.009 C 
ATOM     28  C   UNL     1       0.002  -0.004   0.002  0.00  0.00    +0.006 C 
ATOM     29  C   UNL     1       0.718  -0.497  -1.257  0.00  0.00    +0.005 C 
ATOM     30  C   UNL     1       0.739  -2.027  -1.265  0.00  0.00    +0.000 C 
ATOM     31  C   UNL     1       1.479  -2.534  -0.026  0.00  0.00    +0.002 C 
ATOM     32  C   UNL     1       0.763  -2.041   1.233  0.00  0.00    +0.022 C 
ATOM     33  C   UNL     1       0.742  -0.511   1.242  0.00  0.00    +0.076 C 
ENDBRANCH  23  33
ENDBRANCH  21  24
ENDBRANCH  20  21
ENDBRANCH  18  20
ENDBRANCH   1  18
BRANCH   4  34
ATOM     34  O   UNL     1       4.276   2.562  11.055  0.00  0.00    -0.493 OA
ATOM     35  C   UNL     1       5.444   1.740  11.099  0.00  0.00    +0.277 C 
ENDBRANCH   4  34
TORSDOF 8
