REMARK  Name = ZINC34788054
REMARK  5 active torsions:
REMARK  status: ('A' for Active; 'I' for Inactive)
REMARK    1  A    between atoms: C_1  and  C_2
REMARK    2  A    between atoms: C_7  and  C_8
REMARK    3  A    between atoms: N_17  and  C_18
REMARK    4  A    between atoms: C_18  and  C_19
REMARK    5  A    between atoms: C_28  and  C_30
REMARK                            x       y       z     vdW  Elec       q    Type
REMARK                         _______ _______ _______ _____ _____    ______ ____
ROOT
ATOM      1  C   UNL     1      -1.218  -2.690   3.532  0.00  0.00    +0.199 C 
ATOM      2  O   UNL     1      -0.253  -2.927   4.226  0.00  0.00    -0.278 OA
ATOM      3  N   UNL     1      -2.441  -3.115   3.910  0.00  0.00    -0.301 N 
ATOM      4  C   UNL     1      -2.634  -3.838   5.118  0.00  0.00    +0.109 C 
ATOM      5  C   UNL     1      -2.367  -5.375   5.007  0.00  0.00    +0.038 C 
ATOM      6  C   UNL     1      -2.899  -5.839   3.612  0.00  0.00    +0.109 C 
ATOM      7  N   UNL     1      -4.103  -5.207   3.197  0.00  0.00    -0.296 N 
ATOM      8  C   UNL     1      -3.973  -4.032   2.297  0.00  0.00    +0.127 C 
ATOM      9  C   UNL     1      -3.646  -2.842   3.085  0.00  0.00    +0.126 C 
ATOM     10  C   UNL     1      -5.308  -5.654   3.602  0.00  0.00    +0.247 C 
ATOM     11  O   UNL     1      -5.381  -6.555   4.415  0.00  0.00    -0.270 OA
ENDROOT
BRANCH  10  12
ATOM     12  C   UNL     1      -6.542  -5.050   3.057  0.00  0.00    +0.037 A 
ATOM     13  C   UNL     1      -7.560  -5.877   2.550  0.00  0.00    +0.013 A 
ATOM     14  C   UNL     1      -8.702  -5.346   2.045  0.00  0.00    +0.009 A 
ATOM     15  C   UNL     1      -8.879  -3.950   2.022  0.00  0.00    -0.018 A 
ATOM     16  C   UNL     1     -10.052  -3.377   1.503  0.00  0.00    +0.008 A 
ATOM     17  C   UNL     1     -10.195  -2.023   1.495  0.00  0.00    +0.001 A 
ATOM     18  C   UNL     1      -9.193  -1.192   1.993  0.00  0.00    +0.001 A 
ATOM     19  C   UNL     1      -8.043  -1.711   2.503  0.00  0.00    +0.008 A 
ATOM     20  C   UNL     1      -7.859  -3.105   2.529  0.00  0.00    -0.017 A 
ATOM     21  C   UNL     1      -6.688  -3.673   3.054  0.00  0.00    +0.021 A 
ENDBRANCH  10  12
BRANCH   1  22
ATOM     22  C   UNL     1      -1.052  -1.920   2.248  0.00  0.00    +0.020 C 
BRANCH  22  31
ATOM     23  C   UNL     1       0.538  -0.931   0.756  0.00  0.00    -0.005 C 
ATOM     24  C   UNL     1       1.989  -0.482   0.616  0.00  0.00    -0.047 A 
ATOM     25  C   UNL     1       2.603  -0.198  -0.601  0.00  0.00    +0.010 A 
ATOM     26  C   UNL     1       3.899   0.192  -0.630  0.00  0.00    +0.045 A 
ATOM     27  S   UNL     1       4.329   0.177   1.104  0.00  0.00    -0.101 S 
ATOM     28  C   UNL     1       2.758  -0.342   1.733  0.00  0.00    -0.010 A 
ATOM     29  C   UNL     1       2.326  -0.582   3.143  0.00  0.00    +0.024 C 
ATOM     30  C   UNL     1       0.790  -0.678   3.147  0.00  0.00    -0.072 C 
ATOM     31  N   UNL     1       0.364  -1.574   2.064  0.00  0.00    +0.393 N 
ATOM     32  H   UNL     1       0.917  -2.417   2.095  0.00  0.00    -0.080 HD
BRANCH  23  39
ATOM     33  C   UNL     1      -0.517   0.016  -1.762  0.00  0.00    +0.044 C 
ATOM     34  C   UNL     1      -0.300  -1.459  -1.543  0.00  0.00    -0.049 A 
ATOM     35  C   UNL     1      -0.601  -2.359  -2.549  0.00  0.00    +0.003 A 
ATOM     36  C   UNL     1      -0.402  -3.712  -2.348  0.00  0.00    +0.000 A 
ATOM     37  C   UNL     1       0.098  -4.165  -1.141  0.00  0.00    +0.000 A 
ATOM     38  C   UNL     1       0.399  -3.266  -0.136  0.00  0.00    +0.002 A 
ATOM     39  C   UNL     1       0.204  -1.912  -0.338  0.00  0.00    -0.054 A 
ENDBRANCH  23  39
ENDBRANCH  22  31
ENDBRANCH   1  22
TORSDOF 4
