REMARK  Name = ZINC09662705
REMARK  12 active torsions:
REMARK  status: ('A' for Active; 'I' for Inactive)
REMARK    1  A    between atoms: C_1  and  C_2
REMARK    2  A    between atoms: C_4  and  C_10
REMARK    3  A    between atoms: C_5  and  C_8
REMARK    4  A    between atoms: C_8  and  O_9
REMARK    5  A    between atoms: N_11  and  N_12
REMARK    6  A    between atoms: N_12  and  C_13
REMARK    7  A    between atoms: C_16  and  N_31
REMARK    8  A    between atoms: C_18  and  S_19
REMARK    9  A    between atoms: S_19  and  N_22
REMARK   10  A    between atoms: N_22  and  C_23
REMARK   11  A    between atoms: C_28  and  O_29
REMARK   12  A    between atoms: O_29  and  C_30
REMARK                            x       y       z     vdW  Elec       q    Type
REMARK                         _______ _______ _______ _____ _____    ______ ____
ROOT
ATOM      1  C   UNL     1       0.003  -2.292  -6.014  0.00  0.00    +0.075 A 
ATOM      2  C   UNL     1      -0.011  -0.902  -6.050  0.00  0.00    +0.029 A 
ATOM      3  C   UNL     1      -0.026  -0.244  -7.263  0.00  0.00    +0.035 A 
ATOM      4  C   UNL     1      -0.028  -0.966  -8.443  0.00  0.00    +0.128 A 
ATOM      5  C   UNL     1      -0.015  -2.349  -8.412  0.00  0.00    +0.063 A 
ATOM      6  C   UNL     1       0.007  -3.014  -7.202  0.00  0.00    +0.135 A 
ENDROOT
BRANCH   6   7
ATOM      7  S   UNL     1       0.031  -4.775  -7.164  0.00  0.00    +0.094 S 
ATOM      8  O   UNL     1      -0.984  -5.176  -6.254  0.00  0.00    -0.148 OA
ATOM      9  O   UNL     1       0.057  -5.210  -8.516  0.00  0.00    -0.148 OA
BRANCH   7  10
ATOM     10  N   UNL     1       1.475  -5.230  -6.492  0.00  0.00    -0.094 NA
BRANCH  10  11
ATOM     11  C   UNL     1       1.776  -6.588  -6.333  0.00  0.00    +0.116 A 
ATOM     12  C   UNL     1       0.868  -7.554  -6.742  0.00  0.00    +0.030 A 
ATOM     13  C   UNL     1       1.168  -8.894  -6.584  0.00  0.00    +0.002 A 
ATOM     14  C   UNL     1       2.371  -9.275  -6.019  0.00  0.00    +0.004 A 
ATOM     15  C   UNL     1       3.280  -8.318  -5.609  0.00  0.00    +0.047 A 
ATOM     16  C   UNL     1       2.990  -6.973  -5.768  0.00  0.00    +0.144 A 
BRANCH  16  17
ATOM     17  O   UNL     1       3.886  -6.030  -5.370  0.00  0.00    -0.493 OA
ATOM     18  C   UNL     1       5.109  -6.498  -4.799  0.00  0.00    +0.277 C 
ENDBRANCH  16  17
ENDBRANCH  10  11
ENDBRANCH   7  10
ENDBRANCH   6   7
BRANCH   4  19
ATOM     19  N   UNL     1      -0.045  -0.257  -9.743  0.00  0.00    +0.056 N 
ATOM     20  O   UNL     1      -0.057   0.951  -9.772  0.00  0.00    -0.126 OA
ATOM     21  O   UNL     1      -0.046  -0.887 -10.775  0.00  0.00    -0.126 OA
ENDBRANCH   4  19
BRANCH   1  22
ATOM     22  N   UNL     1       0.018  -2.961  -4.790  0.00  0.00    -0.236 N 
ATOM     23  H   UNL     1       0.032  -3.930  -4.767  0.00  0.00    +0.174 HD
BRANCH  22  25
ATOM     24  C   UNL     1       0.029  -2.853  -2.454  0.00  0.00    +0.142 C 
ATOM     25  N   UNL     1       0.015  -2.231  -3.594  0.00  0.00    -0.190 NA
BRANCH  24  29
ATOM     26  C   UNL     1      -0.018   1.503   0.010  0.00  0.00    +0.067 C 
ATOM     27  C   UNL     1       0.002  -0.004   0.002  0.00  0.00    +0.061 A 
ATOM     28  C   UNL     1       0.006  -0.681  -1.206  0.00  0.00    +0.207 A 
ATOM     29  C   UNL     1       0.025  -2.087  -1.196  0.00  0.00    +0.050 A 
ATOM     30  C   UNL     1       0.040  -2.737   0.045  0.00  0.00    +0.006 A 
ATOM     31  C   UNL     1       0.035  -1.980   1.197  0.00  0.00    +0.089 A 
ATOM     32  N   UNL     1       0.022  -0.661   1.146  0.00  0.00    -0.361 N 
ATOM     33  O   UNL     1      -0.010   0.002  -2.380  0.00  0.00    -0.285 OA
ATOM     34  H   UNL     1       0.023  -0.159   1.976  0.00  0.00    +0.165 HD
BRANCH  30  35
ATOM     35  C   UNL     1       0.061  -4.242   0.119  0.00  0.00    +0.193 C 
BRANCH  35  36
ATOM     36  O   UNL     1       0.074  -4.652   1.488  0.00  0.00    -0.390 OA
ATOM     37  H   UNL     1       0.087  -5.610   1.612  0.00  0.00    +0.210 HD
ENDBRANCH  35  36
ENDBRANCH  30  35
ENDBRANCH  24  29
ENDBRANCH  22  25
ENDBRANCH   1  22
TORSDOF 10
