REMARK  Name = ZINC36027428
REMARK  8 active torsions:
REMARK  status: ('A' for Active; 'I' for Inactive)
REMARK    1  A    between atoms: C_1  and  C_2
REMARK    2  A    between atoms: C_2  and  C_3
REMARK    3  A    between atoms: C_3  and  C_5
REMARK    4  A    between atoms: C_3  and  C_6
REMARK    5  A    between atoms: N_10  and  C_29
REMARK    6  A    between atoms: N_15  and  S_18
REMARK    7  A    between atoms: S_18  and  C_21
REMARK    8  A    between atoms: C_29  and  C_30
REMARK                            x       y       z     vdW  Elec       q    Type
REMARK                         _______ _______ _______ _____ _____    ______ ____
ROOT
ATOM      1  C   UNL     1      -2.355  -2.387   0.160  0.00  0.00    +0.022 C 
ATOM      2  C   UNL     1      -1.321  -2.845  -0.845  0.00  0.00    +0.201 C 
ATOM      3  O   UNL     1      -0.211  -2.377  -0.983  0.00  0.00    -0.277 OA
ATOM      4  N   UNL     1      -1.842  -3.861  -1.563  0.00  0.00    -0.309 N 
ATOM      5  C   UNL     1      -3.203  -4.141  -1.097  0.00  0.00    +0.006 C 
ATOM      6  N   UNL     1      -3.636  -2.955  -0.326  0.00  0.00    +0.401 N 
ATOM      7  C   UNL     1      -3.209  -5.372  -0.192  0.00  0.00    +0.023 C 
ATOM      8  C   UNL     1      -2.721  -6.589  -0.986  0.00  0.00    +0.109 C 
ATOM      9  N   UNL     1      -3.538  -6.718  -2.201  0.00  0.00    -0.177 NA
ATOM     10  C   UNL     1      -3.657  -5.561  -3.100  0.00  0.00    +0.109 C 
ATOM     11  C   UNL     1      -4.136  -4.354  -2.288  0.00  0.00    +0.023 C 
ATOM     12  H   UNL     1      -4.223  -3.226   0.449  0.00  0.00    -0.082 HD
ATOM     13  H   UNL     1      -4.114  -2.297  -0.923  0.00  0.00    -0.082 HD
ENDROOT
BRANCH   9  14
ATOM     14  S   UNL     1      -4.309  -8.140  -2.551  0.00  0.00    +0.061 S 
ATOM     15  O   UNL     1      -4.516  -8.155  -3.957  0.00  0.00    -0.153 OA
ATOM     16  O   UNL     1      -3.595  -9.167  -1.876  0.00  0.00    -0.153 OA
BRANCH  14  17
ATOM     17  C   UNL     1      -5.905  -8.065  -1.808  0.00  0.00    +0.107 A 
ATOM     18  C   UNL     1      -6.086  -8.516  -0.513  0.00  0.00    +0.030 A 
ATOM     19  C   UNL     1      -7.337  -8.458   0.071  0.00  0.00    +0.023 A 
ATOM     20  C   UNL     1      -8.409  -7.947  -0.639  0.00  0.00    +0.059 A 
ATOM     21  C   UNL     1      -8.227  -7.494  -1.935  0.00  0.00    +0.061 A 
ATOM     22  C   UNL     1      -6.973  -7.549  -2.517  0.00  0.00    +0.050 A 
ATOM     23 CL   UNL     1      -9.571  -6.853  -2.828  0.00  0.00    -0.082 Cl
ATOM     24 CL   UNL     1      -9.981  -7.874   0.094  0.00  0.00    -0.082 Cl
ENDBRANCH  14  17
ENDBRANCH   9  14
BRANCH   1  25
ATOM     25  C   UNL     1      -2.428  -0.859   0.191  0.00  0.00    -0.020 C 
ATOM     26  C   UNL     1      -2.743  -0.335  -1.212  0.00  0.00    +0.006 C 
BRANCH  25  28
ATOM     27  C   UNL     1      -1.196   1.225   0.808  0.00  0.00    +0.004 C 
ATOM     28  C   UNL     1      -1.085  -0.294   0.657  0.00  0.00    -0.001 C 
ENDBRANCH  25  28
ENDBRANCH   1  25
BRANCH   4  29
ATOM     29  C   UNL     1      -1.154  -4.575  -2.641  0.00  0.00    +0.141 C 
BRANCH  29  30
ATOM     30  C   UNL     1      -1.227  -3.763  -3.908  0.00  0.00    -0.030 A 
ATOM     31  C   UNL     1      -2.441  -3.580  -4.543  0.00  0.00    +0.005 A 
ATOM     32  C   UNL     1      -2.508  -2.834  -5.705  0.00  0.00    +0.000 A 
ATOM     33  C   UNL     1      -1.361  -2.271  -6.232  0.00  0.00    +0.000 A 
ATOM     34  C   UNL     1      -0.147  -2.453  -5.597  0.00  0.00    +0.000 A 
ATOM     35  C   UNL     1      -0.081  -3.195  -4.432  0.00  0.00    +0.005 A 
ENDBRANCH  29  30
ENDBRANCH   4  29
TORSDOF 6
