REMARK  Name = ZINC15965984
REMARK  8 active torsions:
REMARK  status: ('A' for Active; 'I' for Inactive)
REMARK    1  A    between atoms: C_1  and  C_2
REMARK    2  A    between atoms: N_5  and  S_11
REMARK    3  A    between atoms: C_7  and  C_10
REMARK    4  A    between atoms: S_11  and  C_14
REMARK    5  A    between atoms: C_18  and  C_20
REMARK    6  A    between atoms: N_22  and  C_23
REMARK    7  A    between atoms: N_22  and  C_24
REMARK    8  A    between atoms: C_24  and  C_25
REMARK                            x       y       z     vdW  Elec       q    Type
REMARK                         _______ _______ _______ _____ _____    ______ ____
ROOT
ATOM      1  C   UNL     1      -1.425  -3.608  -1.481  0.00  0.00    +0.106 A 
ATOM      2  C   UNL     1      -1.794  -2.889  -2.604  0.00  0.00    +0.028 A 
ATOM      3  C   UNL     1      -1.214  -3.164  -3.830  0.00  0.00    +0.003 A 
ATOM      4  C   UNL     1      -0.265  -4.159  -3.940  0.00  0.00    +0.013 A 
ATOM      5  C   UNL     1       0.111  -4.888  -2.811  0.00  0.00    +0.039 A 
ATOM      6  C   UNL     1      -0.473  -4.602  -1.576  0.00  0.00    +0.041 A 
ENDROOT
BRANCH   5   7
ATOM      7  C   UNL     1       1.128  -5.956  -2.921  0.00  0.00    +0.247 C 
ATOM      8  O   UNL     1       2.017  -5.866  -3.745  0.00  0.00    -0.270 OA
ATOM      9  N   UNL     1       1.069  -7.029  -2.108  0.00  0.00    -0.296 N 
ATOM     10  C   UNL     1      -0.067  -7.197  -1.198  0.00  0.00    +0.132 C 
BRANCH   9  11
ATOM     11  C   UNL     1       2.141  -8.028  -2.134  0.00  0.00    +0.144 C 
BRANCH  11  12
ATOM     12  C   UNL     1       3.268  -7.579  -1.241  0.00  0.00    -0.012 A 
ATOM     13  C   UNL     1       4.377  -6.960  -1.786  0.00  0.00    +0.008 A 
ATOM     14  C   UNL     1       5.411  -6.547  -0.967  0.00  0.00    +0.020 A 
ATOM     15  C   UNL     1       5.337  -6.753   0.399  0.00  0.00    +0.042 A 
ATOM     16  C   UNL     1       4.227  -7.372   0.945  0.00  0.00    +0.040 A 
ATOM     17  C   UNL     1       3.190  -7.780   0.126  0.00  0.00    +0.047 A 
ATOM     18 CL   UNL     1       1.794  -8.552   0.811  0.00  0.00    -0.083 Cl
ATOM     19 CL   UNL     1       6.636  -6.236   1.428  0.00  0.00    -0.083 Cl
ENDBRANCH  11  12
ENDBRANCH   9  11
ENDBRANCH   5   7
BRANCH   1  20
ATOM     20  S   UNL     1      -2.169  -3.250   0.076  0.00  0.00    +0.061 S 
ATOM     21  O   UNL     1      -2.047  -4.425   0.865  0.00  0.00    -0.153 OA
ATOM     22  O   UNL     1      -3.426  -2.647  -0.204  0.00  0.00    -0.153 OA
BRANCH  20  26
ATOM     23  C   UNL     1      -0.414   1.546   0.168  0.00  0.00    +0.039 C 
ATOM     24  C   UNL     1      -0.204   0.031   0.201  0.00  0.00    +0.131 C 
ATOM     25  C   UNL     1      -1.514  -0.659   0.600  0.00  0.00    +0.140 C 
ATOM     26  N   UNL     1      -1.240  -2.090   0.806  0.00  0.00    -0.172 NA
ATOM     27  C   UNL     1      -0.117  -2.460   1.683  0.00  0.00    +0.140 C 
ATOM     28  C   UNL     1       1.124  -1.682   1.231  0.00  0.00    +0.131 C 
ATOM     29  O   UNL     1       0.808  -0.290   1.158  0.00  0.00    -0.371 OA
ATOM     30  C   UNL     1       2.256  -1.898   2.238  0.00  0.00    +0.039 C 
ENDBRANCH  20  26
ENDBRANCH   1  20
TORSDOF 5
