REMARK  Name = ZINC65987343
REMARK  4 active torsions:
REMARK  status: ('A' for Active; 'I' for Inactive)
REMARK    1  A    between atoms: C_2  and  C_3
REMARK    2  A    between atoms: C_3  and  N_4
REMARK    3  A    between atoms: C_10  and  C_13
REMARK    4  A    between atoms: N_15  and  C_16
REMARK                            x       y       z     vdW  Elec       q    Type
REMARK                         _______ _______ _______ _____ _____    ______ ____
ROOT
ATOM      1  N   UNL     1       1.356   1.975   0.001  0.00  0.00    -0.288 N 
ATOM      2  C   UNL     1       1.585   3.303   0.005  0.00  0.00    +0.303 C 
ATOM      3  O   UNL     1       0.653   4.080  -0.075  0.00  0.00    -0.253 OA
ATOM      4  N   UNL     1       2.846   3.770   0.097  0.00  0.00    -0.286 N 
ATOM      5  C   UNL     1       3.989   2.847   0.076  0.00  0.00    +0.110 C 
ATOM      6  C   UNL     1       4.860   3.114   1.308  0.00  0.00    +0.032 C 
ATOM      7  C   UNL     1       5.248   4.594   1.342  0.00  0.00    +0.078 C 
ATOM      8  C   UNL     1       3.985   5.452   1.449  0.00  0.00    +0.032 C 
ATOM      9  C   UNL     1       3.104   5.212   0.213  0.00  0.00    +0.110 C 
ATOM     10  H   UNL     1       2.102   1.355  -0.010  0.00  0.00    +0.151 HD
ENDROOT
BRANCH   7  11
ATOM     11  C   UNL     1       6.133   4.854   2.533  0.00  0.00    +0.216 C 
ATOM     12  O   UNL     1       6.426   3.945   3.281  0.00  0.00    -0.276 OA
ATOM     13  N   UNL     1       6.601   6.096   2.768  0.00  0.00    -0.312 N 
ATOM     14  H   UNL     1       6.367   6.823   2.170  0.00  0.00    +0.149 HD
BRANCH  13  15
ATOM     15  C   UNL     1       7.461   6.349   3.926  0.00  0.00    +0.073 C 
ATOM     16  C   UNL     1       6.594   6.601   5.161  0.00  0.00    +0.022 C 
ATOM     17  C   UNL     1       7.493   6.864   6.371  0.00  0.00    +0.002 C 
ATOM     18  C   UNL     1       8.364   8.092   6.101  0.00  0.00    +0.000 C 
ATOM     19  C   UNL     1       9.232   7.841   4.866  0.00  0.00    +0.002 C 
ATOM     20  C   UNL     1       8.333   7.577   3.656  0.00  0.00    +0.022 C 
ENDBRANCH  13  15
ENDBRANCH   7  11
BRANCH   1  21
ATOM     21  C   UNL     1      -0.018   1.468   0.013  0.00  0.00    +0.195 C 
BRANCH  21  23
ATOM     22  C   UNL     1       0.018  -1.178  -0.001  0.00  0.00    +0.005 C 
ATOM     23  C   UNL     1       0.002  -0.004   0.005  0.00  0.00    -0.087 C 
ENDBRANCH  21  23
ENDBRANCH   1  21
TORSDOF 4
