REMARK  Name = ZINC28286209
REMARK  6 active torsions:
REMARK  status: ('A' for Active; 'I' for Inactive)
REMARK    1  A    between atoms: C_4  and  C_7
REMARK    2  A    between atoms: C_7  and  N_8
REMARK    3  A    between atoms: C_11  and  C_14
REMARK    4  A    between atoms: C_11  and  C_29
REMARK    5  A    between atoms: C_14  and  N_15
REMARK    6  A    between atoms: C_16  and  C_18
REMARK                            x       y       z     vdW  Elec       q    Type
REMARK                         _______ _______ _______ _____ _____    ______ ____
ROOT
ATOM      1  N   UNL     1      -4.056  -1.624  -3.263  0.00  0.00    +0.382 N 
ATOM      2  C   UNL     1      -5.316  -0.878  -3.370  0.00  0.00    -0.077 C 
ATOM      3  C   UNL     1      -5.993  -0.816  -1.999  0.00  0.00    -0.006 C 
ATOM      4  C   UNL     1      -5.054  -0.130  -1.003  0.00  0.00    +0.008 C 
ATOM      5  C   UNL     1      -3.732  -0.898  -0.944  0.00  0.00    -0.006 C 
ATOM      6  C   UNL     1      -3.121  -0.958  -2.348  0.00  0.00    -0.077 C 
ATOM      7  H   UNL     1      -4.288  -2.614  -2.844  0.00  0.00    -0.081 HD
ENDROOT
BRANCH   4   8
ATOM      8  C   UNL     1      -5.691  -0.118   0.363  0.00  0.00    -0.040 A 
ATOM      9  C   UNL     1      -6.902  -0.754   0.566  0.00  0.00    +0.005 A 
ATOM     10  C   UNL     1      -7.484  -0.749   1.820  0.00  0.00    +0.020 A 
ATOM     11  C   UNL     1      -6.860  -0.097   2.869  0.00  0.00    +0.041 A 
ATOM     12  C   UNL     1      -5.651   0.544   2.663  0.00  0.00    +0.020 A 
ATOM     13  C   UNL     1      -5.067   0.533   1.411  0.00  0.00    +0.005 A 
ATOM     14 CL   UNL     1      -7.593  -0.084   4.442  0.00  0.00    -0.084 Cl
ENDBRANCH   4   8
BRANCH   1  15
ATOM     15  C   UNL     1      -3.447  -1.823  -4.585  0.00  0.00    -0.043 C 
BRANCH  15  19
ATOM     16  C   UNL     1       0.508  -3.368  -4.115  0.00  0.00    +0.000 A 
ATOM     17  C   UNL     1      -0.565  -4.234  -4.222  0.00  0.00    +0.000 A 
ATOM     18  C   UNL     1      -1.844  -3.734  -4.374  0.00  0.00    +0.002 A 
ATOM     19  C   UNL     1      -2.052  -2.368  -4.419  0.00  0.00    -0.064 A 
ATOM     20  C   UNL     1      -0.979  -1.502  -4.317  0.00  0.00    +0.002 A 
ATOM     21  C   UNL     1       0.300  -2.002  -4.160  0.00  0.00    +0.000 A 
ENDBRANCH  15  19
ENDBRANCH   1  15
BRANCH   4  22
ATOM     22  C   UNL     1      -4.791   1.308  -1.456  0.00  0.00    +0.115 C 
BRANCH  22  23
ATOM     23  N   UNL     1      -6.064   2.019  -1.589  0.00  0.00    -0.312 N 
ATOM     24  C   UNL     1      -6.087   3.274  -2.080  0.00  0.00    +0.246 C 
ATOM     25  O   UNL     1      -5.066   3.782  -2.493  0.00  0.00    -0.273 OA
ATOM     26  H   UNL     1      -7.002   1.530  -1.287  0.00  0.00    +0.149 HD
BRANCH  24  27
ATOM     27  C   UNL     1      -7.381   4.046  -2.115  0.00  0.00    +0.234 C 
ATOM     28  C   UNL     1      -7.818   4.222  -3.546  0.00  0.00    -0.007 A 
ATOM     29  C   UNL     1      -6.869   4.572  -4.494  0.00  0.00    +0.007 A 
ATOM     30  C   UNL     1      -7.235   4.753  -5.813  0.00  0.00    +0.000 A 
ATOM     31  C   UNL     1      -8.552   4.574  -6.193  0.00  0.00    +0.000 A 
ATOM     32  C   UNL     1      -9.497   4.219  -5.251  0.00  0.00    +0.004 A 
ATOM     33  C   UNL     1      -9.131   4.040  -3.927  0.00  0.00    -0.039 A 
ATOM     34  C   UNL     1     -10.188   3.641  -2.929  0.00  0.00    +0.063 C 
ATOM     35  C   UNL     1      -9.684   3.903  -1.509  0.00  0.00    +0.166 C 
ATOM     36  O   UNL     1      -8.376   3.335  -1.379  0.00  0.00    -0.362 OA
ENDBRANCH  24  27
ENDBRANCH  22  23
ENDBRANCH   4  22
TORSDOF 6
