REMARK  Name = ZINC14242971
REMARK  6 active torsions:
REMARK  status: ('A' for Active; 'I' for Inactive)
REMARK    1  A    between atoms: C_3  and  N_8
REMARK    2  A    between atoms: C_9  and  C_11
REMARK    3  A    between atoms: C_11  and  N_12
REMARK    4  A    between atoms: C_18  and  C_20
REMARK    5  A    between atoms: C_20  and  N_21
REMARK    6  A    between atoms: C_25  and  C_26
REMARK                            x       y       z     vdW  Elec       q    Type
REMARK                         _______ _______ _______ _____ _____    ______ ____
ROOT
ATOM      1  N   UNL     1       7.176   1.312   0.252  0.00  0.00    -0.291 NA
ATOM      2  C   UNL     1       7.126   0.534   1.497  0.00  0.00    +0.104 C 
ATOM      3  C   UNL     1       8.209  -0.550   1.462  0.00  0.00    +0.123 C 
ATOM      4  N   UNL     1       9.502   0.091   1.181  0.00  0.00    -0.301 N 
ATOM      5  C   UNL     1       9.594   0.997   0.026  0.00  0.00    +0.123 C 
ATOM      6  C   UNL     1       8.457   2.019   0.117  0.00  0.00    +0.104 C 
ATOM      7  C   UNL     1      10.576  -0.145   1.962  0.00  0.00    +0.199 C 
ATOM      8  O   UNL     1      10.482  -0.895   2.910  0.00  0.00    -0.278 OA
ENDROOT
BRANCH   1   9
ATOM      9  C   UNL     1       6.047   2.248   0.171  0.00  0.00    +0.180 C 
BRANCH   9  11
ATOM     10  N   UNL     1       3.584   2.127  -0.021  0.00  0.00    -0.284 N 
ATOM     11  C   UNL     1       4.759   1.473   0.066  0.00  0.00    +0.231 C 
ATOM     12  O   UNL     1       4.779   0.260   0.060  0.00  0.00    -0.274 OA
ATOM     13  H   UNL     1       3.571   3.095  -0.084  0.00  0.00    +0.155 HD
BRANCH  10  16
ATOM     14  C   UNL     1       0.070   1.231   0.593  0.00  0.00    +0.005 A 
ATOM     15  C   UNL     1       1.256   1.940   0.595  0.00  0.00    +0.023 A 
ATOM     16  C   UNL     1       2.382   1.410  -0.021  0.00  0.00    +0.036 A 
ATOM     17  C   UNL     1       2.313   0.168  -0.637  0.00  0.00    +0.061 A 
ATOM     18  C   UNL     1       1.124  -0.538  -0.635  0.00  0.00    +0.125 A 
ATOM     19  C   UNL     1       0.003  -0.006  -0.020  0.00  0.00    +0.038 A 
ATOM     20  F   UNL     1       1.055  -1.747  -1.234  0.00  0.00    -0.205 F 
ENDBRANCH  10  16
ENDBRANCH   9  11
ENDBRANCH   1   9
BRANCH   7  21
ATOM     21  C   UNL     1      11.892   0.523   1.656  0.00  0.00    +0.020 C 
BRANCH  21  22
ATOM     22  N   UNL     1      12.894   0.105   2.645  0.00  0.00    +0.390 N 
ATOM     23  C   UNL     1      12.521   0.617   3.976  0.00  0.00    -0.077 C 
ATOM     24  C   UNL     1      13.680   1.512   4.463  0.00  0.00    -0.020 C 
ATOM     25  C   UNL     1      14.887   1.003   3.633  0.00  0.00    -0.013 C 
ATOM     26  C   UNL     1      14.215   0.661   2.280  0.00  0.00    -0.037 C 
ATOM     27  H   UNL     1      12.946  -0.902   2.672  0.00  0.00    -0.080 HD
BRANCH  26  28
ATOM     28  C   UNL     1      15.028  -0.365   1.534  0.00  0.00    -0.057 A 
ATOM     29  C   UNL     1      14.996  -1.690   1.929  0.00  0.00    +0.006 A 
ATOM     30  C   UNL     1      15.740  -2.637   1.249  0.00  0.00    +0.049 A 
ATOM     31  C   UNL     1      16.517  -2.254   0.170  0.00  0.00    +0.162 A 
ATOM     32  C   UNL     1      16.550  -0.925  -0.227  0.00  0.00    +0.162 A 
ATOM     33  C   UNL     1      15.800   0.021   0.453  0.00  0.00    +0.051 A 
ATOM     34  O   UNL     1      17.318  -0.557  -1.293  0.00  0.00    -0.488 OA
ATOM     35  C   UNL     1      18.732  -0.644  -1.103  0.00  0.00    +0.232 C 
ATOM     36  C   UNL     1      19.227  -2.056  -1.375  0.00  0.00    +0.082 C 
ATOM     37  C   UNL     1      18.674  -3.065  -0.381  0.00  0.00    +0.232 C 
ATOM     38  O   UNL     1      17.255  -3.179  -0.511  0.00  0.00    -0.488 OA
ENDBRANCH  26  28
ENDBRANCH  21  22
ENDBRANCH   7  21
TORSDOF 6
