REMARK  Name = ZINC37297638
REMARK  6 active torsions:
REMARK  status: ('A' for Active; 'I' for Inactive)
REMARK    1  A    between atoms: C_1  and  C_2
REMARK    2  A    between atoms: C_7  and  N_8
REMARK    3  A    between atoms: N_8  and  C_9
REMARK    4  A    between atoms: C_9  and  C_11
REMARK    5  A    between atoms: C_9  and  C_16
REMARK    6  A    between atoms: N_20  and  C_21
REMARK                            x       y       z     vdW  Elec       q    Type
REMARK                         _______ _______ _______ _____ _____    ______ ____
ROOT
ATOM      1  C   UNL     1       0.412  -0.683   3.429  0.00  0.00    +0.202 C 
ENDROOT
BRANCH   1   2
ATOM      2  C   UNL     1       0.914   0.091   4.620  0.00  0.00    +0.115 A 
ATOM      3  N   UNL     1       0.743   1.369   4.824  0.00  0.00    -0.348 N 
ATOM      4  C   UNL     1       1.323   1.713   5.983  0.00  0.00    +0.102 A 
ATOM      5  C   UNL     1       1.873   0.607   6.519  0.00  0.00    +0.104 A 
ATOM      6  N   UNL     1       1.609  -0.423   5.657  0.00  0.00    -0.337 N 
ATOM      7  C   UNL     1       2.009  -1.823   5.827  0.00  0.00    +0.150 C 
ATOM      8  H   UNL     1       0.272   1.974   4.230  0.00  0.00    +0.167 HD
ENDBRANCH   1   2
BRANCH   1   9
ATOM      9  C   UNL     1      -1.016  -1.101   3.667  0.00  0.00    +0.132 A 
ATOM     10  C   UNL     1      -1.423  -2.316   4.077  0.00  0.00    +0.047 A 
ATOM     11  C   UNL     1      -2.833  -2.268   4.168  0.00  0.00    +0.041 A 
ATOM     12  C   UNL     1      -3.204  -1.026   3.808  0.00  0.00    +0.195 A 
ATOM     13  O   UNL     1      -2.099  -0.322   3.512  0.00  0.00    -0.465 OA
ENDBRANCH   1   9
BRANCH   1  14
ATOM     14  N   UNL     1       0.481   0.161   2.234  0.00  0.00    -0.328 N 
ATOM     15  H   UNL     1       0.476   1.127   2.321  0.00  0.00    +0.147 HD
BRANCH  14  22
ATOM     16  C   UNL     1       0.612   1.874  -0.034  0.00  0.00    +0.045 C 
ATOM     17  C   UNL     1       0.620   0.373  -0.167  0.00  0.00    -0.029 A 
ATOM     18  C   UNL     1       0.698  -0.210  -1.416  0.00  0.00    +0.019 A 
ATOM     19  C   UNL     1       0.705  -1.588  -1.539  0.00  0.00    +0.014 A 
ATOM     20  C   UNL     1       0.634  -2.386  -0.411  0.00  0.00    +0.016 A 
ATOM     21  C   UNL     1       0.555  -1.809   0.841  0.00  0.00    +0.024 A 
ATOM     22  C   UNL     1       0.554  -0.426   0.968  0.00  0.00    +0.031 A 
ATOM     23  I   UNL     1       0.824  -2.467  -3.437  0.00  0.00    -0.044 I 
ENDBRANCH  14  22
ENDBRANCH   1  14
TORSDOF 4
