REMARK  Name = ZINC04880466
REMARK  4 active torsions:
REMARK  status: ('A' for Active; 'I' for Inactive)
REMARK    1  A    between atoms: C_6  and  C_7
REMARK    2  A    between atoms: C_9  and  C_12
REMARK    3  A    between atoms: N_14  and  C_15
REMARK    4  A    between atoms: C_16  and  C_24
REMARK                            x       y       z     vdW  Elec       q    Type
REMARK                         _______ _______ _______ _____ _____    ______ ____
ROOT
ATOM      1  C   UNL     1      -2.275   7.222  -2.923  0.00  0.00    +0.270 C 
ATOM      2  O   UNL     1      -2.257   6.338  -3.756  0.00  0.00    -0.268 OA
ATOM      3  N   UNL     1      -1.962   6.946  -1.641  0.00  0.00    -0.274 N 
ATOM      4  H   UNL     1      -1.976   7.651  -0.976  0.00  0.00    +0.156 HD
ENDROOT
BRANCH   3   5
ATOM      5  C   UNL     1      -1.619   5.653  -1.274  0.00  0.00    +0.090 A 
ATOM      6  C   UNL     1      -1.270   5.177  -0.019  0.00  0.00    +0.084 A 
ATOM      7  C   UNL     1      -0.951   3.765   0.100  0.00  0.00    -0.018 A 
ATOM      8  C   UNL     1      -1.032   3.059  -1.049  0.00  0.00    -0.004 A 
ATOM      9  S   UNL     1      -1.523   4.240  -2.273  0.00  0.00    -0.077 S 
ATOM     10  C   UNL     1      -0.761   1.597  -1.232  0.00  0.00    +0.043 C 
ATOM     11  C   UNL     1      -0.013   1.086   0.008  0.00  0.00    +0.005 C 
ATOM     12  C   UNL     1      -0.735   1.583   1.264  0.00  0.00    +0.005 C 
ATOM     13  C   UNL     1      -0.551   3.093   1.408  0.00  0.00    +0.037 C 
BRANCH   6  14
ATOM     14  C   UNL     1      -1.224   6.047   1.118  0.00  0.00    +0.102 C 
ATOM     15  N   UNL     1      -1.188   6.737   2.020  0.00  0.00    -0.191 NA
ENDBRANCH   6  14
ENDBRANCH   3   5
BRANCH   1  18
ATOM     16  C   UNL     1      -3.237  10.389  -4.441  0.00  0.00    +0.168 A 
ATOM     17  C   UNL     1      -2.988   9.056  -4.615  0.00  0.00    +0.086 A 
ATOM     18  C   UNL     1      -2.641   8.604  -3.315  0.00  0.00    +0.169 A 
ATOM     19  N   UNL     1      -2.703   9.654  -2.532  0.00  0.00    -0.073 NA
ATOM     20  O   UNL     1      -3.031  10.647  -3.138  0.00  0.00    -0.354 OA
BRANCH  16  26
ATOM     21  C   UNL     1      -3.818  10.936  -6.801  0.00  0.00    +0.014 A 
ATOM     22  C   UNL     1      -4.205  11.841  -7.766  0.00  0.00    +0.039 A 
ATOM     23  C   UNL     1      -4.415  13.169  -7.429  0.00  0.00    +0.123 A 
ATOM     24  C   UNL     1      -4.241  13.594  -6.122  0.00  0.00    +0.039 A 
ATOM     25  C   UNL     1      -3.859  12.695  -5.148  0.00  0.00    +0.014 A 
ATOM     26  C   UNL     1      -3.647  11.357  -5.481  0.00  0.00    +0.020 A 
ATOM     27  F   UNL     1      -4.789  14.054  -8.380  0.00  0.00    -0.205 F 
ENDBRANCH  16  26
ENDBRANCH   1  18
TORSDOF 4
