REMARK  Name = ZINC63842617
REMARK  6 active torsions:
REMARK  status: ('A' for Active; 'I' for Inactive)
REMARK    1  A    between atoms: C_7  and  C_10
REMARK    2  A    between atoms: C_10  and  C_12
REMARK    3  A    between atoms: C_10  and  C_32
REMARK    4  A    between atoms: C_12  and  N_13
REMARK    5  A    between atoms: C_14  and  C_16
REMARK    6  A    between atoms: C_23  and  C_25
REMARK                            x       y       z     vdW  Elec       q    Type
REMARK                         _______ _______ _______ _____ _____    ______ ____
ROOT
ATOM      1  N   UNL     1      -0.168  -5.042   0.835  0.00  0.00    -0.314 N 
ATOM      2  C   UNL     1       0.045  -6.098   1.645  0.00  0.00    +0.218 C 
ATOM      3  O   UNL     1       1.058  -6.158   2.309  0.00  0.00    -0.275 OA
ATOM      4  H   UNL     1      -0.979  -4.994   0.304  0.00  0.00    +0.149 HD
ENDROOT
BRANCH   2   5
ATOM      5  C   UNL     1      -0.976  -7.204   1.726  0.00  0.00    +0.092 C 
ATOM      6  C   UNL     1      -0.495  -8.271   2.711  0.00  0.00    +0.016 C 
ATOM      7  C   UNL     1      -1.515  -9.411   2.769  0.00  0.00    +0.020 C 
ATOM      8  C   UNL     1      -2.857  -8.864   3.265  0.00  0.00    +0.108 C 
ATOM      9  N   UNL     1      -3.256  -7.740   2.408  0.00  0.00    -0.297 N 
ATOM     10  C   UNL     1      -2.312  -6.632   2.209  0.00  0.00    +0.120 C 
ATOM     11  C   UNL     1      -4.466  -7.725   1.813  0.00  0.00    +0.247 C 
ATOM     12  O   UNL     1      -4.812  -6.759   1.163  0.00  0.00    -0.270 OA
BRANCH  11  13
ATOM     13  C   UNL     1      -5.372  -8.884   1.953  0.00  0.00    +0.037 A 
ATOM     14  C   UNL     1      -5.654  -9.406   3.217  0.00  0.00    +0.014 A 
ATOM     15  C   UNL     1      -6.500 -10.487   3.341  0.00  0.00    +0.021 A 
ATOM     16  C   UNL     1      -7.070 -11.057   2.215  0.00  0.00    +0.041 A 
ATOM     17  C   UNL     1      -6.795 -10.544   0.958  0.00  0.00    +0.021 A 
ATOM     18  C   UNL     1      -5.954  -9.459   0.822  0.00  0.00    +0.014 A 
ATOM     19 CL   UNL     1      -8.134 -12.419   2.379  0.00  0.00    -0.084 Cl
ENDBRANCH  11  13
ENDBRANCH   2   5
BRANCH   1  20
ATOM     20  C   UNL     1       0.824  -3.967   0.756  0.00  0.00    +0.117 C 
BRANCH  20  21
ATOM     21  C   UNL     1       0.342  -2.899  -0.228  0.00  0.00    +0.071 C 
BRANCH  21  28
ATOM     22  C   UNL     1      -0.189   1.548   0.771  0.00  0.00    +0.001 A 
ATOM     23  C   UNL     1       0.990   2.296   0.649  0.00  0.00    +0.002 A 
ATOM     24  C   UNL     1       2.165   1.749   0.273  0.00  0.00    +0.026 A 
ATOM     25  C   UNL     1       2.250   0.360  -0.020  0.00  0.00    +0.043 A 
ATOM     26  N   UNL     1       3.255  -0.393  -0.398  0.00  0.00    -0.380 N 
ATOM     27  C   UNL     1       2.773  -1.769  -0.560  0.00  0.00    +0.145 C 
ATOM     28  C   UNL     1       1.301  -1.736  -0.217  0.00  0.00    -0.032 C 
ATOM     29  C   UNL     1       1.018  -0.452   0.101  0.00  0.00    -0.000 A 
ATOM     30  C   UNL     1      -0.218   0.221   0.516  0.00  0.00    +0.010 A 
ATOM     31  H   UNL     1       4.164  -0.090  -0.547  0.00  0.00    +0.160 HD
ENDBRANCH  21  28
BRANCH  21  32
ATOM     32  C   UNL     1       0.279  -3.485  -1.614  0.00  0.00    -0.002 A 
ATOM     33  C   UNL     1      -0.787  -3.604  -2.443  0.00  0.00    +0.012 A 
ATOM     34  C   UNL     1      -0.609  -4.182  -3.686  0.00  0.00    +0.008 A 
ATOM     35  C   UNL     1       0.627  -4.612  -4.040  0.00  0.00    +0.045 A 
ATOM     36  S   UNL     1       1.590  -4.196  -2.595  0.00  0.00    -0.101 S 
ENDBRANCH  21  32
ENDBRANCH  20  21
ENDBRANCH   1  20
TORSDOF 6
