REMARK  Name = ZINC11481919
REMARK  13 active torsions:
REMARK  status: ('A' for Active; 'I' for Inactive)
REMARK    1  A    between atoms: C_1  and  C_2
REMARK    2  A    between atoms: C_3  and  N_15
REMARK    3  A    between atoms: N_6  and  C_9
REMARK    4  A    between atoms: N_7  and  C_8
REMARK    5  A    between atoms: C_16  and  C_18
REMARK    6  A    between atoms: C_18  and  C_20
REMARK    7  A    between atoms: C_18  and  O_21
REMARK    8  A    between atoms: O_21  and  C_22
REMARK    9  A    between atoms: C_22  and  C_24
REMARK   10  A    between atoms: C_24  and  C_25
REMARK   11  A    between atoms: C_24  and  C_26
REMARK   12  A    between atoms: C_24  and  O_27
REMARK   13  A    between atoms: O_27  and  C_28
REMARK                            x       y       z     vdW  Elec       q    Type
REMARK                         _______ _______ _______ _____ _____    ______ ____
ROOT
ATOM      1  N   UNL     1       4.235   9.725   1.178  0.00  0.00    -0.277 N 
ATOM      2  C   UNL     1       4.174   8.424   0.830  0.00  0.00    +0.258 C 
ATOM      3  O   UNL     1       5.127   7.699   1.023  0.00  0.00    -0.271 OA
ATOM      4  H   UNL     1       3.448  10.286   1.096  0.00  0.00    +0.155 HD
ENDROOT
BRANCH   1   7
ATOM      5  C   UNL     1       5.727  12.079  -0.104  0.00  0.00    +0.067 C 
ATOM      6  C   UNL     1       6.127  11.303   1.124  0.00  0.00    +0.059 A 
ATOM      7  C   UNL     1       5.441  10.269   1.661  0.00  0.00    +0.121 A 
ATOM      8  C   UNL     1       6.183   9.823   2.842  0.00  0.00    +0.293 A 
ATOM      9  O   UNL     1       5.875   8.914   3.591  0.00  0.00    -0.264 OA
ATOM     10  N   UNL     1       7.275  10.610   2.939  0.00  0.00    -0.216 N 
ATOM     11  N   UNL     1       7.244  11.528   1.884  0.00  0.00    -0.282 N 
ATOM     12  C   UNL     1       8.248  12.565   1.631  0.00  0.00    +0.171 C 
BRANCH  10  13
ATOM     13  C   UNL     1       8.262  10.526   3.926  0.00  0.00    +0.067 A 
ATOM     14  C   UNL     1       9.604  10.518   3.570  0.00  0.00    +0.028 A 
ATOM     15  C   UNL     1      10.576  10.441   4.548  0.00  0.00    +0.002 A 
ATOM     16  C   UNL     1      10.214  10.360   5.880  0.00  0.00    +0.000 A 
ATOM     17  C   UNL     1       8.878  10.362   6.238  0.00  0.00    +0.002 A 
ATOM     18  C   UNL     1       7.901  10.445   5.265  0.00  0.00    +0.028 A 
ENDBRANCH  10  13
ENDBRANCH   1   7
BRANCH   2  19
ATOM     19  C   UNL     1       2.922   7.871   0.199  0.00  0.00    +0.259 C 
ATOM     20  C   UNL     1       2.703   8.529  -1.164  0.00  0.00    +0.062 C 
BRANCH  19  21
ATOM     21  O   UNL     1       3.060   6.436   0.027  0.00  0.00    -0.449 OA
BRANCH  21  22
ATOM     22  C   UNL     1       1.936   5.704   0.082  0.00  0.00    +0.352 C 
ATOM     23  O   UNL     1       0.872   6.245   0.268  0.00  0.00    -0.246 OA
BRANCH  22  24
ATOM     24  C   UNL     1       2.001   4.208  -0.088  0.00  0.00    +0.200 C 
ATOM     25  C   UNL     1       2.886   3.609   1.007  0.00  0.00    +0.067 C 
ATOM     26  C   UNL     1       2.591   3.876  -1.460  0.00  0.00    +0.067 C 
BRANCH  24  27
ATOM     27  O   UNL     1       0.685   3.660   0.010  0.00  0.00    -0.475 OA
BRANCH  27  28
ATOM     28  C   UNL     1       0.009   3.881   1.167  0.00  0.00    +0.122 A 
ATOM     29  C   UNL     1      -1.243   3.315   1.360  0.00  0.00    +0.047 A 
ATOM     30  C   UNL     1      -1.929   3.541   2.538  0.00  0.00    +0.023 A 
ATOM     31  C   UNL     1      -1.368   4.332   3.525  0.00  0.00    +0.041 A 
ATOM     32  C   UNL     1      -0.120   4.898   3.334  0.00  0.00    +0.023 A 
ATOM     33  C   UNL     1       0.568   4.675   2.158  0.00  0.00    +0.047 A 
ATOM     34 CL   UNL     1      -2.232   4.614   5.004  0.00  0.00    -0.084 Cl
ENDBRANCH  27  28
ENDBRANCH  24  27
ENDBRANCH  22  24
ENDBRANCH  21  22
ENDBRANCH  19  21
ENDBRANCH   2  19
TORSDOF 8
