REMARK  Name = ZINC35862634
REMARK  9 active torsions:
REMARK  status: ('A' for Active; 'I' for Inactive)
REMARK    1  A    between atoms: C_1  and  C_2
REMARK    2  A    between atoms: C_2  and  C_3
REMARK    3  A    between atoms: C_2  and  C_4
REMARK    4  A    between atoms: C_12  and  O_24
REMARK    5  A    between atoms: C_15  and  C_17
REMARK    6  A    between atoms: O_24  and  C_25
REMARK    7  A    between atoms: C_25  and  C_26
REMARK    8  A    between atoms: C_28  and  C_31
REMARK    9  A    between atoms: N_33  and  C_34
REMARK                            x       y       z     vdW  Elec       q    Type
REMARK                         _______ _______ _______ _____ _____    ______ ____
ROOT
ATOM      1  C   UNL     1       0.144  -0.534  -1.364  0.00  0.00    +0.219 C 
ATOM      2  O   UNL     1      -0.365  -1.254  -2.197  0.00  0.00    -0.275 OA
ATOM      3  N   UNL     1       1.436  -0.171  -1.487  0.00  0.00    -0.290 N 
ATOM      4  C   UNL     1       2.114   0.613  -0.441  0.00  0.00    +0.113 C 
ATOM      5  C   UNL     1       3.230  -0.251   0.144  0.00  0.00    +0.054 C 
ATOM      6  C   UNL     1       4.047  -0.885  -0.951  0.00  0.00    -0.040 A 
ATOM      7  C   UNL     1       5.321  -1.335  -0.624  0.00  0.00    +0.007 A 
ATOM      8  C   UNL     1       6.120  -1.933  -1.574  0.00  0.00    +0.046 A 
ATOM      9  C   UNL     1       5.650  -2.091  -2.870  0.00  0.00    +0.122 A 
ATOM     10  C   UNL     1       4.382  -1.640  -3.197  0.00  0.00    +0.051 A 
ATOM     11  C   UNL     1       3.583  -1.032  -2.239  0.00  0.00    -0.016 A 
ATOM     12  C   UNL     1       2.225  -0.545  -2.666  0.00  0.00    +0.137 C 
ENDROOT
BRANCH  12  13
ATOM     13  C   UNL     1       2.387   0.655  -3.563  0.00  0.00    -0.020 A 
ATOM     14  C   UNL     1       3.109   1.751  -3.127  0.00  0.00    +0.006 A 
ATOM     15  C   UNL     1       3.258   2.852  -3.949  0.00  0.00    +0.003 A 
ATOM     16  C   UNL     1       2.686   2.859  -5.207  0.00  0.00    +0.038 A 
ATOM     17  C   UNL     1       1.963   1.762  -5.644  0.00  0.00    +0.124 A 
ATOM     18  C   UNL     1       1.819   0.657  -4.822  0.00  0.00    +0.044 A 
ATOM     19  F   UNL     1       1.403   1.768  -6.873  0.00  0.00    -0.205 F 
ENDBRANCH  12  13
BRANCH   1  21
ATOM     20  C   UNL     1      -1.415   1.229  -0.586  0.00  0.00    +0.017 C 
ATOM     21  C   UNL     1      -0.668  -0.046  -0.192  0.00  0.00    +0.069 C 
ATOM     22  C   UNL     1      -1.676  -1.123   0.213  0.00  0.00    +0.017 C 
ENDBRANCH   1  21
BRANCH   9  23
ATOM     23  O   UNL     1       6.428  -2.684  -3.813  0.00  0.00    -0.483 OA
BRANCH  23  24
ATOM     24  C   UNL     1       7.725  -3.123  -3.401  0.00  0.00    +0.324 C 
BRANCH  24  25
ATOM     25  C   UNL     1       8.438  -3.750  -4.572  0.00  0.00    +0.234 A 
ATOM     26  N   UNL     1       9.200  -3.120  -5.414  0.00  0.00    -0.206 NA
ATOM     27  C   UNL     1       9.664  -4.014  -6.328  0.00  0.00    +0.164 A 
ATOM     28  C   UNL     1       9.144  -5.228  -6.000  0.00  0.00    +0.230 A 
ATOM     29  O   UNL     1       8.389  -5.048  -4.905  0.00  0.00    -0.444 OA
BRANCH  27  30
ATOM     30  C   UNL     1      10.561  -3.723  -7.461  0.00  0.00    +0.270 C 
ATOM     31  O   UNL     1      10.904  -4.617  -8.211  0.00  0.00    -0.268 OA
ATOM     32  N   UNL     1      11.001  -2.465  -7.666  0.00  0.00    -0.280 N 
ATOM     33  H   UNL     1      10.788  -1.767  -7.028  0.00  0.00    +0.155 HD
BRANCH  32  34
ATOM     34  C   UNL     1      11.765  -2.168  -8.799  0.00  0.00    +0.034 A 
ATOM     35  C   UNL     1      12.778  -1.220  -8.726  0.00  0.00    +0.023 A 
ATOM     36  C   UNL     1      13.532  -0.929  -9.847  0.00  0.00    +0.002 A 
ATOM     37  C   UNL     1      13.278  -1.580 -11.040  0.00  0.00    +0.000 A 
ATOM     38  C   UNL     1      12.270  -2.524 -11.116  0.00  0.00    +0.002 A 
ATOM     39  C   UNL     1      11.517  -2.823  -9.998  0.00  0.00    +0.023 A 
ENDBRANCH  32  34
ENDBRANCH  27  30
ENDBRANCH  24  25
ENDBRANCH  23  24
ENDBRANCH   9  23
TORSDOF 7
