REMARK  Name = ZINC16563088
REMARK  10 active torsions:
REMARK  status: ('A' for Active; 'I' for Inactive)
REMARK    1  A    between atoms: C_1  and  C_2
REMARK    2  A    between atoms: C_2  and  N_55
REMARK    3  A    between atoms: C_3  and  C_4
REMARK    4  A    between atoms: C_3  and  N_55
REMARK    5  A    between atoms: N_6  and  C_7
REMARK    6  A    between atoms: C_7  and  C_8
REMARK    7  A    between atoms: C_13  and  C_14
REMARK    8  A    between atoms: C_13  and  N_55
REMARK    9  A    between atoms: C_17  and  C_27
REMARK   10  A    between atoms: C_20  and  C_22
REMARK                            x       y       z     vdW  Elec       q    Type
REMARK                         _______ _______ _______ _____ _____    ______ ____
ROOT
ATOM      1  C   UNL     1      -4.961  -1.694   0.583  0.00  0.00    +0.219 C 
ATOM      2  O   UNL     1      -6.159  -1.805   0.421  0.00  0.00    -0.276 OA
ATOM      3  N   UNL     1      -4.439  -0.510   0.958  0.00  0.00    -0.184 N 
ATOM      4  C   UNL     1      -5.203   0.724   1.203  0.00  0.00    +0.172 C 
ATOM      5  C   UNL     1      -4.122   1.749   1.597  0.00  0.00    +0.090 C 
ATOM      6  C   UNL     1      -2.832   0.963   1.529  0.00  0.00    +0.075 C 
ATOM      7  N   UNL     1      -3.086  -0.252   1.171  0.00  0.00    -0.180 NA
ENDROOT
BRANCH   6   8
ATOM      8  C   UNL     1      -1.498   1.498   1.820  0.00  0.00    +0.035 A 
ATOM      9  C   UNL     1      -0.273   0.855   1.783  0.00  0.00    +0.017 A 
ATOM     10  C   UNL     1       0.854   1.578   2.096  0.00  0.00    +0.008 A 
ATOM     11  C   UNL     1       0.732   2.889   2.433  0.00  0.00    +0.046 A 
ATOM     12  S   UNL     1      -1.031   3.148   2.316  0.00  0.00    -0.095 S 
ENDBRANCH   6   8
BRANCH   4  13
ATOM     13  C   UNL     1      -6.184   0.528   2.330  0.00  0.00    +0.128 A 
ATOM     14  C   UNL     1      -7.401   1.094   2.421  0.00  0.00    +0.046 A 
ATOM     15  C   UNL     1      -7.974   0.639   3.631  0.00  0.00    +0.041 A 
ATOM     16  C   UNL     1      -7.074  -0.177   4.207  0.00  0.00    +0.195 A 
ATOM     17  O   UNL     1      -5.993  -0.245   3.412  0.00  0.00    -0.466 OA
ENDBRANCH   4  13
BRANCH   1  18
ATOM     18  C   UNL     1      -4.058  -2.881   0.366  0.00  0.00    +0.021 C 
BRANCH  18  19
ATOM     19  N   UNL     1      -4.885  -4.046  -0.015  0.00  0.00    +0.391 N 
ATOM     20  H   UNL     1      -5.639  -4.158   0.673  0.00  0.00    -0.080 HD
BRANCH  19  22
ATOM     21  C   UNL     1      -4.388  -3.584  -2.392  0.00  0.00    -0.017 C 
ATOM     22  C   UNL     1      -5.481  -3.828  -1.349  0.00  0.00    -0.081 C 
ENDBRANCH  19  22
BRANCH  19  23
ATOM     23  C   UNL     1      -4.058  -5.271  -0.025  0.00  0.00    +0.019 C 
BRANCH  23  24
ATOM     24  C   UNL     1      -4.970  -6.470  -0.056  0.00  0.00    +0.197 C 
ATOM     25  O   UNL     1      -6.171  -6.321   0.021  0.00  0.00    -0.278 OA
ATOM     26  N   UNL     1      -4.450  -7.709  -0.170  0.00  0.00    -0.312 N 
ATOM     27  H   UNL     1      -3.489  -7.828  -0.232  0.00  0.00    +0.149 HD
BRANCH  26  28
ATOM     28  C   UNL     1      -5.336  -8.875  -0.201  0.00  0.00    +0.146 C 
BRANCH  28  29
ATOM     29  C   UNL     1      -4.511 -10.129  -0.332  0.00  0.00    +0.007 A 
ATOM     30  C   UNL     1      -3.981 -10.908   0.642  0.00  0.00    +0.013 A 
ATOM     31  C   UNL     1      -3.254 -12.028   0.283  0.00  0.00    +0.008 A 
ATOM     32  C   UNL     1      -3.083 -12.307  -1.032  0.00  0.00    +0.045 A 
ATOM     33  S   UNL     1      -3.973 -10.970  -1.812  0.00  0.00    -0.100 S 
ENDBRANCH  28  29
ENDBRANCH  26  28
ENDBRANCH  23  24
ENDBRANCH  19  23
ENDBRANCH  18  19
ENDBRANCH   1  18
TORSDOF 9
