REMARK  Name = ZINC35427020
REMARK  8 active torsions:
REMARK  status: ('A' for Active; 'I' for Inactive)
REMARK    1  A    between atoms: C_1  and  C_2
REMARK    2  A    between atoms: C_2  and  O_3
REMARK    3  A    between atoms: O_3  and  C_4
REMARK    4  A    between atoms: C_4  and  C_5
REMARK    5  A    between atoms: C_5  and  C_6
REMARK    6  A    between atoms: C_6  and  N_7
REMARK    7  A    between atoms: C_22  and  C_24
REMARK    8  A    between atoms: N_32  and  C_35
REMARK                            x       y       z     vdW  Elec       q    Type
REMARK                         _______ _______ _______ _____ _____    ______ ____
ROOT
ATOM      1  N   UNL     1      -4.002  -4.578   0.004  0.00  0.00    -0.299 N 
ATOM      2  C   UNL     1      -4.514  -5.824   0.030  0.00  0.00    +0.303 C 
ATOM      3  O   UNL     1      -3.771  -6.786   0.082  0.00  0.00    -0.253 OA
ATOM      4  N   UNL     1      -5.849  -6.005  -0.003  0.00  0.00    -0.269 N 
ATOM      5  C   UNL     1      -6.781  -4.866  -0.073  0.00  0.00    +0.148 C 
ATOM      6  C   UNL     1      -7.957  -5.127  -0.989  0.00  0.00    +0.004 A 
ATOM      7  C   UNL     1      -8.135  -4.469  -2.220  0.00  0.00    -0.034 A 
ATOM      8  C   UNL     1      -9.245  -4.771  -2.946  0.00  0.00    -0.021 A 
ATOM      9  S   UNL     1     -10.079  -5.985  -1.959  0.00  0.00    -0.077 S 
ATOM     10  C   UNL     1      -8.907  -6.036  -0.638  0.00  0.00    +0.090 A 
ATOM     11  N   UNL     1      -8.862  -6.805   0.518  0.00  0.00    -0.312 N 
ATOM     12  C   UNL     1      -9.808  -7.092   1.441  0.00  0.00    +0.092 A 
ATOM     13  C   UNL     1      -9.231  -7.830   2.417  0.00  0.00    +0.020 A 
ATOM     14  C   UNL     1      -7.877  -8.018   2.063  0.00  0.00    +0.025 A 
ATOM     15  C   UNL     1      -7.680  -7.404   0.887  0.00  0.00    +0.049 A 
ATOM     16  C   UNL     1      -6.450  -7.360   0.024  0.00  0.00    +0.155 C 
ATOM     17  C   UNL     1      -9.639  -4.193  -4.265  0.00  0.00    -0.036 C 
ATOM     18  N   UNL     1      -8.833  -2.979  -4.498  0.00  0.00    +0.381 N 
ATOM     19  C   UNL     1      -7.415  -3.282  -4.266  0.00  0.00    -0.074 C 
ATOM     20  C   UNL     1      -7.144  -3.445  -2.768  0.00  0.00    +0.018 C 
ATOM     21  C   UNL     1      -9.017  -2.527  -5.883  0.00  0.00    -0.096 C 
ATOM     22  H   UNL     1      -4.594  -3.811  -0.038  0.00  0.00    +0.150 HD
ATOM     23  H   UNL     1      -9.130  -2.252  -3.864  0.00  0.00    -0.082 HD
ENDROOT
BRANCH  16  24
ATOM     24  C   UNL     1      -6.817  -7.763  -1.381  0.00  0.00    -0.021 A 
ATOM     25  C   UNL     1      -6.201  -7.153  -2.458  0.00  0.00    +0.007 A 
ATOM     26  C   UNL     1      -6.537  -7.521  -3.747  0.00  0.00    +0.020 A 
ATOM     27  C   UNL     1      -7.490  -8.501  -3.960  0.00  0.00    +0.041 A 
ATOM     28  C   UNL     1      -8.107  -9.111  -2.882  0.00  0.00    +0.020 A 
ATOM     29  C   UNL     1      -7.766  -8.745  -1.593  0.00  0.00    +0.007 A 
ATOM     30 CL   UNL     1      -7.913  -8.964  -5.578  0.00  0.00    -0.084 Cl
ENDBRANCH  16  24
BRANCH   1  31
ATOM     31  C   UNL     1      -2.550  -4.382   0.039  0.00  0.00    +0.108 C 
BRANCH  31  32
ATOM     32  C   UNL     1      -2.237  -2.884  -0.001  0.00  0.00    +0.047 C 
BRANCH  32  33
ATOM     33  C   UNL     1      -0.722  -2.679   0.036  0.00  0.00    +0.161 C 
BRANCH  33  34
ATOM     34  O   UNL     1      -0.429  -1.281  -0.001  0.00  0.00    -0.380 OA
BRANCH  34  36
ATOM     35  C   UNL     1       1.161   0.539  -0.015  0.00  0.00    +0.034 C 
ATOM     36  C   UNL     1       0.967  -0.978   0.029  0.00  0.00    +0.156 C 
ENDBRANCH  34  36
ENDBRANCH  33  34
ENDBRANCH  32  33
ENDBRANCH  31  32
ENDBRANCH   1  31
TORSDOF 6
