REMARK  Name = ZINC09615193
REMARK  8 active torsions:
REMARK  status: ('A' for Active; 'I' for Inactive)
REMARK    1  A    between atoms: C_1  and  C_2
REMARK    2  A    between atoms: C_5  and  C_40
REMARK    3  A    between atoms: C_6  and  N_8
REMARK    4  A    between atoms: C_14  and  C_16
REMARK    5  A    between atoms: C_20  and  N_22
REMARK    6  A    between atoms: C_29  and  C_39
REMARK    7  A    between atoms: C_36  and  O_37
REMARK    8  A    between atoms: O_37  and  C_38
REMARK                            x       y       z     vdW  Elec       q    Type
REMARK                         _______ _______ _______ _____ _____    ______ ____
ROOT
ATOM      1  C   UNL     1       2.228   3.292  -4.727  0.00  0.00    +0.039 A 
ATOM      2  C   UNL     1       1.109   4.127  -4.711  0.00  0.00    +0.013 A 
ATOM      3  C   UNL     1       0.393   4.298  -3.544  0.00  0.00    +0.003 A 
ATOM      4  C   UNL     1       0.780   3.646  -2.388  0.00  0.00    +0.024 A 
ATOM      5  C   UNL     1       1.892   2.814  -2.394  0.00  0.00    +0.042 A 
ATOM      6  C   UNL     1       2.621   2.639  -3.559  0.00  0.00    +0.036 A 
ENDROOT
BRANCH   5   7
ATOM      7  N   UNL     1       2.280   2.156  -1.220  0.00  0.00    -0.216 N 
ATOM      8  C   UNL     1       1.887   0.888  -1.026  0.00  0.00    +0.310 C 
ATOM      9  O   UNL     1       1.269   0.324  -1.908  0.00  0.00    -0.252 OA
ATOM     10  N   UNL     1       2.152   0.218   0.108  0.00  0.00    -0.292 N 
ATOM     11  C   UNL     1       2.833   0.903   1.220  0.00  0.00    +0.114 C 
ATOM     12  C   UNL     1       3.883   1.856   0.626  0.00  0.00    +0.096 C 
ATOM     13  C   UNL     1       3.098   2.871  -0.245  0.00  0.00    +0.185 C 
ATOM     14  O   UNL     1       2.286   3.667   0.614  0.00  0.00    -0.464 OA
ATOM     15  C   UNL     1       1.574   3.052   1.593  0.00  0.00    +0.170 A 
ATOM     16  C   UNL     1       1.794   1.733   1.941  0.00  0.00    +0.018 A 
ATOM     17  C   UNL     1       1.055   1.147   2.954  0.00  0.00    +0.009 A 
ATOM     18  C   UNL     1       0.087   1.874   3.620  0.00  0.00    +0.004 A 
ATOM     19  C   UNL     1      -0.146   3.192   3.274  0.00  0.00    +0.049 A 
ATOM     20  C   UNL     1       0.593   3.784   2.264  0.00  0.00    +0.162 A 
ATOM     21  C   UNL     1       4.089   3.772  -0.986  0.00  0.00    +0.079 C 
ATOM     22  H   UNL     1       1.897  -0.714   0.195  0.00  0.00    +0.151 HD
BRANCH  20  23
ATOM     23  O   UNL     1       0.362   5.081   1.925  0.00  0.00    -0.491 OA
ATOM     24  C   UNL     1      -0.656   5.771   2.652  0.00  0.00    +0.277 C 
ENDBRANCH  20  23
ENDBRANCH   5   7
BRANCH   1  31
ATOM     25  N   UNL     1       4.714   6.385  -7.681  0.00  0.00    -0.327 N 
ATOM     26  C   UNL     1       5.275   5.043  -7.883  0.00  0.00    +0.124 C 
ATOM     27  C   UNL     1       4.136   4.020  -7.947  0.00  0.00    +0.127 C 
ATOM     28  N   UNL     1       3.304   4.172  -6.743  0.00  0.00    -0.295 N 
ATOM     29  C   UNL     1       2.813   5.515  -6.401  0.00  0.00    +0.127 C 
ATOM     30  C   UNL     1       4.009   6.479  -6.395  0.00  0.00    +0.124 C 
ATOM     31  C   UNL     1       2.997   3.107  -5.976  0.00  0.00    +0.247 C 
ATOM     32  O   UNL     1       3.352   1.994  -6.311  0.00  0.00    -0.270 OA
BRANCH  25  38
ATOM     33  C   UNL     1       8.947   8.295  -6.072  0.00  0.00    +0.044 C 
ATOM     34  C   UNL     1       7.770   8.313  -7.013  0.00  0.00    -0.049 A 
ATOM     35  C   UNL     1       7.672   9.301  -7.977  0.00  0.00    +0.004 A 
ATOM     36  C   UNL     1       6.594   9.321  -8.842  0.00  0.00    +0.005 A 
ATOM     37  C   UNL     1       5.611   8.356  -8.747  0.00  0.00    -0.029 A 
ATOM     38  C   UNL     1       5.707   7.363  -7.780  0.00  0.00    +0.033 A 
ATOM     39  C   UNL     1       6.789   7.348  -6.909  0.00  0.00    +0.026 A 
ATOM     40  C   UNL     1       4.436   8.379  -9.690  0.00  0.00    +0.045 C 
ENDBRANCH  25  38
ENDBRANCH   1  31
TORSDOF 4
