REMARK  Name = ZINC59366131
REMARK  10 active torsions:
REMARK  status: ('A' for Active; 'I' for Inactive)
REMARK    1  A    between atoms: C_1  and  C_2
REMARK    2  A    between atoms: C_2  and  O_3
REMARK    3  A    between atoms: O_3  and  C_4
REMARK    4  A    between atoms: C_10  and  C_11
REMARK    5  A    between atoms: C_14  and  O_18
REMARK    6  A    between atoms: O_18  and  C_19
REMARK    7  A    between atoms: C_19  and  C_20
REMARK    8  A    between atoms: N_25  and  C_26
REMARK    9  A    between atoms: C_29  and  O_32
REMARK   10  A    between atoms: O_32  and  C_33
REMARK                            x       y       z     vdW  Elec       q    Type
REMARK                         _______ _______ _______ _____ _____    ______ ____
ROOT
ATOM      1  C   UNL     1      -0.161  -1.783  -2.017  0.00  0.00    +0.346 C 
ATOM      2  O   UNL     1      -0.879  -2.611  -1.238  0.00  0.00    -0.245 OA
ATOM      3  C   UNL     1       0.715  -2.303  -2.962  0.00  0.00    +0.139 C 
ATOM      4  C   UNL     1       0.891  -3.749  -3.148  0.00  0.00    +0.120 C 
ATOM      5  S   UNL     1       2.097  -3.870  -4.451  0.00  0.00    -0.065 S 
ATOM      6  C   UNL     1       2.389  -2.143  -4.772  0.00  0.00    +0.062 C 
ATOM      7  C   UNL     1       3.229  -1.592  -5.683  0.00  0.00    +0.027 C 
ATOM      8  C   UNL     1       1.501  -1.454  -3.824  0.00  0.00    +0.209 C 
ATOM      9  O   UNL     1       1.437  -0.237  -3.766  0.00  0.00    -0.286 OA
ATOM     10  N   UNL     1       0.294  -4.730  -2.499  0.00  0.00    -0.240 NA
ENDROOT
BRANCH   7  11
ATOM     11  C   UNL     1       3.918  -2.446  -6.659  0.00  0.00    -0.021 A 
ATOM     12  C   UNL     1       3.412  -3.717  -6.960  0.00  0.00    +0.031 A 
ATOM     13  C   UNL     1       4.061  -4.515  -7.877  0.00  0.00    +0.085 A 
ATOM     14  C   UNL     1       5.217  -4.060  -8.503  0.00  0.00    +0.158 A 
ATOM     15  C   UNL     1       5.724  -2.800  -8.207  0.00  0.00    +0.085 A 
ATOM     16  C   UNL     1       5.079  -1.991  -7.295  0.00  0.00    +0.031 A 
ATOM     17 CL   UNL     1       7.168  -2.240  -8.991  0.00  0.00    -0.080 Cl
ATOM     18 CL   UNL     1       3.436  -6.090  -8.251  0.00  0.00    -0.080 Cl
BRANCH  14  19
ATOM     19  O   UNL     1       5.853  -4.851  -9.406  0.00  0.00    -0.475 OA
BRANCH  19  20
ATOM     20  C   UNL     1       5.453  -4.726 -10.772  0.00  0.00    +0.347 C 
BRANCH  20  21
ATOM     21  C   UNL     1       6.243  -5.651 -11.601  0.00  0.00    +0.104 C 
ATOM     22  N   UNL     1       6.853  -6.365 -12.240  0.00  0.00    -0.193 NA
ENDBRANCH  20  21
ENDBRANCH  19  20
ENDBRANCH  14  19
ENDBRANCH   7  11
BRANCH  10  23
ATOM     23  C   UNL     1       0.585  -6.030  -2.808  0.00  0.00    +0.065 A 
ATOM     24  C   UNL     1       0.662  -6.432  -4.144  0.00  0.00    +0.031 A 
ATOM     25  C   UNL     1       0.956  -7.744  -4.451  0.00  0.00    +0.048 A 
ATOM     26  C   UNL     1       1.173  -8.665  -3.435  0.00  0.00    +0.120 A 
ATOM     27  C   UNL     1       1.097  -8.271  -2.107  0.00  0.00    +0.048 A 
ATOM     28  C   UNL     1       0.810  -6.960  -1.790  0.00  0.00    +0.031 A 
BRANCH  26  29
ATOM     29  O   UNL     1       1.461  -9.958  -3.743  0.00  0.00    -0.495 OA
ATOM     30  C   UNL     1       1.673 -10.853  -2.650  0.00  0.00    +0.277 C 
ENDBRANCH  26  29
ENDBRANCH  10  23
BRANCH   1  31
ATOM     31  O   UNL     1      -0.291  -0.450  -1.881  0.00  0.00    -0.461 OA
BRANCH  31  33
ATOM     32  C   UNL     1      -1.220   1.544  -0.882  0.00  0.00    +0.048 C 
ATOM     33  C   UNL     1      -1.209   0.014  -0.890  0.00  0.00    +0.229 C 
ENDBRANCH  31  33
ENDBRANCH   1  31
TORSDOF 8
