REMARK  Name = ZINC12482294
REMARK  6 active torsions:
REMARK  status: ('A' for Active; 'I' for Inactive)
REMARK    1  A    between atoms: N_11  and  C_12
REMARK    2  A    between atoms: C_18  and  C_20
REMARK    3  A    between atoms: C_20  and  C_21
REMARK    4  A    between atoms: C_26  and  C_28
REMARK    5  A    between atoms: C_28  and  C_29
REMARK    6  A    between atoms: C_31  and  C_34
REMARK                            x       y       z     vdW  Elec       q    Type
REMARK                         _______ _______ _______ _____ _____    ______ ____
ROOT
ATOM      1  C   UNL     1      -2.671  -3.005   1.397  0.00  0.00    +0.099 C 
ENDROOT
BRANCH   1   8
ATOM      2  C   UNL     1      -2.935  -7.733   3.038  0.00  0.00    +0.095 C 
ATOM      3  C   UNL     1      -4.322  -7.100   3.174  0.00  0.00    +0.044 C 
ATOM      4  C   UNL     1      -4.622  -6.267   1.924  0.00  0.00    +0.110 C 
ATOM      5  N   UNL     1      -3.534  -5.300   1.727  0.00  0.00    -0.301 N 
ATOM      6  C   UNL     1      -2.152  -5.794   1.668  0.00  0.00    +0.110 C 
ATOM      7  C   UNL     1      -1.878  -6.632   2.926  0.00  0.00    +0.044 C 
ATOM      8  C   UNL     1      -3.799  -3.984   1.598  0.00  0.00    +0.216 C 
ATOM      9  O   UNL     1      -4.944  -3.589   1.644  0.00  0.00    -0.276 OA
BRANCH   2  20
ATOM     10  C   UNL     1      -1.827 -12.563   4.837  0.00  0.00    +0.002 A 
ATOM     11  C   UNL     1      -2.030 -12.189   3.519  0.00  0.00    +0.002 A 
ATOM     12  C   UNL     1      -2.315 -10.875   3.204  0.00  0.00    +0.028 A 
ATOM     13  C   UNL     1      -2.401  -9.927   4.212  0.00  0.00    +0.070 A 
ATOM     14  C   UNL     1      -2.189 -10.302   5.540  0.00  0.00    +0.067 A 
ATOM     15  C   UNL     1      -1.905 -11.624   5.847  0.00  0.00    +0.028 A 
ATOM     16  N   UNL     1      -2.333  -9.152   6.312  0.00  0.00    -0.306 N 
ATOM     17  H   UNL     1      -2.245  -9.100   7.277  0.00  0.00    +0.170 HD
ATOM     18  C   UNL     1      -2.614  -8.122   5.490  0.00  0.00    +0.328 A 
ATOM     19  O   UNL     1      -2.799  -6.973   5.845  0.00  0.00    -0.247 OA
ATOM     20  N   UNL     1      -2.658  -8.558   4.217  0.00  0.00    -0.289 N 
ENDBRANCH   2  20
ENDBRANCH   1   8
BRANCH   1  21
ATOM     21  C   UNL     1      -3.240  -1.589   1.280  0.00  0.00    -0.002 C 
ATOM     22  C   UNL     1      -4.091  -1.481   0.011  0.00  0.00    -0.015 C 
ATOM     23  C   UNL     1      -4.606  -0.047  -0.132  0.00  0.00    -0.082 C 
ATOM     24  C   UNL     1      -2.664   0.827   1.024  0.00  0.00    -0.079 C 
ATOM     25  C   UNL     1      -2.091  -0.581   1.201  0.00  0.00    -0.019 C 
ATOM     26  N   UNL     1      -3.466   0.885  -0.213  0.00  0.00    +0.379 N 
ATOM     27  H   UNL     1      -3.819   1.841  -0.342  0.00  0.00    -0.086 HD
ATOM     28  H   UNL     1      -2.874   0.628  -1.012  0.00  0.00    -0.086 HD
BRANCH  25  29
ATOM     29  C   UNL     1      -1.194  -0.921   0.009  0.00  0.00    +0.061 C 
BRANCH  29  30
ATOM     30  C   UNL     1       0.002  -0.004   0.002  0.00  0.00    +0.084 A 
ATOM     31  C   UNL     1       1.359  -0.388  -0.013  0.00  0.00    +0.077 A 
ATOM     32  C   UNL     1       2.037   0.800  -0.013  0.00  0.00    +0.186 A 
ATOM     33  O   UNL     1       1.100   1.765   0.001  0.00  0.00    -0.353 OA
ATOM     34  N   UNL     1      -0.016   1.298   0.009  0.00  0.00    -0.083 NA
BRANCH  32  35
ATOM     35  C   UNL     1       3.503   0.986  -0.026  0.00  0.00    +0.109 A 
ATOM     36  C   UNL     1       4.037   2.275  -0.030  0.00  0.00    +0.031 A 
ATOM     37  C   UNL     1       5.412   2.433  -0.037  0.00  0.00    +0.004 A 
ATOM     38  C   UNL     1       6.210   1.297  -0.050  0.00  0.00    +0.020 A 
ATOM     39  C   UNL     1       5.613   0.049  -0.050  0.00  0.00    +0.111 A 
ATOM     40  N   UNL     1       4.302  -0.074  -0.038  0.00  0.00    -0.252 NA
ENDBRANCH  32  35
ENDBRANCH  29  30
ENDBRANCH  25  29
ENDBRANCH   1  21
TORSDOF 6
