REMARK  Name = ZINC39691083
REMARK  8 active torsions:
REMARK  status: ('A' for Active; 'I' for Inactive)
REMARK    1  A    between atoms: C_1  and  C_2
REMARK    2  A    between atoms: C_7  and  C_8
REMARK    3  A    between atoms: C_8  and  C_9
REMARK    4  A    between atoms: C_9  and  N_10
REMARK    5  A    between atoms: C_11  and  C_13
REMARK    6  A    between atoms: C_24  and  C_26
REMARK    7  A    between atoms: C_26  and  C_27
REMARK    8  A    between atoms: C_27  and  C_28
REMARK                            x       y       z     vdW  Elec       q    Type
REMARK                         _______ _______ _______ _____ _____    ______ ____
ROOT
ATOM      1  C   UNL     1      -2.571   2.266   6.027  0.00  0.00    +0.100 C 
ATOM      2  C   UNL     1      -1.717   3.548   5.913  0.00  0.00    +0.121 C 
ATOM      3  N   UNL     1      -2.690   4.619   5.590  0.00  0.00    -0.300 N 
ATOM      4  C   UNL     1      -3.878   4.299   6.419  0.00  0.00    +0.115 C 
ATOM      5  C   UNL     1      -3.988   2.763   6.362  0.00  0.00    -0.004 C 
ATOM      6  C   UNL     1      -4.433   2.215   7.715  0.00  0.00    -0.010 C 
ATOM      7  C   UNL     1      -5.866   2.675   8.000  0.00  0.00    -0.082 C 
ATOM      8  N   UNL     1      -6.757   2.194   6.937  0.00  0.00    +0.379 N 
ATOM      9  C   UNL     1      -6.378   2.799   5.654  0.00  0.00    -0.082 C 
ATOM     10  C   UNL     1      -4.967   2.344   5.270  0.00  0.00    -0.010 C 
ATOM     11  C   UNL     1      -2.531   5.650   4.737  0.00  0.00    +0.216 C 
ATOM     12  O   UNL     1      -3.428   6.451   4.580  0.00  0.00    -0.276 OA
ATOM     13  H   UNL     1      -6.685   1.190   6.868  0.00  0.00    -0.086 HD
ATOM     14  H   UNL     1      -7.708   2.446   7.158  0.00  0.00    -0.086 HD
ENDROOT
BRANCH   1  16
ATOM     15  N   UNL     1      -2.735   0.181   4.705  0.00  0.00    -0.315 N 
ATOM     16  C   UNL     1      -2.574   1.519   4.718  0.00  0.00    +0.218 C 
ATOM     17  O   UNL     1      -2.431   2.123   3.675  0.00  0.00    -0.275 OA
ATOM     18  H   UNL     1      -2.849  -0.301   5.539  0.00  0.00    +0.149 HD
BRANCH  15  19
ATOM     19  C   UNL     1      -2.737  -0.544   3.432  0.00  0.00    +0.109 C 
BRANCH  19  20
ATOM     20  C   UNL     1      -2.936  -2.038   3.697  0.00  0.00    +0.054 C 
BRANCH  20  27
ATOM     21  C   UNL     1      -0.439  -2.865   2.501  0.00  0.00    +0.044 C 
ATOM     22  C   UNL     1      -1.744  -3.180   1.816  0.00  0.00    -0.047 A 
ATOM     23  C   UNL     1      -1.746  -3.870   0.618  0.00  0.00    +0.003 A 
ATOM     24  C   UNL     1      -2.943  -4.159  -0.011  0.00  0.00    +0.000 A 
ATOM     25  C   UNL     1      -4.137  -3.759   0.559  0.00  0.00    +0.000 A 
ATOM     26  C   UNL     1      -4.135  -3.070   1.757  0.00  0.00    +0.004 A 
ATOM     27  C   UNL     1      -2.938  -2.784   2.388  0.00  0.00    -0.043 A 
ENDBRANCH  20  27
ENDBRANCH  19  20
ENDBRANCH  15  19
ENDBRANCH   1  16
BRANCH  11  28
ATOM     28  C   UNL     1      -1.239   5.807   3.978  0.00  0.00    +0.100 C 
BRANCH  28  29
ATOM     29  C   UNL     1      -1.319   7.048   3.087  0.00  0.00    +0.044 C 
BRANCH  29  30
ATOM     30  C   UNL     1      -0.026   7.205   2.328  0.00  0.00    -0.047 A 
ATOM     31  C   UNL     1       1.009   7.941   2.872  0.00  0.00    +0.003 A 
ATOM     32  C   UNL     1       2.195   8.086   2.176  0.00  0.00    +0.000 A 
ATOM     33  C   UNL     1       2.345   7.494   0.936  0.00  0.00    +0.000 A 
ATOM     34  C   UNL     1       1.309   6.757   0.392  0.00  0.00    +0.000 A 
ATOM     35  C   UNL     1       0.125   6.609   1.090  0.00  0.00    +0.003 A 
ENDBRANCH  29  30
ENDBRANCH  28  29
ENDBRANCH  11  28
TORSDOF 7
