REMARK  Name = ZINC34756167
REMARK  6 active torsions:
REMARK  status: ('A' for Active; 'I' for Inactive)
REMARK    1  A    between atoms: C_1  and  C_2
REMARK    2  A    between atoms: C_2  and  N_3
REMARK    3  A    between atoms: N_3  and  C_4
REMARK    4  A    between atoms: N_14  and  C_17
REMARK    5  A    between atoms: C_20  and  C_23
REMARK    6  A    between atoms: C_28  and  C_30
REMARK                            x       y       z     vdW  Elec       q    Type
REMARK                         _______ _______ _______ _____ _____    ______ ____
ROOT
ATOM      1  N   UNL     1      -1.023  -1.339   0.739  0.00  0.00    -0.318 N 
ATOM      2  C   UNL     1      -0.869   0.051   0.302  0.00  0.00    +0.130 C 
ATOM      3  C   UNL     1      -1.802  -1.635   1.845  0.00  0.00    +0.131 A 
ATOM      4  C   UNL     1      -3.145  -1.999   1.689  0.00  0.00    +0.029 A 
ATOM      5  C   UNL     1      -3.884  -2.291   2.809  0.00  0.00    +0.028 A 
ATOM      6  N   UNL     1      -3.301  -2.205   4.003  0.00  0.00    -0.331 N 
ATOM      7  C   UNL     1      -2.031  -1.856   4.124  0.00  0.00    +0.198 A 
ATOM      8  N   UNL     1      -1.283  -1.582   3.066  0.00  0.00    -0.201 NA
ATOM      9  N   UNL     1      -1.469  -1.782   5.387  0.00  0.00    -0.298 N 
ATOM     10  C   UNL     1      -2.228  -2.210   6.570  0.00  0.00    +0.127 C 
ATOM     11  C   UNL     1      -1.408  -3.265   7.322  0.00  0.00    +0.124 C 
ATOM     12  N   UNL     1      -0.041  -2.757   7.503  0.00  0.00    -0.327 N 
ATOM     13  C   UNL     1       0.718  -2.329   6.320  0.00  0.00    +0.124 C 
ATOM     14  C   UNL     1      -0.100  -1.279   5.567  0.00  0.00    +0.127 C 
ATOM     15  C   UNL     1      -5.324  -2.722   2.749  0.00  0.00    +0.072 C 
ATOM     16  C   UNL     1      -5.957  -2.314   1.419  0.00  0.00    +0.114 C 
ATOM     17  N   UNL     1      -5.036  -2.704   0.338  0.00  0.00    -0.293 N 
ATOM     18  C   UNL     1      -3.724  -2.048   0.300  0.00  0.00    +0.148 C 
ATOM     19  C   UNL     1      -5.385  -3.626  -0.581  0.00  0.00    +0.247 C 
ATOM     20  O   UNL     1      -6.503  -4.102  -0.570  0.00  0.00    -0.270 OA
ATOM     21  H   UNL     1      -3.818  -2.401   4.800  0.00  0.00    +0.168 HD
ENDROOT
BRANCH  12  22
ATOM     22  C   UNL     1       0.526  -2.682   8.777  0.00  0.00    +0.030 A 
ATOM     23  C   UNL     1      -0.237  -2.981   9.899  0.00  0.00    +0.023 A 
ATOM     24  C   UNL     1       0.327  -2.906  11.157  0.00  0.00    +0.005 A 
ATOM     25  C   UNL     1       1.651  -2.534  11.301  0.00  0.00    -0.050 A 
ATOM     26  C   UNL     1       2.414  -2.236  10.187  0.00  0.00    +0.005 A 
ATOM     27  C   UNL     1       1.858  -2.314   8.926  0.00  0.00    +0.023 A 
ATOM     28  C   UNL     1       2.263  -2.452  12.676  0.00  0.00    +0.044 C 
ENDBRANCH  12  22
BRANCH  19  29
ATOM     29  C   UNL     1      -4.408  -4.059  -1.601  0.00  0.00    +0.037 A 
ATOM     30  C   UNL     1      -4.368  -5.393  -2.012  0.00  0.00    +0.016 A 
ATOM     31  C   UNL     1      -3.454  -5.791  -2.964  0.00  0.00    +0.039 A 
ATOM     32  C   UNL     1      -2.575  -4.870  -3.513  0.00  0.00    +0.123 A 
ATOM     33  C   UNL     1      -2.611  -3.544  -3.109  0.00  0.00    +0.039 A 
ATOM     34  C   UNL     1      -3.525  -3.134  -2.162  0.00  0.00    +0.016 A 
ATOM     35  F   UNL     1      -1.681  -5.266  -4.445  0.00  0.00    -0.205 F 
ENDBRANCH  19  29
BRANCH   1  37
ATOM     36  C   UNL     1       1.036  -2.651   0.601  0.00  0.00    +0.024 C 
ATOM     37  C   UNL     1      -0.353  -2.415   0.005  0.00  0.00    +0.103 C 
ENDBRANCH   1  37
TORSDOF 3
