REMARK  Name = ZINC16021821
REMARK  6 active torsions:
REMARK  status: ('A' for Active; 'I' for Inactive)
REMARK    1  A    between atoms: C_4  and  C_7
REMARK    2  A    between atoms: C_7  and  C_8
REMARK    3  A    between atoms: C_8  and  N_9
REMARK    4  A    between atoms: C_14  and  C_32
REMARK    5  A    between atoms: C_32  and  C_33
REMARK    6  A    between atoms: C_36  and  O_39
REMARK                            x       y       z     vdW  Elec       q    Type
REMARK                         _______ _______ _______ _____ _____    ______ ____
ROOT
ATOM      1  N   UNL     1       5.450  -1.678   1.382  0.00  0.00    -0.241 N 
ATOM      2  C   UNL     1       5.532  -3.014   1.369  0.00  0.00    +0.227 C 
ATOM      3  O   UNL     1       4.587  -3.774   1.372  0.00  0.00    -0.275 OA
ATOM      4  C   UNL     1       6.985  -3.428   1.348  0.00  0.00    +0.107 C 
ATOM      5  C   UNL     1       7.339  -4.116   2.684  0.00  0.00    +0.072 C 
ATOM      6  N   UNL     1       7.718  -3.005   3.597  0.00  0.00    -0.295 NA
ATOM      7  C   UNL     1       8.468  -2.071   2.736  0.00  0.00    +0.136 C 
ATOM      8  C   UNL     1       7.745  -2.072   1.366  0.00  0.00    +0.122 C 
ATOM      9  C   UNL     1       6.631  -1.049   1.373  0.00  0.00    +0.228 C 
ATOM     10  O   UNL     1       6.783   0.153   1.372  0.00  0.00    -0.275 OA
ATOM     11  C   UNL     1       9.905  -2.485   2.595  0.00  0.00    +0.006 A 
ATOM     12  C   UNL     1      10.522  -3.622   2.120  0.00  0.00    +0.046 A 
ATOM     13  C   UNL     1      11.904  -3.710   2.118  0.00  0.00    +0.124 A 
ATOM     14  C   UNL     1      12.663  -2.653   2.593  0.00  0.00    +0.040 A 
ATOM     15  C   UNL     1      12.047  -1.514   3.068  0.00  0.00    +0.026 A 
ATOM     16  C   UNL     1      10.658  -1.417   3.074  0.00  0.00    +0.039 A 
ATOM     17  N   UNL     1       9.816  -0.385   3.497  0.00  0.00    -0.283 N 
ATOM     18  C   UNL     1       8.515  -0.691   3.333  0.00  0.00    +0.243 C 
ATOM     19  O   UNL     1       7.565   0.010   3.612  0.00  0.00    -0.273 OA
ATOM     20  F   UNL     1      12.511  -4.825   1.654  0.00  0.00    -0.205 F 
ATOM     21  H   UNL     1       6.900  -2.561   3.985  0.00  0.00    +0.124 HD
ATOM     22  H   UNL     1      10.133   0.455   3.867  0.00  0.00    +0.155 HD
ENDROOT
BRANCH   1  23
ATOM     23  C   UNL     1       4.171  -0.963   1.399  0.00  0.00    +0.121 C 
BRANCH  23  24
ATOM     24  C   UNL     1       3.711  -0.707  -0.038  0.00  0.00    +0.054 C 
BRANCH  24  28
ATOM     25  C   UNL     1      -0.017   1.378   0.010  0.00  0.00    +0.000 A 
ATOM     26  C   UNL     1       1.171   2.086   0.002  0.00  0.00    +0.000 A 
ATOM     27  C   UNL     1       2.377   1.411  -0.013  0.00  0.00    +0.004 A 
ATOM     28  C   UNL     1       2.396   0.029  -0.020  0.00  0.00    -0.046 A 
ATOM     29  C   UNL     1       1.208  -0.679  -0.012  0.00  0.00    +0.004 A 
ATOM     30  C   UNL     1       0.002  -0.004   0.002  0.00  0.00    +0.000 A 
ENDBRANCH  24  28
ENDBRANCH  23  24
ENDBRANCH   1  23
BRANCH   5  31
ATOM     31  C   UNL     1       6.125  -4.868   3.233  0.00  0.00    +0.054 C 
BRANCH  31  32
ATOM     32  C   UNL     1       6.524  -5.631   4.469  0.00  0.00    -0.046 A 
ATOM     33  C   UNL     1       6.994  -6.927   4.359  0.00  0.00    +0.007 A 
ATOM     34  C   UNL     1       7.360  -7.629   5.491  0.00  0.00    +0.045 A 
ATOM     35  C   UNL     1       7.256  -7.032   6.739  0.00  0.00    +0.117 A 
ATOM     36  C   UNL     1       6.785  -5.732   6.847  0.00  0.00    +0.045 A 
ATOM     37  C   UNL     1       6.425  -5.033   5.712  0.00  0.00    +0.007 A 
BRANCH  35  38
ATOM     38  O   UNL     1       7.615  -7.721   7.855  0.00  0.00    -0.507 OA
ATOM     39  H   UNL     1       8.544  -7.615   8.100  0.00  0.00    +0.292 HD
ENDBRANCH  35  38
ENDBRANCH  31  32
ENDBRANCH   5  31
TORSDOF 6
