REMARK  Name = ZINC15010092
REMARK  11 active torsions:
REMARK  status: ('A' for Active; 'I' for Inactive)
REMARK    1  A    between atoms: C_1  and  C_2
REMARK    2  A    between atoms: C_2  and  C_3
REMARK    3  A    between atoms: C_3  and  N_4
REMARK    4  A    between atoms: C_8  and  C_9
REMARK    5  A    between atoms: C_11  and  O_17
REMARK    6  A    between atoms: C_12  and  O_16
REMARK    7  A    between atoms: O_17  and  C_18
REMARK    8  A    between atoms: N_21  and  C_22
REMARK    9  A    between atoms: C_25  and  O_28
REMARK   10  A    between atoms: O_28  and  C_29
REMARK   11  A    between atoms: C_29  and  C_30
REMARK                            x       y       z     vdW  Elec       q    Type
REMARK                         _______ _______ _______ _____ _____    ______ ____
ROOT
ATOM      1  N   UNL     1      -6.042   2.821   0.353  0.00  0.00    -0.246 N 
ATOM      2  C   UNL     1      -5.057   1.944   0.253  0.00  0.00    +0.259 C 
ATOM      3  O   UNL     1      -5.269   0.746   0.262  0.00  0.00    -0.269 OA
ATOM      4  C   UNL     1      -3.689   2.484   0.136  0.00  0.00    +0.078 C 
ATOM      5  C   UNL     1      -2.509   1.823   0.024  0.00  0.00    +0.029 C 
ATOM      6  S   UNL     1      -4.005   4.243   0.172  0.00  0.00    -0.049 S 
ATOM      7  C   UNL     1      -5.781   4.175   0.335  0.00  0.00    +0.168 C 
ATOM      8  N   UNL     1      -6.633   5.171   0.418  0.00  0.00    -0.225 NA
ENDROOT
BRANCH   5   9
ATOM      9  C   UNL     1      -1.274   2.567  -0.253  0.00  0.00    -0.006 A 
ATOM     10  C   UNL     1      -1.338   3.865  -0.777  0.00  0.00    +0.058 A 
ATOM     11  C   UNL     1      -0.173   4.557  -1.040  0.00  0.00    +0.162 A 
ATOM     12  C   UNL     1       1.064   3.967  -0.781  0.00  0.00    +0.160 A 
ATOM     13  C   UNL     1       1.130   2.684  -0.257  0.00  0.00    +0.065 A 
ATOM     14  C   UNL     1      -0.028   1.984   0.010  0.00  0.00    +0.029 A 
ATOM     15 BR   UNL     1       0.067   0.235   0.723  0.00  0.00    -0.050 Br
BRANCH  12  16
ATOM     16  O   UNL     1       2.208   4.651  -1.042  0.00  0.00    -0.503 OA
ATOM     17  H   UNL     1       2.553   4.516  -1.935  0.00  0.00    +0.292 HD
ENDBRANCH  12  16
BRANCH  11  18
ATOM     18  O   UNL     1      -0.232   5.815  -1.554  0.00  0.00    -0.491 OA
ATOM     19  C   UNL     1      -1.531   6.358  -1.795  0.00  0.00    +0.277 C 
ENDBRANCH  11  18
ENDBRANCH   5   9
BRANCH   8  20
ATOM     20  C   UNL     1      -6.180   6.464   0.381  0.00  0.00    +0.067 A 
ATOM     21  C   UNL     1      -5.071   6.839   1.143  0.00  0.00    +0.031 A 
ATOM     22  C   UNL     1      -4.616   8.140   1.099  0.00  0.00    +0.048 A 
ATOM     23  C   UNL     1      -5.265   9.079   0.309  0.00  0.00    +0.121 A 
ATOM     24  C   UNL     1      -6.370   8.711  -0.445  0.00  0.00    +0.048 A 
ATOM     25  C   UNL     1      -6.830   7.411  -0.412  0.00  0.00    +0.031 A 
BRANCH  23  26
ATOM     26  O   UNL     1      -4.816  10.361   0.273  0.00  0.00    -0.492 OA
BRANCH  26  27
ATOM     27  C   UNL     1      -3.673  10.671   1.074  0.00  0.00    +0.225 C 
ATOM     28  C   UNL     1      -3.318  12.150   0.905  0.00  0.00    +0.048 C 
ENDBRANCH  26  27
ENDBRANCH  23  26
ENDBRANCH   8  20
BRANCH   1  29
ATOM     29  C   UNL     1      -7.423   2.350   0.478  0.00  0.00    +0.116 C 
BRANCH  29  31
ATOM     30  C   UNL     1      -9.478   1.699  -0.785  0.00  0.00    +0.005 C 
ATOM     31  C   UNL     1      -8.036   2.191  -0.915  0.00  0.00    +0.016 C 
ENDBRANCH  29  31
ENDBRANCH   1  29
TORSDOF 8
