REMARK  Name = ZINC02286047
REMARK  9 active torsions:
REMARK  status: ('A' for Active; 'I' for Inactive)
REMARK    1  A    between atoms: C_1  and  C_2
REMARK    2  A    between atoms: C_2  and  C_3
REMARK    3  A    between atoms: C_8  and  C_24
REMARK    4  A    between atoms: C_12  and  C_15
REMARK    5  A    between atoms: C_13  and  O_14
REMARK    6  A    between atoms: C_15  and  N_57
REMARK    7  A    between atoms: C_20  and  C_22
REMARK    8  A    between atoms: C_22  and  C_23
REMARK    9  A    between atoms: C_26  and  C_29
REMARK                            x       y       z     vdW  Elec       q    Type
REMARK                         _______ _______ _______ _____ _____    ______ ____
ROOT
ATOM      1  C   UNL     1      -5.207  -1.947   0.138  0.00  0.00    -0.005 A 
ATOM      2  C   UNL     1      -6.387  -1.348   0.479  0.00  0.00    +0.022 A 
ATOM      3  C   UNL     1      -6.434   0.034   0.664  0.00  0.00    +0.065 A 
ATOM      4  C   UNL     1      -7.688   0.714   1.033  0.00  0.00    +0.202 A 
ATOM      5  O   UNL     1      -8.728   0.096   1.189  0.00  0.00    -0.286 OA
ATOM      6  C   UNL     1      -7.625   2.176   1.204  0.00  0.00    +0.089 A 
ATOM      7  C   UNL     1      -6.433   2.805   1.015  0.00  0.00    +0.210 A 
ATOM      8  O   UNL     1      -5.320   2.148   0.681  0.00  0.00    -0.462 OA
ATOM      9  C   UNL     1      -5.274   0.813   0.501  0.00  0.00    +0.143 A 
ATOM     10  C   UNL     1      -4.084   0.188   0.155  0.00  0.00    +0.021 A 
ATOM     11  C   UNL     1      -4.055  -1.184  -0.032  0.00  0.00    +0.125 A 
ENDROOT
BRANCH   6  12
ATOM     12  C   UNL     1      -8.832   2.945   1.574  0.00  0.00    +0.115 A 
ATOM     13  N   UNL     1      -8.970   4.248   1.777  0.00  0.00    -0.244 NA
ATOM     14  C   UNL     1     -10.133   4.767   2.100  0.00  0.00    +0.046 A 
ATOM     15  C   UNL     1     -11.218   3.962   2.242  0.00  0.00    +0.070 A 
ATOM     16  S   UNL     1     -10.496   2.367   1.876  0.00  0.00    -0.075 S 
ATOM     17  C   UNL     1     -10.262   6.252   2.318  0.00  0.00    +0.066 C 
ENDBRANCH   6  12
BRANCH   1  19
ATOM     18  C   UNL     1      -4.701  -4.113   1.235  0.00  0.00    +0.009 C 
ATOM     19  C   UNL     1      -5.155  -3.440  -0.062  0.00  0.00    +0.035 C 
ENDBRANCH   1  19
BRANCH  11  20
ATOM     20  O   UNL     1      -2.891  -1.791  -0.376  0.00  0.00    -0.506 OA
ATOM     21  H   UNL     1      -2.359  -2.079   0.379  0.00  0.00    +0.292 HD
ENDBRANCH  11  20
BRANCH  10  22
ATOM     22  C   UNL     1      -2.828   1.002  -0.025  0.00  0.00    -0.035 C 
BRANCH  22  28
ATOM     23  C   UNL     1      -2.932   1.797   2.259  0.00  0.00    -0.078 C 
ATOM     24  C   UNL     1      -2.226   1.750   3.616  0.00  0.00    -0.019 C 
ATOM     25  C   UNL     1      -0.851   2.412   3.494  0.00  0.00    -0.003 C 
ATOM     26  C   UNL     1      -0.042   1.694   2.411  0.00  0.00    -0.015 C 
ATOM     27  C   UNL     1      -0.811   1.743   1.089  0.00  0.00    -0.068 C 
ATOM     28  N   UNL     1      -2.114   1.068   1.267  0.00  0.00    +0.384 N 
ATOM     29  H   UNL     1      -1.951   0.113   1.607  0.00  0.00    -0.081 HD
BRANCH  27  30
ATOM     30  C   UNL     1      -0.015   1.009   0.008  0.00  0.00    -0.019 C 
ATOM     31  C   UNL     1       1.322   1.720  -0.213  0.00  0.00    +0.002 C 
ENDBRANCH  27  30
ENDBRANCH  22  28
ENDBRANCH  10  22
TORSDOF 6
