REMARK  Name = ZINC01502670
REMARK  6 active torsions:
REMARK  status: ('A' for Active; 'I' for Inactive)
REMARK    1  A    between atoms: C_1  and  C_2
REMARK    2  A    between atoms: C_5  and  S_8
REMARK    3  A    between atoms: S_8  and  N_11
REMARK    4  A    between atoms: N_14  and  C_15
REMARK    5  A    between atoms: C_20  and  C_21
REMARK    6  A    between atoms: C_26  and  C_29
REMARK                            x       y       z     vdW  Elec       q    Type
REMARK                         _______ _______ _______ _____ _____    ______ ____
ROOT
ATOM      1  C   UNL     1      -0.846  12.676  -1.070  0.00  0.00    +0.047 A 
ATOM      2  C   UNL     1      -0.737  13.445  -2.221  0.00  0.00    +0.024 A 
ATOM      3  C   UNL     1      -0.836  12.851  -3.462  0.00  0.00    +0.002 A 
ATOM      4  C   UNL     1      -1.043  11.485  -3.572  0.00  0.00    +0.001 A 
ATOM      5  C   UNL     1      -1.147  10.705  -2.441  0.00  0.00    +0.015 A 
ATOM      6  C   UNL     1      -1.055  11.293  -1.177  0.00  0.00    +0.058 A 
ENDROOT
BRANCH   6   7
ATOM      7  C   UNL     1      -1.172  10.464   0.037  0.00  0.00    +0.248 C 
ATOM      8  O   UNL     1      -1.978  10.758   0.899  0.00  0.00    -0.270 OA
ATOM      9  N   UNL     1      -0.385   9.381   0.192  0.00  0.00    -0.297 N 
ATOM     10  C   UNL     1      -0.435   8.590   1.429  0.00  0.00    +0.108 C 
ATOM     11  C   UNL     1       0.984   8.467   1.993  0.00  0.00    +0.027 C 
ATOM     12  C   UNL     1       1.909   7.893   0.917  0.00  0.00    +0.024 C 
ATOM     13  C   UNL     1       1.946   8.841  -0.284  0.00  0.00    +0.027 C 
ATOM     14  C   UNL     1       0.538   8.968  -0.874  0.00  0.00    +0.108 C 
BRANCH  12  15
ATOM     15  C   UNL     1       3.298   7.739   1.480  0.00  0.00    -0.019 A 
ATOM     16  C   UNL     1       4.075   8.719   1.969  0.00  0.00    +0.087 A 
ATOM     17  N   UNL     1       5.270   8.202   2.388  0.00  0.00    -0.360 N 
ATOM     18  H   UNL     1       5.994   8.716   2.779  0.00  0.00    +0.165 HD
ATOM     19  C   UNL     1       5.292   6.842   2.174  0.00  0.00    +0.047 A 
ATOM     20  C   UNL     1       4.058   6.492   1.595  0.00  0.00    +0.003 A 
ATOM     21  C   UNL     1       3.796   5.162   1.265  0.00  0.00    +0.010 A 
ATOM     22  C   UNL     1       4.742   4.205   1.502  0.00  0.00    +0.001 A 
ATOM     23  C   UNL     1       5.959   4.543   2.077  0.00  0.00    +0.002 A 
ATOM     24  C   UNL     1       6.239   5.851   2.411  0.00  0.00    +0.026 A 
ENDBRANCH  12  15
ENDBRANCH   6   7
BRANCH   1  28
ATOM     25  N   UNL     1      -1.165  15.085   1.595  0.00  0.00    -0.169 N 
ATOM     26  C   UNL     1      -1.188  14.534   0.366  0.00  0.00    +0.323 C 
ATOM     27  O   UNL     1      -1.607  15.174  -0.579  0.00  0.00    -0.251 OA
ATOM     28  N   UNL     1      -0.747  13.274   0.184  0.00  0.00    -0.268 N 
ATOM     29  H   UNL     1      -0.830  14.575   2.349  0.00  0.00    +0.178 HD
ATOM     30  H   UNL     1      -0.360  12.783   0.926  0.00  0.00    +0.156 HD
BRANCH  25  31
ATOM     31  S   UNL     1      -1.707  16.634   1.819  0.00  0.00    +0.076 S 
ATOM     32  O   UNL     1      -1.580  16.912   3.207  0.00  0.00    -0.150 OA
ATOM     33  O   UNL     1      -1.082  17.431   0.822  0.00  0.00    -0.150 OA
BRANCH  31  38
ATOM     34  C   UNL     1      -7.614  16.652   0.590  0.00  0.00    +0.044 C 
ATOM     35  C   UNL     1      -6.139  16.647   0.897  0.00  0.00    -0.050 A 
ATOM     36  C   UNL     1      -5.701  16.395   2.184  0.00  0.00    +0.005 A 
ATOM     37  C   UNL     1      -4.348  16.391   2.466  0.00  0.00    +0.029 A 
ATOM     38  C   UNL     1      -3.432  16.639   1.460  0.00  0.00    +0.109 A 
ATOM     39  C   UNL     1      -3.870  16.896   0.174  0.00  0.00    +0.029 A 
ATOM     40  C   UNL     1      -5.223  16.895  -0.108  0.00  0.00    +0.005 A 
ENDBRANCH  31  38
ENDBRANCH  25  31
ENDBRANCH   1  28
TORSDOF 5
