REMARK  Name = ZINC09765210
REMARK  4 active torsions:
REMARK  status: ('A' for Active; 'I' for Inactive)
REMARK    1  A    between atoms: N_9  and  S_10
REMARK    2  A    between atoms: S_10  and  C_13
REMARK    3  A    between atoms: C_17  and  C_19
REMARK    4  A    between atoms: C_23  and  C_32
REMARK                            x       y       z     vdW  Elec       q    Type
REMARK                         _______ _______ _______ _____ _____    ______ ____
ROOT
ATOM      1  C   UNL     1       5.037  -0.269   2.010  0.00  0.00    +0.109 A 
ATOM      2  C   UNL     1       5.535   0.997   2.263  0.00  0.00    +0.029 A 
ATOM      3  C   UNL     1       6.558   1.175   3.176  0.00  0.00    +0.003 A 
ATOM      4  C   UNL     1       7.089   0.089   3.842  0.00  0.00    +0.013 A 
ATOM      5  C   UNL     1       6.591  -1.190   3.592  0.00  0.00    +0.039 A 
ATOM      6  C   UNL     1       5.555  -1.362   2.672  0.00  0.00    +0.042 A 
ENDROOT
BRANCH   5   7
ATOM      7  C   UNL     1       7.155  -2.358   4.302  0.00  0.00    +0.251 C 
ATOM      8  O   UNL     1       7.181  -3.445   3.758  0.00  0.00    -0.270 OA
ATOM      9  N   UNL     1       7.640  -2.217   5.551  0.00  0.00    -0.260 N 
ATOM     10  C   UNL     1       7.490  -0.952   6.290  0.00  0.00    +0.168 C 
ATOM     11  C   UNL     1       7.115  -1.300   7.737  0.00  0.00    +0.276 C 
ATOM     12  O   UNL     1       8.140  -2.130   8.291  0.00  0.00    -0.476 OA
ATOM     13  C   UNL     1       8.543  -3.207   7.566  0.00  0.00    +0.143 A 
ATOM     14  C   UNL     1       8.302  -3.275   6.198  0.00  0.00    +0.079 A 
ATOM     15  C   UNL     1       8.717  -4.380   5.473  0.00  0.00    +0.027 A 
ATOM     16  C   UNL     1       9.365  -5.420   6.114  0.00  0.00    +0.002 A 
ATOM     17  C   UNL     1       9.598  -5.357   7.476  0.00  0.00    +0.004 A 
ATOM     18  C   UNL     1       9.197  -4.253   8.199  0.00  0.00    +0.047 A 
BRANCH  11  19
ATOM     19  C   UNL     1       6.994  -0.035   8.546  0.00  0.00    +0.253 C 
ATOM     20  O   UNL     1       7.766   0.179   9.457  0.00  0.00    -0.272 OA
ATOM     21  N   UNL     1       6.027   0.859   8.258  0.00  0.00    -0.326 N 
ATOM     22  H   UNL     1       5.410   0.688   7.530  0.00  0.00    +0.145 HD
ATOM     23  H   UNL     1       5.949   1.673   8.779  0.00  0.00    +0.145 HD
ENDBRANCH  11  19
ENDBRANCH   5   7
BRANCH   1  24
ATOM     24  S   UNL     1       3.734  -0.484   0.844  0.00  0.00    +0.075 S 
ATOM     25  O   UNL     1       3.813  -1.828   0.389  0.00  0.00    -0.150 OA
ATOM     26  O   UNL     1       3.794   0.625  -0.043  0.00  0.00    -0.150 OA
BRANCH  24  35
ATOM     27  C   UNL     1      -0.061   2.977   2.491  0.00  0.00    +0.000 A 
ATOM     28  C   UNL     1       1.094   3.191   1.762  0.00  0.00    +0.002 A 
ATOM     29  C   UNL     1       1.926   2.136   1.454  0.00  0.00    +0.025 A 
ATOM     30  C   UNL     1       1.609   0.843   1.876  0.00  0.00    +0.054 A 
ATOM     31  C   UNL     1       0.450   0.639   2.607  0.00  0.00    -0.023 A 
ATOM     32  C   UNL     1      -0.382   1.700   2.913  0.00  0.00    +0.005 A 
ATOM     33  C   UNL     1       0.342  -0.833   2.937  0.00  0.00    +0.058 C 
ATOM     34  C   UNL     1       1.593  -1.463   2.303  0.00  0.00    +0.136 C 
ATOM     35  N   UNL     1       2.307  -0.349   1.674  0.00  0.00    -0.202 N 
ENDBRANCH  24  35
ENDBRANCH   1  24
TORSDOF 4
