REMARK  Name = ZINC06197660
REMARK  16 active torsions:
REMARK  status: ('A' for Active; 'I' for Inactive)
REMARK    1  A    between atoms: C_1  and  C_2
REMARK    2  A    between atoms: C_2  and  C_3
REMARK    3  A    between atoms: C_6  and  C_9
REMARK    4  A    between atoms: C_14  and  C_19
REMARK    5  A    between atoms: C_22  and  O_27
REMARK    6  A    between atoms: C_23  and  O_25
REMARK    7  A    between atoms: O_25  and  C_26
REMARK    8  A    between atoms: O_27  and  C_28
REMARK    9  A    between atoms: C_30  and  C_40
REMARK   10  A    between atoms: C_31  and  C_32
REMARK   11  A    between atoms: C_32  and  O_34
REMARK   12  A    between atoms: O_34  and  C_35
REMARK   13  A    between atoms: C_35  and  C_36
REMARK   14  A    between atoms: C_36  and  S_37
REMARK   15  A    between atoms: S_37  and  C_38
REMARK   16  A    between atoms: C_38  and  C_39
REMARK                            x       y       z     vdW  Elec       q    Type
REMARK                         _______ _______ _______ _____ _____    ______ ____
ROOT
ATOM      1  C   UNL     1       5.508  -1.922  -0.061  0.00  0.00    +0.092 C 
ATOM      2  C   UNL     1       4.369  -0.938  -0.156  0.00  0.00    +0.024 C 
ATOM      3  C   UNL     1       4.005  -0.417  -1.347  0.00  0.00    +0.016 C 
ATOM      4  C   UNL     1       2.867   0.568  -1.449  0.00  0.00    +0.059 C 
ATOM      5  C   UNL     1       2.777   1.385  -0.158  0.00  0.00    +0.032 C 
ATOM      6  C   UNL     1       2.575   0.420   1.015  0.00  0.00    +0.088 C 
ATOM      7  C   UNL     1       3.703  -0.576   1.028  0.00  0.00    +0.162 C 
ATOM      8  O   UNL     1       4.044  -1.077   2.082  0.00  0.00    -0.292 OA
ATOM      9  N   UNL     1       4.663  -0.776  -2.492  0.00  0.00    -0.321 N 
ATOM     10  C   UNL     1       5.402  -1.925  -2.539  0.00  0.00    +0.016 C 
ATOM     11  C   UNL     1       5.825  -2.510  -1.405  0.00  0.00    +0.065 C 
ATOM     12  C   UNL     1       5.747  -2.539  -3.871  0.00  0.00    +0.061 C 
ATOM     13  H   UNL     1       4.599  -0.139  -3.386  0.00  0.00    +0.152 HD
ENDROOT
BRANCH   1  17
ATOM     14  C   UNL     1       8.968   0.077   1.448  0.00  0.00    -0.048 A 
ATOM     15  C   UNL     1       8.433  -0.995   2.138  0.00  0.00    +0.004 A 
ATOM     16  C   UNL     1       7.313  -1.641   1.650  0.00  0.00    +0.005 A 
ATOM     17  C   UNL     1       6.728  -1.217   0.471  0.00  0.00    -0.035 A 
ATOM     18  C   UNL     1       7.267  -0.149  -0.222  0.00  0.00    +0.005 A 
ATOM     19  C   UNL     1       8.384   0.501   0.269  0.00  0.00    +0.004 A 
BRANCH  14  21
ATOM     20  C   UNL     1      11.447   0.119   1.416  0.00  0.00    +0.009 C 
ATOM     21  C   UNL     1      10.189   0.782   1.980  0.00  0.00    +0.032 C 
ENDBRANCH  14  21
ENDBRANCH   1  17
BRANCH   5  22
ATOM     22  C   UNL     1       1.609   2.334  -0.240  0.00  0.00    -0.040 A 
ATOM     23  C   UNL     1       0.330   1.840  -0.410  0.00  0.00    +0.008 A 
ATOM     24  C   UNL     1      -0.744   2.707  -0.490  0.00  0.00    +0.049 A 
ATOM     25  C   UNL     1      -0.541   4.074  -0.390  0.00  0.00    +0.161 A 
ATOM     26  C   UNL     1       0.748   4.571  -0.219  0.00  0.00    +0.162 A 
ATOM     27  C   UNL     1       1.820   3.697  -0.144  0.00  0.00    +0.053 A 
BRANCH  26  28
ATOM     28  O   UNL     1       0.953   5.912  -0.125  0.00  0.00    -0.491 OA
ATOM     29  C   UNL     1       2.302   6.351   0.050  0.00  0.00    +0.277 C 
ENDBRANCH  26  28
BRANCH  25  30
ATOM     30  O   UNL     1      -1.597   4.927  -0.464  0.00  0.00    -0.491 OA
ATOM     31  C   UNL     1      -2.890   4.346  -0.640  0.00  0.00    +0.277 C 
ENDBRANCH  25  30
ENDBRANCH   5  22
BRANCH  11  32
ATOM     32  C   UNL     1       6.582  -3.702  -1.479  0.00  0.00    +0.338 C 
ATOM     33  O   UNL     1       6.742  -4.255  -2.551  0.00  0.00    -0.245 OA
BRANCH  32  34
ATOM     34  O   UNL     1       7.127  -4.226  -0.361  0.00  0.00    -0.460 OA
BRANCH  34  35
ATOM     35  C   UNL     1       7.880  -5.431  -0.510  0.00  0.00    +0.243 C 
BRANCH  35  36
ATOM     36  C   UNL     1       8.415  -5.870   0.854  0.00  0.00    +0.110 C 
BRANCH  36  37
ATOM     37  S   UNL     1       9.370  -7.401   0.665  0.00  0.00    -0.158 S 
BRANCH  37  38
ATOM     38  C   UNL     1       9.927  -7.781   2.349  0.00  0.00    +0.066 C 
ATOM     39  C   UNL     1      10.756  -9.067   2.334  0.00  0.00    +0.015 C 
ENDBRANCH  37  38
ENDBRANCH  36  37
ENDBRANCH  35  36
ENDBRANCH  34  35
ENDBRANCH  32  34
ENDBRANCH  11  32
TORSDOF 11
