REMARK  Name = ZINC43220773
REMARK  6 active torsions:
REMARK  status: ('A' for Active; 'I' for Inactive)
REMARK    1  A    between atoms: C_1  and  C_2
REMARK    2  A    between atoms: N_8  and  C_9
REMARK    3  A    between atoms: C_9  and  C_11
REMARK    4  A    between atoms: C_9  and  C_16
REMARK    5  A    between atoms: C_20  and  N_21
REMARK    6  A    between atoms: C_22  and  C_24
REMARK                            x       y       z     vdW  Elec       q    Type
REMARK                         _______ _______ _______ _____ _____    ______ ____
ROOT
ATOM      1  C   UNL     1       0.709  -2.650   4.774  0.00  0.00    +0.009 A 
ATOM      2  C   UNL     1       1.800  -2.025   5.379  0.00  0.00    -0.030 A 
ATOM      3  C   UNL     1       2.599  -2.808   6.152  0.00  0.00    -0.005 A 
ATOM      4  S   UNL     1       1.850  -4.412   6.050  0.00  0.00    -0.078 S 
ATOM      5  C   UNL     1       0.489  -3.976   4.978  0.00  0.00    +0.078 A 
ATOM      6  C   UNL     1       3.822  -2.398   6.905  0.00  0.00    +0.043 C 
ATOM      7  C   UNL     1       4.269  -1.022   6.389  0.00  0.00    +0.005 C 
ATOM      8  C   UNL     1       3.048  -0.100   6.331  0.00  0.00    +0.005 C 
ATOM      9  C   UNL     1       2.112  -0.541   5.205  0.00  0.00    +0.036 C 
ENDROOT
BRANCH   5  10
ATOM     10  N   UNL     1      -0.532  -4.787   4.479  0.00  0.00    -0.273 N 
ATOM     11  C   UNL     1      -0.642  -6.064   4.893  0.00  0.00    +0.284 C 
ATOM     12  O   UNL     1       0.149  -6.512   5.702  0.00  0.00    -0.266 OA
ATOM     13  H   UNL     1      -1.163  -4.430   3.834  0.00  0.00    +0.156 HD
BRANCH  11  14
ATOM     14  C   UNL     1      -1.715  -6.915   4.369  0.00  0.00    +0.189 A 
ATOM     15  C   UNL     1      -1.943  -8.219   4.706  0.00  0.00    +0.054 A 
ATOM     16  C   UNL     1      -3.063  -8.636   3.971  0.00  0.00    +0.042 A 
ATOM     17  C   UNL     1      -3.465  -7.583   3.227  0.00  0.00    +0.196 A 
ATOM     18  O   UNL     1      -2.654  -6.546   3.473  0.00  0.00    -0.458 OA
ENDBRANCH  11  14
ENDBRANCH   5  10
BRANCH   1  19
ATOM     19  C   UNL     1      -0.228  -1.856   3.900  0.00  0.00    +0.135 C 
BRANCH  19  27
ATOM     20  C   UNL     1      -2.081   1.523   0.522  0.00  0.00    +0.044 C 
ATOM     21  C   UNL     1      -1.799   0.042   0.504  0.00  0.00    -0.046 A 
ATOM     22  C   UNL     1      -2.054  -0.716  -0.631  0.00  0.00    +0.021 A 
ATOM     23  C   UNL     1      -1.785  -2.069  -0.615  0.00  0.00    +0.084 A 
ATOM     24  N   UNL     1      -1.290  -2.648   0.463  0.00  0.00    -0.350 N 
ATOM     25  C   UNL     1      -1.034  -1.960   1.565  0.00  0.00    +0.097 A 
ATOM     26  C   UNL     1      -1.276  -0.591   1.617  0.00  0.00    +0.045 A 
ATOM     27  N   UNL     1      -0.514  -2.611   2.678  0.00  0.00    -0.320 N 
ATOM     28  H   UNL     1      -0.340  -3.564   2.644  0.00  0.00    +0.148 HD
ATOM     29  H   UNL     1      -1.110  -3.601   0.448  0.00  0.00    +0.166 HD
ENDBRANCH  19  27
BRANCH  19  30
ATOM     30  C   UNL     1      -1.513  -1.599   4.644  0.00  0.00    -0.016 A 
ATOM     31  C   UNL     1      -1.669  -0.453   5.400  0.00  0.00    +0.013 A 
ATOM     32  C   UNL     1      -2.837  -0.253   6.058  0.00  0.00    +0.045 A 
ATOM     33  S   UNL     1      -3.765  -1.712   5.614  0.00  0.00    -0.105 S 
ATOM     34  C   UNL     1      -2.535  -2.487   4.578  0.00  0.00    +0.051 A 
ENDBRANCH  19  30
ENDBRANCH   1  19
TORSDOF 5
