REMARK  Name = ZINC09272577
REMARK  16 active torsions:
REMARK  status: ('A' for Active; 'I' for Inactive)
REMARK    1  A    between atoms: C_1  and  C_2
REMARK    2  A    between atoms: C_2  and  C_3
REMARK    3  A    between atoms: C_3  and  C_4
REMARK    4  A    between atoms: C_4  and  O_5
REMARK    5  A    between atoms: O_5  and  C_6
REMARK    6  A    between atoms: C_9  and  C_13
REMARK    7  A    between atoms: C_11  and  C_12
REMARK    8  A    between atoms: C_13  and  C_15
REMARK    9  A    between atoms: C_16  and  O_35
REMARK   10  A    between atoms: N_19  and  C_31
REMARK   11  A    between atoms: C_20  and  C_22
REMARK   12  A    between atoms: C_26  and  N_28
REMARK   13  A    between atoms: C_31  and  C_32
REMARK   14  A    between atoms: C_32  and  N_66
REMARK   15  A    between atoms: C_33  and  N_66
REMARK   16  A    between atoms: C_34  and  N_66
REMARK                            x       y       z     vdW  Elec       q    Type
REMARK                         _______ _______ _______ _____ _____    ______ ____
ROOT
ATOM      1  C   UNL     1       1.500   2.554   0.071  0.00  0.00    +0.071 C 
ATOM      2  C   UNL     1       1.558   1.214  -0.108  0.00  0.00    +0.188 C 
ATOM      3  C   UNL     1       2.974   0.795  -0.180  0.00  0.00    +0.282 C 
ATOM      4  O   UNL     1       3.355  -0.349  -0.332  0.00  0.00    -0.267 OA
ATOM      5  N   UNL     1       3.777   1.867  -0.056  0.00  0.00    -0.285 N 
ATOM      6  C   UNL     1       2.926   3.051   0.115  0.00  0.00    +0.144 C 
ENDROOT
BRANCH   6   7
ATOM      7  C   UNL     1       3.207   3.703   1.444  0.00  0.00    -0.020 A 
ATOM      8  C   UNL     1       3.295   2.932   2.588  0.00  0.00    +0.006 A 
ATOM      9  C   UNL     1       3.552   3.531   3.807  0.00  0.00    +0.003 A 
ATOM     10  C   UNL     1       3.723   4.901   3.882  0.00  0.00    +0.033 A 
ATOM     11  C   UNL     1       3.637   5.671   2.738  0.00  0.00    +0.127 A 
ATOM     12  C   UNL     1       3.383   5.072   1.518  0.00  0.00    +0.038 A 
BRANCH  11  13
ATOM     13  N   UNL     1       3.820   7.138   2.818  0.00  0.00    +0.056 N 
ATOM     14  O   UNL     1       4.139   7.655   3.874  0.00  0.00    -0.126 OA
ATOM     15  O   UNL     1       3.653   7.828   1.828  0.00  0.00    -0.126 OA
ENDBRANCH  11  13
ENDBRANCH   6   7
BRANCH   1  16
ATOM     16  C   UNL     1       0.287   3.368   0.198  0.00  0.00    +0.195 C 
ATOM     17  O   UNL     1      -0.503   3.146   1.097  0.00  0.00    -0.287 OA
BRANCH  16  21
ATOM     18  C   UNL     1      -0.470   6.499  -2.570  0.00  0.00    +0.123 A 
ATOM     19  C   UNL     1       0.619   5.655  -2.759  0.00  0.00    +0.046 A 
ATOM     20  C   UNL     1       0.871   4.642  -1.861  0.00  0.00    +0.015 A 
ATOM     21  C   UNL     1       0.024   4.456  -0.764  0.00  0.00    +0.023 A 
ATOM     22  C   UNL     1      -1.070   5.307  -0.578  0.00  0.00    +0.018 A 
ATOM     23  C   UNL     1      -1.312   6.321  -1.478  0.00  0.00    -0.008 A 
ATOM     24  C   UNL     1      -2.490   7.239  -1.278  0.00  0.00    +0.047 C 
BRANCH  18  25
ATOM     25  O   UNL     1      -0.712   7.499  -3.454  0.00  0.00    -0.492 OA
BRANCH  25  26
ATOM     26  C   UNL     1       0.120   7.554  -4.615  0.00  0.00    +0.229 C 
BRANCH  26  27
ATOM     27  C   UNL     1      -0.376   8.662  -5.546  0.00  0.00    +0.041 C 
BRANCH  27  29
ATOM     28  C   UNL     1       0.019   9.829  -7.720  0.00  0.00    +0.004 C 
ATOM     29  C   UNL     1       0.515   8.721  -6.788  0.00  0.00    -0.000 C 
ENDBRANCH  27  29
ENDBRANCH  26  27
ENDBRANCH  25  26
ENDBRANCH  18  25
ENDBRANCH  16  21
ENDBRANCH   1  16
BRANCH   2  30
ATOM     30  O   UNL     1       0.490   0.389  -0.200  0.00  0.00    -0.502 OA
ATOM     31  H   UNL     1       0.806  -0.551  -0.331  0.00  0.00    +0.292 HD
ENDBRANCH   2  30
BRANCH   5  32
ATOM     32  C   UNL     1       5.242   1.854  -0.080  0.00  0.00    +0.090 C 
BRANCH  32  33
ATOM     33  C   UNL     1       5.774   1.659   1.341  0.00  0.00    -0.060 C 
BRANCH  33  36
ATOM     34  C   UNL     1       7.792   1.700   2.678  0.00  0.00    -0.097 C 
ATOM     35  C   UNL     1       7.747   0.473   0.591  0.00  0.00    -0.097 C 
ATOM     36  N   UNL     1       7.251   1.670   1.302  0.00  0.00    +0.377 N 
ATOM     37  H   UNL     1       7.566   2.509   0.802  0.00  0.00    -0.083 HD
ENDBRANCH  33  36
ENDBRANCH  32  33
ENDBRANCH   5  32
TORSDOF 12
