REMARK  Name = ZINC34789612
REMARK  3 active torsions:
REMARK  status: ('A' for Active; 'I' for Inactive)
REMARK    1  A    between atoms: C_10  and  N_12
REMARK    2  A    between atoms: C_13  and  C_15
REMARK    3  A    between atoms: C_25  and  C_27
REMARK                            x       y       z     vdW  Elec       q    Type
REMARK                         _______ _______ _______ _____ _____    ______ ____
ROOT
ATOM      1  C   UNL     1       5.542   2.479  -1.236  0.00  0.00    +0.152 A 
ATOM      2  C   UNL     1       6.536   3.440  -0.995  0.00  0.00    +0.023 A 
ATOM      3  C   UNL     1       7.134   3.670  -2.190  0.00  0.00    +0.043 A 
ATOM      4  N   UNL     1       6.521   2.888  -3.095  0.00  0.00    -0.280 N 
ATOM      5  H   UNL     1       6.745   2.849  -4.038  0.00  0.00    +0.189 HD
ATOM      6  N   UNL     1       5.599   2.192  -2.525  0.00  0.00    -0.169 NA
ATOM      7  C   UNL     1       8.274   4.634  -2.397  0.00  0.00    +0.074 C 
ATOM      8  C   UNL     1       8.328   5.598  -1.205  0.00  0.00    +0.114 C 
ATOM      9  N   UNL     1       8.187   4.835   0.044  0.00  0.00    -0.293 N 
ATOM     10  C   UNL     1       6.918   4.123   0.291  0.00  0.00    +0.147 C 
ATOM     11  C   UNL     1       9.191   4.788   0.942  0.00  0.00    +0.250 C 
ATOM     12  O   UNL     1      10.264   5.295   0.680  0.00  0.00    -0.270 OA
ENDROOT
BRANCH  11  13
ATOM     13  C   UNL     1       8.988   4.119   2.243  0.00  0.00    +0.072 A 
ATOM     14  C   UNL     1       7.806   4.321   2.959  0.00  0.00    +0.016 A 
ATOM     15  C   UNL     1       7.622   3.693   4.172  0.00  0.00    +0.001 A 
ATOM     16  C   UNL     1       8.606   2.864   4.684  0.00  0.00    +0.003 A 
ATOM     17  C   UNL     1       9.779   2.658   3.983  0.00  0.00    +0.039 A 
ATOM     18  C   UNL     1       9.975   3.276   2.761  0.00  0.00    +0.135 A 
ATOM     19  F   UNL     1      11.120   3.070   2.074  0.00  0.00    -0.205 F 
ENDBRANCH  11  13
BRANCH   1  21
ATOM     20  N   UNL     1       3.713   0.973  -0.623  0.00  0.00    -0.303 N 
ATOM     21  C   UNL     1       4.617   1.897  -0.242  0.00  0.00    +0.265 C 
ATOM     22  O   UNL     1       4.672   2.251   0.920  0.00  0.00    -0.268 OA
ATOM     23  H   UNL     1       3.670   0.690  -1.550  0.00  0.00    +0.150 HD
BRANCH  20  33
ATOM     24  C   UNL     1      -0.520   3.061   0.810  0.00  0.00    +0.000 A 
ATOM     25  C   UNL     1       0.771   3.547   0.707  0.00  0.00    +0.000 A 
ATOM     26  C   UNL     1       1.824   2.668   0.561  0.00  0.00    +0.006 A 
ATOM     27  C   UNL     1       1.599   1.298   0.516  0.00  0.00    -0.024 A 
ATOM     28  C   UNL     1       0.314   0.814   0.614  0.00  0.00    -0.042 A 
ATOM     29  C   UNL     1      -0.745   1.701   0.765  0.00  0.00    +0.004 A 
ATOM     30  C   UNL     1      -0.005  -0.657   0.557  0.00  0.00    +0.035 C 
ATOM     31  C   UNL     1       1.248  -1.489   0.823  0.00  0.00    +0.007 C 
ATOM     32  C   UNL     1       2.365  -0.993  -0.103  0.00  0.00    +0.027 C 
ATOM     33  C   UNL     1       2.796   0.396   0.363  0.00  0.00    +0.104 C 
ENDBRANCH  20  33
ENDBRANCH   1  21
TORSDOF 3
