REMARK  Name = ZINC21541995
REMARK  12 active torsions:
REMARK  status: ('A' for Active; 'I' for Inactive)
REMARK    1  A    between atoms: C_1  and  C_2
REMARK    2  A    between atoms: C_2  and  O_3
REMARK    3  A    between atoms: O_3  and  C_4
REMARK    4  A    between atoms: C_4  and  C_6
REMARK    5  A    between atoms: C_7  and  C_29
REMARK    6  A    between atoms: C_10  and  N_11
REMARK    7  A    between atoms: C_12  and  C_14
REMARK    8  A    between atoms: C_14  and  S_15
REMARK    9  A    between atoms: S_15  and  C_16
REMARK   10  A    between atoms: N_20  and  C_21
REMARK   11  A    between atoms: C_22  and  C_28
REMARK   12  A    between atoms: C_26  and  C_27
REMARK                            x       y       z     vdW  Elec       q    Type
REMARK                         _______ _______ _______ _____ _____    ______ ____
ROOT
ATOM      1  N   UNL     1      -0.917   1.490  -3.018  0.00  0.00    -0.279 N 
ATOM      2  C   UNL     1      -1.744   2.032  -3.934  0.00  0.00    +0.228 C 
ATOM      3  O   UNL     1      -2.676   2.720  -3.578  0.00  0.00    -0.275 OA
ATOM      4  H   UNL     1      -0.071   0.865  -3.341  0.00  0.00    +0.155 HD
ENDROOT
BRANCH   1   9
ATOM      5  C   UNL     1      -0.397   1.251  -0.589  0.00  0.00    +0.098 A 
ATOM      6  C   UNL     1      -0.846   1.654   0.732  0.00  0.00    +0.040 A 
ATOM      7  C   UNL     1      -1.950   2.447   0.785  0.00  0.00    +0.059 A 
ATOM      8  S   UNL     1      -2.387   2.656  -0.928  0.00  0.00    -0.080 S 
ATOM      9  C   UNL     1      -1.133   1.719  -1.669  0.00  0.00    +0.086 A 
BRANCH   6  10
ATOM     10  C   UNL     1      -0.141   1.223   1.956  0.00  0.00    +0.136 A 
ATOM     11  C   UNL     1       0.269   2.034   2.968  0.00  0.00    +0.050 A 
ATOM     12  C   UNL     1       0.890   1.205   3.926  0.00  0.00    +0.042 A 
ATOM     13  C   UNL     1       0.836  -0.054   3.452  0.00  0.00    +0.196 A 
ATOM     14  O   UNL     1       0.212  -0.040   2.261  0.00  0.00    -0.463 OA
ENDBRANCH   6  10
BRANCH   5  15
ATOM     15  C   UNL     1       0.778   0.400  -0.772  0.00  0.00    +0.342 C 
ATOM     16  O   UNL     1       0.654  -0.810  -0.797  0.00  0.00    -0.245 OA
BRANCH  15  17
ATOM     17  O   UNL     1       1.998   0.956  -0.921  0.00  0.00    -0.461 OA
BRANCH  17  19
ATOM     18  C   UNL     1       4.390   0.872  -1.252  0.00  0.00    +0.048 C 
ATOM     19  C   UNL     1       3.099   0.064  -1.102  0.00  0.00    +0.229 C 
ENDBRANCH  17  19
ENDBRANCH  15  17
ENDBRANCH   5  15
ENDBRANCH   1   9
BRANCH   2  20
ATOM     20  C   UNL     1      -1.509   1.782  -5.402  0.00  0.00    +0.173 C 
BRANCH  20  21
ATOM     21  S   UNL     1      -2.777   2.637  -6.370  0.00  0.00    -0.075 S 
BRANCH  21  22
ATOM     22  C   UNL     1      -2.275   2.187  -7.998  0.00  0.00    +0.214 A 
ATOM     23  N   UNL     1      -1.246   1.431  -8.318  0.00  0.00    -0.101 NA
ATOM     24  N   UNL     1      -1.164   1.301  -9.593  0.00  0.00    -0.022 NA
ATOM     25  N   UNL     1      -2.114   1.950 -10.174  0.00  0.00    -0.038 NA
ATOM     26  N   UNL     1      -2.879   2.549  -9.158  0.00  0.00    -0.187 N 
BRANCH  26  27
ATOM     27  C   UNL     1      -4.019   3.350  -9.310  0.00  0.00    +0.076 A 
ATOM     28  C   UNL     1      -5.221   2.968  -8.728  0.00  0.00    -0.025 A 
ATOM     29  C   UNL     1      -6.341   3.762  -8.874  0.00  0.00    +0.005 A 
ATOM     30  C   UNL     1      -6.270   4.931  -9.610  0.00  0.00    +0.001 A 
ATOM     31  C   UNL     1      -5.077   5.311 -10.196  0.00  0.00    +0.005 A 
ATOM     32  C   UNL     1      -3.951   4.524 -10.048  0.00  0.00    -0.025 A 
ATOM     33  C   UNL     1      -2.651   4.939 -10.687  0.00  0.00    +0.046 C 
ATOM     34  C   UNL     1      -5.300   1.691  -7.931  0.00  0.00    +0.046 C 
ENDBRANCH  26  27
ENDBRANCH  21  22
ENDBRANCH  20  21
ENDBRANCH   2  20
TORSDOF 9
