REMARK  Name = ZINC34245654
REMARK  5 active torsions:
REMARK  status: ('A' for Active; 'I' for Inactive)
REMARK    1  A    between atoms: C_2  and  C_7
REMARK    2  A    between atoms: C_7  and  C_14
REMARK    3  A    between atoms: N_8  and  O_9
REMARK    4  A    between atoms: O_9  and  C_10
REMARK    5  A    between atoms: C_10  and  C_11
REMARK                            x       y       z     vdW  Elec       q    Type
REMARK                         _______ _______ _______ _____ _____    ______ ____
ROOT
ATOM      1  C   UNL     1       1.798   3.457   0.003  0.00  0.00    +0.216 C 
ATOM      2  N   UNL     1       0.941   4.439   0.016  0.00  0.00    -0.075 NA
ENDROOT
BRANCH   1   4
ATOM      3  C   UNL     1      -0.022   1.784   0.012  0.00  0.00    +0.078 A 
ATOM      4  C   UNL     1       1.319   2.057   0.001  0.00  0.00    +0.109 A 
ATOM      5  N   UNL     1       2.188   1.048  -0.013  0.00  0.00    -0.223 NA
ATOM      6  C   UNL     1       1.778  -0.206  -0.016  0.00  0.00    +0.156 A 
ATOM      7  S   UNL     1       0.002  -0.004   0.002  0.00  0.00    -0.060 S 
ATOM      8  N   UNL     1       2.525  -1.372  -0.030  0.00  0.00    -0.338 N 
ATOM      9  H   UNL     1       3.494  -1.327  -0.039  0.00  0.00    +0.144 HD
ATOM     10  H   UNL     1       2.080  -2.234  -0.030  0.00  0.00    +0.144 HD
ENDBRANCH   1   4
BRANCH   1  11
ATOM     11  C   UNL     1       3.250   3.742  -0.009  0.00  0.00    +0.410 C 
ATOM     12  O   UNL     1       3.646   4.899  -0.007  0.00  0.00    -0.239 OA
ATOM     13  O   UNL     1       4.054   2.821  -0.022  0.00  0.00    -0.239 OA
ENDBRANCH   1  11
BRANCH   2  14
ATOM     14  O   UNL     1       1.399   5.779   0.018  0.00  0.00    -0.381 OA
BRANCH  14  15
ATOM     15  C   UNL     1       0.352   6.751   0.033  0.00  0.00    +0.387 C 
BRANCH  15  16
ATOM     16  C   UNL     1       0.951   8.134   0.034  0.00  0.00    +0.395 C 
ATOM     17  O   UNL     1       2.162   8.274   0.024  0.00  0.00    -0.242 OA
ATOM     18  O   UNL     1       0.224   9.113   0.046  0.00  0.00    -0.242 OA
ENDBRANCH  15  16
ENDBRANCH  14  15
ENDBRANCH   2  14
TORSDOF 5
