REMARK  Name = ZINC36266617
REMARK  4 active torsions:
REMARK  status: ('A' for Active; 'I' for Inactive)
REMARK    1  A    between atoms: C_1  and  C_2
REMARK    2  A    between atoms: C_2  and  S_3
REMARK    3  A    between atoms: S_3  and  N_6
REMARK    4  A    between atoms: N_6  and  C_7
REMARK                            x       y       z     vdW  Elec       q    Type
REMARK                         _______ _______ _______ _____ _____    ______ ____
ROOT
ATOM      1  C   UNL     1       1.533  -2.928   0.250  0.00  0.00    +0.073 C 
ATOM      2  C   UNL     1       2.921  -3.370   0.720  0.00  0.00    +0.001 C 
ATOM      3  C   UNL     1       3.614  -4.140  -0.407  0.00  0.00    -0.080 C 
ATOM      4  N   UNL     1       2.816  -5.320  -0.760  0.00  0.00    +0.383 N 
ATOM      5  C   UNL     1       1.508  -4.902  -1.279  0.00  0.00    -0.067 C 
ATOM      6  C   UNL     1       0.735  -4.159  -0.187  0.00  0.00    +0.008 C 
ATOM      7  C   UNL     1       1.708  -3.974  -2.479  0.00  0.00    -0.012 C 
ATOM      8  C   UNL     1       2.476  -4.715  -3.575  0.00  0.00    -0.001 C 
ATOM      9  C   UNL     1       1.681  -5.948  -4.011  0.00  0.00    -0.000 C 
ATOM     10  C   UNL     1       1.482  -6.876  -2.811  0.00  0.00    -0.001 C 
ATOM     11  C   UNL     1       0.714  -6.135  -1.715  0.00  0.00    -0.012 C 
ATOM     12  H   UNL     1       3.301  -5.854  -1.465  0.00  0.00    -0.085 HD
ATOM     13  H   UNL     1       2.684  -5.893   0.060  0.00  0.00    -0.085 HD
ENDROOT
BRANCH   1  14
ATOM     14  N   UNL     1       0.835  -2.256   1.349  0.00  0.00    -0.192 NA
ATOM     15  H   UNL     1       0.346  -2.778   2.004  0.00  0.00    +0.148 HD
BRANCH  14  16
ATOM     16  S   UNL     1       0.879  -0.605   1.472  0.00  0.00    +0.029 S 
ATOM     17  O   UNL     1       2.259  -0.273   1.388  0.00  0.00    -0.158 OA
ATOM     18  O   UNL     1       0.132  -0.308   2.643  0.00  0.00    -0.158 OA
BRANCH  16  20
ATOM     19  C   UNL     1      -0.019   1.526   0.010  0.00  0.00    +0.029 C 
ATOM     20  C   UNL     1       0.002  -0.004   0.002  0.00  0.00    +0.181 C 
ENDBRANCH  16  20
ENDBRANCH  14  16
ENDBRANCH   1  14
TORSDOF 3
