REMARK  Name = ZINC09440261
REMARK  11 active torsions:
REMARK  status: ('A' for Active; 'I' for Inactive)
REMARK    1  A    between atoms: C_1  and  C_2
REMARK    2  A    between atoms: C_2  and  C_3
REMARK    3  A    between atoms: C_2  and  C_4
REMARK    4  A    between atoms: C_4  and  N_5
REMARK    5  A    between atoms: C_8  and  C_22
REMARK    6  A    between atoms: N_12  and  C_13
REMARK    7  A    between atoms: C_18  and  N_19
REMARK    8  A    between atoms: C_22  and  C_23
REMARK    9  A    between atoms: N_25  and  C_26
REMARK   10  A    between atoms: C_29  and  C_32
REMARK   11  A    between atoms: C_32  and  C_34
REMARK                            x       y       z     vdW  Elec       q    Type
REMARK                         _______ _______ _______ _____ _____    ______ ____
ROOT
ATOM      1  N   UNL     1       1.818  -3.812  -0.341  0.00  0.00    -0.249 N 
ATOM      2  C   UNL     1       1.969  -3.228   0.836  0.00  0.00    +0.235 C 
ATOM      3  O   UNL     1       3.027  -3.234   1.427  0.00  0.00    -0.274 OA
ATOM      4  C   UNL     1       0.731  -2.550   1.401  0.00  0.00    +0.149 C 
ATOM      5  S   UNL     1      -0.476  -2.899   0.062  0.00  0.00    -0.077 S 
ATOM      6  C   UNL     1       0.617  -3.809  -1.018  0.00  0.00    +0.164 C 
ATOM      7  N   UNL     1       0.342  -4.349  -2.182  0.00  0.00    -0.224 NA
ENDROOT
BRANCH   7   8
ATOM      8  C   UNL     1      -0.887  -4.153  -2.754  0.00  0.00    +0.097 A 
ATOM      9  C   UNL     1      -1.415  -2.865  -2.857  0.00  0.00    +0.030 A 
ATOM     10  C   UNL     1      -2.651  -2.675  -3.440  0.00  0.00    +0.002 A 
ATOM     11  C   UNL     1      -3.372  -3.758  -3.911  0.00  0.00    +0.002 A 
ATOM     12  C   UNL     1      -2.857  -5.037  -3.807  0.00  0.00    +0.035 A 
ATOM     13  C   UNL     1      -1.619  -5.242  -3.232  0.00  0.00    +0.151 A 
BRANCH  13  14
ATOM     14  N   UNL     1      -1.069  -6.612  -3.121  0.00  0.00    +0.059 N 
ATOM     15  O   UNL     1      -1.710  -7.560  -3.538  0.00  0.00    -0.126 OA
ATOM     16  O   UNL     1       0.023  -6.790  -2.614  0.00  0.00    -0.126 OA
ENDBRANCH  13  14
ENDBRANCH   7   8
BRANCH   1  17
ATOM     17  C   UNL     1       2.970  -4.486  -0.947  0.00  0.00    +0.118 C 
BRANCH  17  19
ATOM     18  C   UNL     1       5.012  -4.160  -2.348  0.00  0.00    +0.009 C 
ATOM     19  C   UNL     1       3.743  -3.492  -1.815  0.00  0.00    +0.001 C 
ATOM     20  C   UNL     1       2.867  -3.051  -2.990  0.00  0.00    +0.009 C 
ENDBRANCH  17  19
ENDBRANCH   1  17
BRANCH   4  21
ATOM     21  C   UNL     1       0.952  -1.046   1.570  0.00  0.00    +0.120 C 
BRANCH  21  22
ATOM     22  C   UNL     1      -0.316  -0.404   2.071  0.00  0.00    +0.219 C 
ATOM     23  O   UNL     1      -1.300  -1.084   2.273  0.00  0.00    -0.275 OA
ATOM     24  N   UNL     1      -0.357   0.924   2.294  0.00  0.00    -0.285 N 
ATOM     25  H   UNL     1       0.447   1.458   2.195  0.00  0.00    +0.155 HD
BRANCH  24  26
ATOM     26  C   UNL     1      -1.556   1.532   2.662  0.00  0.00    +0.033 A 
ATOM     27  C   UNL     1      -2.761   1.050   2.160  0.00  0.00    +0.024 A 
ATOM     28  C   UNL     1      -3.943   1.641   2.524  0.00  0.00    +0.013 A 
ATOM     29  C   UNL     1      -3.936   2.739   3.393  0.00  0.00    +0.017 A 
ATOM     30  C   UNL     1      -2.720   3.224   3.891  0.00  0.00    +0.013 A 
ATOM     31  C   UNL     1      -1.543   2.623   3.527  0.00  0.00    +0.024 A 
BRANCH  29  32
ATOM     32  C   UNL     1      -5.199   3.380   3.781  0.00  0.00    +0.160 C 
ATOM     33  O   UNL     1      -5.190   4.331   4.534  0.00  0.00    -0.292 OA
ATOM     34  C   UNL     1      -6.506   2.856   3.244  0.00  0.00    +0.091 C 
ENDBRANCH  29  32
ENDBRANCH  24  26
ENDBRANCH  21  22
ENDBRANCH   4  21
TORSDOF 8
