REMARK  Name = ZINC26770451
REMARK  8 active torsions:
REMARK  status: ('A' for Active; 'I' for Inactive)
REMARK    1  A    between atoms: C_1  and  C_2
REMARK    2  A    between atoms: C_2  and  O_3
REMARK    3  A    between atoms: O_3  and  C_4
REMARK    4  A    between atoms: C_4  and  C_6
REMARK    5  A    between atoms: C_19  and  C_32
REMARK    6  A    between atoms: N_21  and  S_22
REMARK    7  A    between atoms: S_22  and  C_25
REMARK    8  A    between atoms: C_28  and  C_31
REMARK                            x       y       z     vdW  Elec       q    Type
REMARK                         _______ _______ _______ _____ _____    ______ ____
ROOT
ATOM      1  C   UNL     1      -1.645   4.883   2.586  0.00  0.00    +0.193 C 
ATOM      2  C   UNL     1      -0.176   5.320   2.644  0.00  0.00    +0.069 C 
ATOM      3  C   UNL     1      -0.117   6.802   2.913  0.00  0.00    -0.015 A 
ATOM      4  C   UNL     1       0.998   7.706   2.711  0.00  0.00    +0.003 A 
ATOM      5  C   UNL     1       2.296   7.516   2.227  0.00  0.00    +0.010 A 
ATOM      6  C   UNL     1       3.105   8.624   2.171  0.00  0.00    +0.001 A 
ATOM      7  C   UNL     1       2.668   9.876   2.572  0.00  0.00    +0.002 A 
ATOM      8  C   UNL     1       1.389  10.092   3.055  0.00  0.00    +0.026 A 
ATOM      9  C   UNL     1       0.545   8.985   3.123  0.00  0.00    +0.047 A 
ATOM     10  N   UNL     1      -0.748   8.844   3.539  0.00  0.00    -0.356 N 
ATOM     11  H   UNL     1      -1.306   9.717   3.908  0.00  0.00    +0.166 HD
ATOM     12  C   UNL     1      -1.136   7.537   3.408  0.00  0.00    +0.044 A 
ATOM     13  C   UNL     1      -2.490   6.959   3.752  0.00  0.00    +0.157 C 
ATOM     14  N   UNL     1      -2.369   5.492   3.711  0.00  0.00    -0.149 NA
ENDROOT
BRANCH  13  15
ATOM     15  C   UNL     1      -3.514   7.417   2.746  0.00  0.00    -0.023 A 
ATOM     16  C   UNL     1      -3.290   7.223   1.395  0.00  0.00    +0.005 A 
ATOM     17  C   UNL     1      -4.232   7.639   0.472  0.00  0.00    +0.000 A 
ATOM     18  C   UNL     1      -5.392   8.257   0.899  0.00  0.00    +0.000 A 
ATOM     19  C   UNL     1      -5.614   8.454   2.249  0.00  0.00    +0.000 A 
ATOM     20  C   UNL     1      -4.675   8.035   3.173  0.00  0.00    +0.005 A 
ENDBRANCH  13  15
BRANCH  14  21
ATOM     21  S   UNL     1      -3.033   4.551   4.902  0.00  0.00    +0.062 S 
ATOM     22  O   UNL     1      -4.137   5.277   5.426  0.00  0.00    -0.153 OA
ATOM     23  O   UNL     1      -3.169   3.245   4.360  0.00  0.00    -0.153 OA
BRANCH  21  24
ATOM     24  C   UNL     1      -1.845   4.437   6.199  0.00  0.00    +0.106 A 
ATOM     25  C   UNL     1      -0.917   3.413   6.198  0.00  0.00    +0.029 A 
ATOM     26  C   UNL     1       0.018   3.326   7.212  0.00  0.00    +0.005 A 
ATOM     27  C   UNL     1       0.019   4.258   8.233  0.00  0.00    -0.050 A 
ATOM     28  C   UNL     1      -0.912   5.280   8.236  0.00  0.00    +0.005 A 
ATOM     29  C   UNL     1      -1.844   5.370   7.219  0.00  0.00    +0.029 A 
ATOM     30  C   UNL     1       1.034   4.160   9.342  0.00  0.00    +0.044 C 
ENDBRANCH  21  24
ENDBRANCH  14  21
BRANCH   1  31
ATOM     31  C   UNL     1      -1.729   3.381   2.684  0.00  0.00    +0.327 C 
ATOM     32  O   UNL     1      -1.089   2.794   3.524  0.00  0.00    -0.249 OA
BRANCH  31  33
ATOM     33  O   UNL     1      -2.515   2.696   1.839  0.00  0.00    -0.464 OA
BRANCH  33  35
ATOM     34  C   UNL     1      -3.491   0.650   0.949  0.00  0.00    +0.048 C 
ATOM     35  C   UNL     1      -2.547   1.253   1.992  0.00  0.00    +0.229 C 
ENDBRANCH  33  35
ENDBRANCH  31  33
ENDBRANCH   1  31
TORSDOF 6
