REMARK  Name = ZINC41585752
REMARK  11 active torsions:
REMARK  status: ('A' for Active; 'I' for Inactive)
REMARK    1  A    between atoms: C_1  and  C_2
REMARK    2  A    between atoms: C_2  and  C_3
REMARK    3  A    between atoms: C_2  and  C_4
REMARK    4  A    between atoms: C_2  and  C_5
REMARK    5  A    between atoms: C_8  and  C_11
REMARK    6  A    between atoms: C_18  and  O_37
REMARK    7  A    between atoms: C_19  and  C_22
REMARK    8  A    between atoms: C_22  and  N_23
REMARK    9  A    between atoms: N_26  and  C_29
REMARK   10  A    between atoms: C_32  and  O_35
REMARK   11  A    between atoms: O_35  and  C_36
REMARK                            x       y       z     vdW  Elec       q    Type
REMARK                         _______ _______ _______ _____ _____    ______ ____
ROOT
ATOM      1  C   UNL     1       2.726  -1.882  -4.653  0.00  0.00    +0.058 C 
ATOM      2  C   UNL     1       3.981  -1.455  -4.941  0.00  0.00    +0.176 C 
ATOM      3  C   UNL     1       4.832  -0.616  -4.082  0.00  0.00    +0.231 C 
ATOM      4  O   UNL     1       4.567  -0.164  -2.982  0.00  0.00    -0.283 OA
ATOM      5  C   UNL     1       6.078  -0.445  -4.851  0.00  0.00    +0.068 A 
ATOM      6  C   UNL     1       7.270   0.235  -4.598  0.00  0.00    +0.019 A 
ATOM      7  C   UNL     1       8.275   0.214  -5.523  0.00  0.00    +0.046 A 
ATOM      8  C   UNL     1       8.112  -0.483  -6.718  0.00  0.00    +0.125 A 
ATOM      9  C   UNL     1       6.934  -1.162  -6.982  0.00  0.00    +0.051 A 
ATOM     10  C   UNL     1       5.902  -1.151  -6.052  0.00  0.00    +0.147 A 
ATOM     11  O   UNL     1       4.680  -1.727  -6.067  0.00  0.00    -0.451 OA
ENDROOT
BRANCH   1  15
ATOM     12  C   UNL     1       0.707  -0.383  -1.239  0.00  0.00    -0.042 A 
ATOM     13  C   UNL     1       0.551  -1.709  -1.604  0.00  0.00    +0.005 A 
ATOM     14  C   UNL     1       1.204  -2.204  -2.713  0.00  0.00    +0.008 A 
ATOM     15  C   UNL     1       2.026  -1.362  -3.470  0.00  0.00    -0.021 A 
ATOM     16  C   UNL     1       2.178  -0.023  -3.094  0.00  0.00    +0.008 A 
ATOM     17  C   UNL     1       1.514   0.458  -1.986  0.00  0.00    +0.005 A 
BRANCH  12  19
ATOM     18  C   UNL     1      -0.944   1.287  -0.444  0.00  0.00    +0.015 C 
ATOM     19  C   UNL     1      -0.011   0.150  -0.026  0.00  0.00    -0.013 C 
ATOM     20  C   UNL     1       1.013   0.675   0.983  0.00  0.00    +0.015 C 
ATOM     21  C   UNL     1      -0.829  -0.972   0.616  0.00  0.00    +0.015 C 
ENDBRANCH  12  19
ENDBRANCH   1  15
BRANCH   8  22
ATOM     22  O   UNL     1       9.116  -0.497  -7.631  0.00  0.00    -0.506 OA
ATOM     23  H   UNL     1       9.741  -1.226  -7.517  0.00  0.00    +0.292 HD
ENDBRANCH   8  22
BRANCH   9  24
ATOM     24  C   UNL     1       6.772  -1.912  -8.279  0.00  0.00    +0.127 C 
BRANCH  24  25
ATOM     25  N   UNL     1       7.242  -3.294  -8.108  0.00  0.00    -0.295 NA
ATOM     26  C   UNL     1       6.389  -4.027  -7.162  0.00  0.00    +0.103 C 
ATOM     27  C   UNL     1       7.013  -5.396  -6.873  0.00  0.00    +0.120 C 
ATOM     28  N   UNL     1       7.253  -6.080  -8.153  0.00  0.00    -0.327 N 
ATOM     29  C   UNL     1       7.984  -5.354  -9.203  0.00  0.00    +0.120 C 
ATOM     30  C   UNL     1       7.322  -3.986  -9.401  0.00  0.00    +0.103 C 
BRANCH  28  31
ATOM     31  C   UNL     1       6.798  -7.386  -8.366  0.00  0.00    +0.030 A 
ATOM     32  C   UNL     1       7.141  -8.060  -9.531  0.00  0.00    +0.027 A 
ATOM     33  C   UNL     1       6.693  -9.349  -9.740  0.00  0.00    +0.047 A 
ATOM     34  C   UNL     1       5.900  -9.971  -8.787  0.00  0.00    +0.120 A 
ATOM     35  C   UNL     1       5.556  -9.299  -7.624  0.00  0.00    +0.047 A 
ATOM     36  C   UNL     1       6.008  -8.011  -7.410  0.00  0.00    +0.027 A 
BRANCH  34  37
ATOM     37  O   UNL     1       5.458 -11.241  -8.994  0.00  0.00    -0.495 OA
ATOM     38  C   UNL     1       4.646 -11.820  -7.971  0.00  0.00    +0.277 C 
ENDBRANCH  34  37
ENDBRANCH  28  31
ENDBRANCH  24  25
ENDBRANCH   9  24
TORSDOF 7
