REMARK  Name = ZINC09168585
REMARK  13 active torsions:
REMARK  status: ('A' for Active; 'I' for Inactive)
REMARK    1  A    between atoms: C_1  and  C_2
REMARK    2  A    between atoms: C_2  and  C_3
REMARK    3  A    between atoms: C_3  and  C_4
REMARK    4  A    between atoms: C_4  and  N_5
REMARK    5  A    between atoms: N_5  and  C_6
REMARK    6  A    between atoms: N_5  and  S_8
REMARK    7  A    between atoms: C_6  and  C_7
REMARK    8  A    between atoms: S_8  and  C_11
REMARK    9  A    between atoms: C_14  and  C_17
REMARK   10  A    between atoms: C_23  and  C_25
REMARK   11  A    between atoms: C_31  and  O_34
REMARK   12  A    between atoms: O_34  and  C_35
REMARK   13  A    between atoms: C_35  and  C_36
REMARK                            x       y       z     vdW  Elec       q    Type
REMARK                         _______ _______ _______ _____ _____    ______ ____
ROOT
ATOM      1  C   UNL     1      -3.120   3.066   4.884  0.00  0.00    +0.252 C 
ATOM      2  O   UNL     1      -3.929   2.304   5.377  0.00  0.00    -0.270 OA
ATOM      3  N   UNL     1      -2.920   4.281   5.431  0.00  0.00    -0.234 N 
ATOM      4  C   UNL     1      -3.635   4.662   6.554  0.00  0.00    +0.315 A 
ATOM      5  N   UNL     1      -4.533   3.940   7.183  0.00  0.00    -0.092 NA
ATOM      6  N   UNL     1      -4.995   4.606   8.182  0.00  0.00    -0.103 NA
ATOM      7  C   UNL     1      -4.409   5.781   8.230  0.00  0.00    +0.285 A 
ATOM      8  O   UNL     1      -3.532   5.837   7.203  0.00  0.00    -0.402 OA
ATOM      9  H   UNL     1      -2.275   4.890   5.039  0.00  0.00    +0.160 HD
ENDROOT
BRANCH   7  10
ATOM     10  C   UNL     1      -4.657   6.838   9.222  0.00  0.00    +0.192 A 
ATOM     11  C   UNL     1      -5.541   6.754  10.249  0.00  0.00    +0.063 A 
ATOM     12  C   UNL     1      -5.450   8.026  10.967  0.00  0.00    +0.025 A 
ATOM     13  C   UNL     1      -6.087   8.556  12.093  0.00  0.00    +0.012 A 
ATOM     14  C   UNL     1      -5.771   9.814  12.523  0.00  0.00    +0.004 A 
ATOM     15  C   UNL     1      -4.820  10.569  11.852  0.00  0.00    +0.049 A 
ATOM     16  C   UNL     1      -4.177  10.064  10.736  0.00  0.00    +0.163 A 
ATOM     17  C   UNL     1      -4.486   8.783  10.281  0.00  0.00    +0.177 A 
ATOM     18  O   UNL     1      -4.037   8.035   9.252  0.00  0.00    -0.446 OA
BRANCH  16  19
ATOM     19  O   UNL     1      -3.248  10.813  10.086  0.00  0.00    -0.489 OA
BRANCH  19  20
ATOM     20  C   UNL     1      -2.983  12.116  10.610  0.00  0.00    +0.226 C 
ATOM     21  C   UNL     1      -1.918  12.804   9.753  0.00  0.00    +0.048 C 
ENDBRANCH  19  20
ENDBRANCH  16  19
ENDBRANCH   7  10
BRANCH   1  25
ATOM     22  C   UNL     1      -0.927   1.900   1.439  0.00  0.00    +0.106 A 
ATOM     23  C   UNL     1      -0.715   3.147   2.002  0.00  0.00    +0.029 A 
ATOM     24  C   UNL     1      -1.427   3.534   3.118  0.00  0.00    +0.015 A 
ATOM     25  C   UNL     1      -2.357   2.660   3.686  0.00  0.00    +0.037 A 
ATOM     26  C   UNL     1      -2.562   1.402   3.117  0.00  0.00    +0.015 A 
ATOM     27  C   UNL     1      -1.846   1.030   1.998  0.00  0.00    +0.029 A 
BRANCH  22  28
ATOM     28  S   UNL     1      -0.017   1.417   0.010  0.00  0.00    +0.061 S 
ATOM     29  O   UNL     1       0.002  -0.004   0.002  0.00  0.00    -0.153 OA
ATOM     30  O   UNL     1       1.172   2.195   0.003  0.00  0.00    -0.153 OA
BRANCH  28  31
ATOM     31  N   UNL     1      -0.897   1.885  -1.312  0.00  0.00    -0.177 NA
BRANCH  31  32
ATOM     32  C   UNL     1      -0.691   3.213  -1.897  0.00  0.00    +0.106 C 
ATOM     33  C   UNL     1       0.306   3.112  -3.053  0.00  0.00    +0.022 C 
ENDBRANCH  31  32
BRANCH  31  34
ATOM     34  C   UNL     1      -1.883   0.973  -1.897  0.00  0.00    +0.109 C 
BRANCH  34  35
ATOM     35  C   UNL     1      -3.267   1.280  -1.323  0.00  0.00    +0.017 C 
BRANCH  35  37
ATOM     36  C   UNL     1      -5.680   0.634  -1.359  0.00  0.00    +0.004 C 
ATOM     37  C   UNL     1      -4.296   0.327  -1.934  0.00  0.00    -0.002 C 
ENDBRANCH  35  37
ENDBRANCH  34  35
ENDBRANCH  31  34
ENDBRANCH  28  31
ENDBRANCH  22  28
ENDBRANCH   1  25
TORSDOF 10
