REMARK  Name = ZINC35705094
REMARK  14 active torsions:
REMARK  status: ('A' for Active; 'I' for Inactive)
REMARK    1  A    between atoms: C_1  and  C_2
REMARK    2  A    between atoms: C_2  and  N_3
REMARK    3  A    between atoms: N_3  and  C_4
REMARK    4  A    between atoms: N_3  and  C_6
REMARK    5  A    between atoms: C_4  and  C_5
REMARK    6  A    between atoms: C_8  and  C_9
REMARK    7  A    between atoms: C_14  and  C_32
REMARK    8  A    between atoms: C_15  and  C_27
REMARK    9  A    between atoms: C_16  and  C_19
REMARK   10  A    between atoms: C_21  and  C_26
REMARK   11  A    between atoms: C_24  and  C_25
REMARK   12  A    between atoms: C_27  and  O_29
REMARK   13  A    between atoms: O_29  and  C_30
REMARK   14  A    between atoms: C_30  and  C_31
REMARK                            x       y       z     vdW  Elec       q    Type
REMARK                         _______ _______ _______ _____ _____    ______ ____
ROOT
ATOM      1  C   UNL     1      -1.901  -1.514   3.200  0.00  0.00    +0.048 C 
ATOM      2  C   UNL     1      -1.099  -1.266   4.259  0.00  0.00    +0.072 C 
ATOM      3  S   UNL     1      -2.173  -1.634   5.631  0.00  0.00    -0.060 S 
ATOM      4  C   UNL     1      -3.547  -2.072   4.771  0.00  0.00    +0.166 C 
ATOM      5  N   UNL     1      -4.735  -2.466   5.176  0.00  0.00    -0.224 NA
ATOM      6  C   UNL     1      -5.744  -2.785   4.367  0.00  0.00    +0.086 C 
ATOM      7  C   UNL     1      -5.582  -2.716   2.984  0.00  0.00    +0.087 C 
ATOM      8  C   UNL     1      -4.237  -2.269   2.456  0.00  0.00    +0.150 C 
ATOM      9  N   UNL     1      -3.191  -1.933   3.458  0.00  0.00    -0.267 N 
ENDROOT
BRANCH   8  10
ATOM     10  C   UNL     1      -3.701  -3.364   1.570  0.00  0.00    -0.019 A 
ATOM     11  C   UNL     1      -2.911  -4.363   2.107  0.00  0.00    +0.009 A 
ATOM     12  C   UNL     1      -2.419  -5.367   1.294  0.00  0.00    -0.050 A 
ATOM     13  C   UNL     1      -2.717  -5.372  -0.056  0.00  0.00    +0.003 A 
ATOM     14  C   UNL     1      -3.507  -4.373  -0.593  0.00  0.00    +0.004 A 
ATOM     15  C   UNL     1      -4.003  -3.372   0.221  0.00  0.00    -0.045 A 
ATOM     16  C   UNL     1      -4.869  -2.285  -0.363  0.00  0.00    +0.044 C 
ATOM     17  C   UNL     1      -1.557  -6.456   1.880  0.00  0.00    +0.044 C 
ENDBRANCH   8  10
BRANCH   6  18
ATOM     18  C   UNL     1      -7.040  -3.216   4.939  0.00  0.00    +0.001 A 
ATOM     19  C   UNL     1      -7.660  -4.377   4.474  0.00  0.00    +0.010 A 
ATOM     20  C   UNL     1      -8.867  -4.773   5.011  0.00  0.00    +0.001 A 
ATOM     21  C   UNL     1      -9.464  -4.022   6.007  0.00  0.00    +0.000 A 
ATOM     22  C   UNL     1      -8.855  -2.870   6.472  0.00  0.00    +0.001 A 
ATOM     23  C   UNL     1      -7.644  -2.467   5.949  0.00  0.00    +0.010 A 
ENDBRANCH   6  18
BRANCH   1  26
ATOM     24  C   UNL     1      -0.122  -1.055   1.594  0.00  0.00    +0.241 C 
ATOM     25  O   UNL     1       0.719  -0.843   2.635  0.00  0.00    -0.271 OA
ATOM     26  C   UNL     1      -1.419  -1.339   1.823  0.00  0.00    +0.091 C 
BRANCH  24  27
ATOM     27  N   UNL     1       0.351  -0.977   0.295  0.00  0.00    -0.298 N 
BRANCH  27  29
ATOM     28  C   UNL     1      -0.737  -2.534  -1.246  0.00  0.00    +0.024 C 
ATOM     29  C   UNL     1      -0.582  -1.069  -0.831  0.00  0.00    +0.104 C 
ENDBRANCH  27  29
BRANCH  27  30
ATOM     30  C   UNL     1       1.784  -0.803   0.046  0.00  0.00    +0.104 C 
ATOM     31  C   UNL     1       2.094   0.684  -0.133  0.00  0.00    +0.024 C 
ENDBRANCH  27  30
ENDBRANCH  24  27
ENDBRANCH   1  26
BRANCH   7  32
ATOM     32  C   UNL     1      -6.625  -3.046   2.117  0.00  0.00    +0.339 C 
ATOM     33  O   UNL     1      -6.649  -4.142   1.583  0.00  0.00    -0.245 OA
BRANCH  32  34
ATOM     34  O   UNL     1      -7.608  -2.152   1.869  0.00  0.00    -0.462 OA
BRANCH  34  35
ATOM     35  C   UNL     1      -8.701  -2.595   1.063  0.00  0.00    +0.229 C 
ATOM     36  C   UNL     1      -9.645  -1.422   0.793  0.00  0.00    +0.048 C 
ENDBRANCH  34  35
ENDBRANCH  32  34
ENDBRANCH   7  32
TORSDOF 9
