REMARK  Name = ZINC22371088
REMARK  14 active torsions:
REMARK  status: ('A' for Active; 'I' for Inactive)
REMARK    1  A    between atoms: C_1  and  C_2
REMARK    2  A    between atoms: C_6  and  N_8
REMARK    3  A    between atoms: N_8  and  C_9
REMARK    4  A    between atoms: N_8  and  S_26
REMARK    5  A    between atoms: C_9  and  C_10
REMARK    6  A    between atoms: N_12  and  C_13
REMARK    7  A    between atoms: C_13  and  C_14
REMARK    8  A    between atoms: C_14  and  C_15
REMARK    9  A    between atoms: C_15  and  C_16
REMARK   10  A    between atoms: C_19  and  O_22
REMARK   11  A    between atoms: O_22  and  C_23
REMARK   12  A    between atoms: C_23  and  C_24
REMARK   13  A    between atoms: C_23  and  C_25
REMARK   14  A    between atoms: S_26  and  C_29
REMARK                            x       y       z     vdW  Elec       q    Type
REMARK                         _______ _______ _______ _____ _____    ______ ____
ROOT
ATOM      1  N   UNL     1      -0.143   5.235   0.324  0.00  0.00    -0.194 N 
ENDROOT
BRANCH   1   7
ATOM      2  C   UNL     1       1.965   1.173   2.114  0.00  0.00    +0.044 C 
ATOM      3  C   UNL     1       0.926   1.845   1.253  0.00  0.00    -0.049 A 
ATOM      4  C   UNL     1       0.028   1.080   0.531  0.00  0.00    +0.003 A 
ATOM      5  C   UNL     1      -0.930   1.693  -0.256  0.00  0.00    +0.002 A 
ATOM      6  C   UNL     1      -0.990   3.071  -0.327  0.00  0.00    +0.025 A 
ATOM      7  C   UNL     1      -0.086   3.841   0.393  0.00  0.00    +0.052 A 
ATOM      8  C   UNL     1       0.876   3.223   1.182  0.00  0.00    +0.028 A 
ENDBRANCH   1   7
BRANCH   1   9
ATOM      9  S   UNL     1       1.163   6.092  -0.225  0.00  0.00    +0.075 S 
ATOM     10  O   UNL     1       1.125   7.354   0.427  0.00  0.00    -0.150 OA
ATOM     11  O   UNL     1       2.284   5.223  -0.138  0.00  0.00    -0.150 OA
BRANCH   9  12
ATOM     12  C   UNL     1       0.900   6.403  -1.939  0.00  0.00    +0.109 A 
ATOM     13  C   UNL     1       1.359   5.503  -2.883  0.00  0.00    +0.030 A 
ATOM     14  C   UNL     1       1.147   5.744  -4.228  0.00  0.00    +0.022 A 
ATOM     15  C   UNL     1       0.486   6.891  -4.630  0.00  0.00    +0.041 A 
ATOM     16  C   UNL     1       0.032   7.793  -3.685  0.00  0.00    +0.022 A 
ATOM     17  C   UNL     1       0.239   7.549  -2.340  0.00  0.00    +0.030 A 
ATOM     18 CL   UNL     1       0.226   7.197  -6.318  0.00  0.00    -0.084 Cl
ENDBRANCH   9  12
ENDBRANCH   1   9
BRANCH   1  19
ATOM     19  C   UNL     1      -1.360   5.939   0.737  0.00  0.00    +0.227 C 
BRANCH  19  20
ATOM     20  C   UNL     1      -1.332   6.159   2.227  0.00  0.00    +0.232 C 
ATOM     21  O   UNL     1      -0.388   5.766   2.881  0.00  0.00    -0.274 OA
ATOM     22  N   UNL     1      -2.355   6.792   2.835  0.00  0.00    -0.314 N 
ATOM     23  H   UNL     1      -3.210   7.148   2.242  0.00  0.00    +0.149 HD
BRANCH  22  24
ATOM     24  C   UNL     1      -2.328   7.005   4.284  0.00  0.00    +0.104 C 
BRANCH  24  25
ATOM     25  C   UNL     1      -3.598   7.740   4.715  0.00  0.00    +0.023 C 
BRANCH  25  26
ATOM     26  C   UNL     1      -3.570   7.963   6.229  0.00  0.00    +0.036 C 
BRANCH  26  27
ATOM     27  C   UNL     1      -4.821   8.688   6.653  0.00  0.00    -0.047 A 
ATOM     28  C   UNL     1      -4.840  10.070   6.688  0.00  0.00    +0.007 A 
ATOM     29  C   UNL     1      -5.988  10.736   7.072  0.00  0.00    +0.046 A 
ATOM     30  C   UNL     1      -7.118  10.017   7.433  0.00  0.00    +0.121 A 
ATOM     31  C   UNL     1      -7.094   8.630   7.403  0.00  0.00    +0.046 A 
ATOM     32  C   UNL     1      -5.946   7.969   7.013  0.00  0.00    +0.007 A 
BRANCH  30  33
ATOM     33  O   UNL     1      -8.247  10.670   7.816  0.00  0.00    -0.489 OA
BRANCH  33  34
ATOM     34  C   UNL     1      -9.352   9.866   8.231  0.00  0.00    +0.167 C 
ATOM     35  C   UNL     1      -9.185   9.491   9.705  0.00  0.00    +0.051 C 
ATOM     36  C   UNL     1     -10.652  10.653   8.050  0.00  0.00    +0.051 C 
ENDBRANCH  33  34
ENDBRANCH  30  33
ENDBRANCH  26  27
ENDBRANCH  25  26
ENDBRANCH  24  25
ENDBRANCH  22  24
ENDBRANCH  19  20
ENDBRANCH   1  19
TORSDOF 11
