REMARK  Name = ZINC46756755
REMARK  11 active torsions:
REMARK  status: ('A' for Active; 'I' for Inactive)
REMARK    1  A    between atoms: C_1  and  C_2
REMARK    2  A    between atoms: C_2  and  C_3
REMARK    3  A    between atoms: C_2  and  N_4
REMARK    4  A    between atoms: N_4  and  C_5
REMARK    5  A    between atoms: N_4  and  C_6
REMARK    6  A    between atoms: C_6  and  C_7
REMARK    7  A    between atoms: C_12  and  C_13
REMARK    8  A    between atoms: C_13  and  N_14
REMARK    9  A    between atoms: C_15  and  C_17
REMARK   10  A    between atoms: C_20  and  N_26
REMARK   11  A    between atoms: C_21  and  N_23
REMARK                            x       y       z     vdW  Elec       q    Type
REMARK                         _______ _______ _______ _____ _____    ______ ____
ROOT
ATOM      1  N   UNL     1      -2.151  -3.403  -2.721  0.00  0.00    -0.307 N 
ATOM      2  C   UNL     1      -1.535  -3.241  -3.908  0.00  0.00    +0.244 C 
ATOM      3  O   UNL     1      -1.762  -2.253  -4.580  0.00  0.00    -0.270 OA
ATOM      4  H   UNL     1      -1.970  -4.191  -2.184  0.00  0.00    +0.149 HD
ENDROOT
BRANCH   2   5
ATOM      5  C   UNL     1      -0.586  -4.261  -4.393  0.00  0.00    +0.039 A 
ATOM      6  C   UNL     1      -0.329  -5.399  -3.623  0.00  0.00    +0.015 A 
ATOM      7  C   UNL     1       0.557  -6.349  -4.078  0.00  0.00    +0.026 A 
ATOM      8  C   UNL     1       1.197  -6.177  -5.303  0.00  0.00    +0.060 A 
ATOM      9  C   UNL     1       0.943  -5.044  -6.071  0.00  0.00    +0.148 A 
ATOM     10  C   UNL     1       0.054  -4.093  -5.624  0.00  0.00    +0.047 A 
BRANCH   8  11
ATOM     11  N   UNL     1       2.091  -7.139  -5.759  0.00  0.00    -0.328 N 
ATOM     12  C   UNL     1       3.536  -7.162  -5.487  0.00  0.00    +0.105 C 
ATOM     13  C   UNL     1       4.119  -8.392  -6.215  0.00  0.00    +0.020 C 
ATOM     14  C   UNL     1       3.067  -8.673  -7.320  0.00  0.00    +0.020 C 
ATOM     15  C   UNL     1       1.748  -8.306  -6.591  0.00  0.00    +0.105 C 
ENDBRANCH   8  11
BRANCH   9  16
ATOM     16  N   UNL     1       1.626  -4.864  -7.371  0.00  0.00    +0.058 N 
ATOM     17  O   UNL     1       1.406  -3.881  -8.039  0.00  0.00    -0.126 OA
ATOM     18  O   UNL     1       2.404  -5.702  -7.766  0.00  0.00    -0.126 OA
ENDBRANCH   9  16
ENDBRANCH   2   5
BRANCH   1  19
ATOM     19  C   UNL     1      -3.094  -2.390  -2.240  0.00  0.00    +0.140 C 
BRANCH  19  25
ATOM     20  C   UNL     1      -2.748  -2.422   0.239  0.00  0.00    -0.059 A 
ATOM     21  C   UNL     1      -3.163  -2.741   1.519  0.00  0.00    +0.002 A 
ATOM     22  C   UNL     1      -4.369  -3.387   1.714  0.00  0.00    +0.000 A 
ATOM     23  C   UNL     1      -5.161  -3.714   0.629  0.00  0.00    +0.000 A 
ATOM     24  C   UNL     1      -4.747  -3.394  -0.650  0.00  0.00    +0.005 A 
ATOM     25  C   UNL     1      -3.543  -2.744  -0.845  0.00  0.00    -0.029 A 
BRANCH  20  26
ATOM     26  C   UNL     1      -1.433  -1.717   0.027  0.00  0.00    -0.043 C 
BRANCH  26  27
ATOM     27  N   UNL     1      -0.407  -2.699  -0.348  0.00  0.00    +0.382 N 
ATOM     28  C   UNL     1      -0.180  -3.622   0.772  0.00  0.00    -0.095 C 
ATOM     29  H   UNL     1      -0.717  -3.219  -1.155  0.00  0.00    -0.081 HD
BRANCH  27  31
ATOM     30  C   UNL     1       1.915  -3.023  -1.057  0.00  0.00    -0.014 C 
ATOM     31  C   UNL     1       0.846  -2.000  -0.667  0.00  0.00    -0.075 C 
ATOM     32  C   UNL     1       0.610  -1.039  -1.834  0.00  0.00    -0.014 C 
ENDBRANCH  27  31
ENDBRANCH  26  27
ENDBRANCH  20  26
ENDBRANCH  19  25
ENDBRANCH   1  19
TORSDOF 8
