REMARK  Name = ZINC22330698
REMARK  9 active torsions:
REMARK  status: ('A' for Active; 'I' for Inactive)
REMARK    1  A    between atoms: C_1  and  C_2
REMARK    2  A    between atoms: C_8  and  N_15
REMARK    3  A    between atoms: C_11  and  C_13
REMARK    4  A    between atoms: C_11  and  C_14
REMARK    5  A    between atoms: C_16  and  C_18
REMARK    6  A    between atoms: C_18  and  N_19
REMARK    7  A    between atoms: N_19  and  C_20
REMARK    8  A    between atoms: N_19  and  S_27
REMARK    9  A    between atoms: S_27  and  C_30
REMARK                            x       y       z     vdW  Elec       q    Type
REMARK                         _______ _______ _______ _____ _____    ______ ____
ROOT
ATOM      1  N   UNL     1       1.070   3.852  -3.878  0.00  0.00    -0.307 N 
ATOM      2  C   UNL     1       0.602   2.834  -3.129  0.00  0.00    +0.233 C 
ATOM      3  O   UNL     1       1.018   1.709  -3.307  0.00  0.00    -0.274 OA
ATOM      4  H   UNL     1       0.694   4.872  -3.717  0.00  0.00    +0.149 HD
ENDROOT
BRANCH   1  12
ATOM      5  C   UNL     1      -1.441   0.869  -7.155  0.00  0.00    +0.044 C 
ATOM      6  C   UNL     1      -0.295   1.844  -7.249  0.00  0.00    -0.050 A 
ATOM      7  C   UNL     1       0.111   2.316  -8.484  0.00  0.00    +0.007 A 
ATOM      8  C   UNL     1       1.158   3.210  -8.569  0.00  0.00    +0.046 A 
ATOM      9  C   UNL     1       1.808   3.639  -7.416  0.00  0.00    +0.126 A 
ATOM     10  C   UNL     1       1.401   3.163  -6.182  0.00  0.00    +0.015 A 
ATOM     11  C   UNL     1       0.348   2.267  -6.103  0.00  0.00    +0.012 A 
ATOM     12  C   UNL     1       2.081   3.599  -4.909  0.00  0.00    +0.111 C 
ATOM     13  C   UNL     1       2.881   4.878  -5.163  0.00  0.00    +0.074 C 
ATOM     14  C   UNL     1       3.719   4.679  -6.432  0.00  0.00    +0.107 C 
ATOM     15  O   UNL     1       2.830   4.526  -7.539  0.00  0.00    -0.486 OA
ATOM     16  C   UNL     1       4.582   3.423  -6.288  0.00  0.00    +0.055 C 
ATOM     17  C   UNL     1       4.616   5.898  -6.655  0.00  0.00    +0.055 C 
ENDBRANCH   1  12
BRANCH   2  18
ATOM     18  C   UNL     1      -0.437   3.095  -2.069  0.00  0.00    +0.226 C 
BRANCH  18  19
ATOM     19  N   UNL     1      -0.778   1.837  -1.400  0.00  0.00    -0.197 N 
BRANCH  19  20
ATOM     20  C   UNL     1      -1.745   0.992  -1.951  0.00  0.00    +0.070 A 
ATOM     21  C   UNL     1      -1.391   0.078  -2.935  0.00  0.00    +0.026 A 
ATOM     22  C   UNL     1      -2.348  -0.760  -3.474  0.00  0.00    +0.002 A 
ATOM     23  C   UNL     1      -3.660  -0.682  -3.042  0.00  0.00    +0.002 A 
ATOM     24  C   UNL     1      -4.017   0.230  -2.066  0.00  0.00    +0.022 A 
ATOM     25  C   UNL     1      -3.064   1.067  -1.519  0.00  0.00    +0.064 A 
ATOM     26 CL   UNL     1      -3.513   2.213  -0.294  0.00  0.00    -0.082 Cl
ENDBRANCH  19  20
BRANCH  19  27
ATOM     27  S   UNL     1      -0.017   1.417   0.010  0.00  0.00    +0.043 S 
ATOM     28  O   UNL     1       0.002  -0.004   0.002  0.00  0.00    -0.155 OA
ATOM     29  O   UNL     1       1.195   2.158   0.002  0.00  0.00    -0.155 OA
ATOM     30  C   UNL     1      -1.110   2.020   1.327  0.00  0.00    +0.218 C 
ENDBRANCH  19  27
ENDBRANCH  18  19
ENDBRANCH   2  18
TORSDOF 5
