REMARK  Name = ZINC35067074
REMARK  17 active torsions:
REMARK  status: ('A' for Active; 'I' for Inactive)
REMARK    1  A    between atoms: C_1  and  C_2
REMARK    2  A    between atoms: C_2  and  C_3
REMARK    3  A    between atoms: C_3  and  C_4
REMARK    4  A    between atoms: C_4  and  C_5
REMARK    5  A    between atoms: C_5  and  C_7
REMARK    6  A    between atoms: C_5  and  C_9
REMARK    7  A    between atoms: C_7  and  C_8
REMARK    8  A    between atoms: N_11  and  C_12
REMARK    9  A    between atoms: N_11  and  C_17
REMARK   10  A    between atoms: C_12  and  C_13
REMARK   11  A    between atoms: C_13  and  N_14
REMARK   12  A    between atoms: N_14  and  C_15
REMARK   13  A    between atoms: N_14  and  C_16
REMARK   14  A    between atoms: C_17  and  C_19
REMARK   15  A    between atoms: C_17  and  C_21
REMARK   16  A    between atoms: C_19  and  C_20
REMARK   17  A    between atoms: N_31  and  C_32
REMARK                            x       y       z     vdW  Elec       q    Type
REMARK                         _______ _______ _______ _____ _____    ______ ____
ROOT
ATOM      1  C   UNL     1      -3.661  -5.266   0.204  0.00  0.00    +0.142 C 
ENDROOT
BRANCH   1   2
ATOM      2  C   UNL     1      -4.537  -5.462   1.414  0.00  0.00    +0.138 A 
ATOM      3  N   UNL     1      -5.776  -5.078   1.347  0.00  0.00    -0.231 NA
ATOM      4  C   UNL     1      -6.623  -5.223   2.396  0.00  0.00    +0.078 A 
ATOM      5  C   UNL     1      -7.955  -4.811   2.324  0.00  0.00    +0.028 A 
ATOM      6  C   UNL     1      -8.781  -4.978   3.413  0.00  0.00    +0.002 A 
ATOM      7  C   UNL     1      -8.305  -5.551   4.585  0.00  0.00    +0.001 A 
ATOM      8  C   UNL     1      -6.995  -5.964   4.681  0.00  0.00    +0.015 A 
ATOM      9  C   UNL     1      -6.143  -5.806   3.590  0.00  0.00    +0.065 A 
ATOM     10  C   UNL     1      -4.736  -6.229   3.634  0.00  0.00    +0.266 A 
ATOM     11  O   UNL     1      -4.260  -6.738   4.632  0.00  0.00    -0.267 OA
ATOM     12  N   UNL     1      -3.991  -6.037   2.520  0.00  0.00    -0.263 N 
BRANCH  12  13
ATOM     13  C   UNL     1      -2.646  -6.427   2.508  0.00  0.00    +0.051 A 
ATOM     14  C   UNL     1      -1.710  -5.721   3.253  0.00  0.00    +0.029 A 
ATOM     15  C   UNL     1      -0.385  -6.108   3.240  0.00  0.00    +0.040 A 
ATOM     16  C   UNL     1       0.012  -7.199   2.484  0.00  0.00    +0.124 A 
ATOM     17  C   UNL     1      -0.919  -7.904   1.740  0.00  0.00    +0.040 A 
ATOM     18  C   UNL     1      -2.247  -7.524   1.755  0.00  0.00    +0.029 A 
ATOM     19  F   UNL     1       1.309  -7.576   2.472  0.00  0.00    -0.205 F 
ENDBRANCH  12  13
ENDBRANCH   1   2
BRANCH   1  22
ATOM     20  C   UNL     1      -2.256  -3.289  -0.032  0.00  0.00    +0.219 C 
ATOM     21  O   UNL     1      -1.298  -3.968   0.270  0.00  0.00    -0.275 OA
ATOM     22  N   UNL     1      -3.489  -3.833  -0.048  0.00  0.00    -0.293 N 
BRANCH  20  23
ATOM     23  C   UNL     1      -2.069  -1.837  -0.390  0.00  0.00    +0.075 C 
BRANCH  23  24
ATOM     24  C   UNL     1      -0.740  -1.661  -1.128  0.00  0.00    +0.009 C 
ATOM     25  C   UNL     1      -0.804  -2.388  -2.472  0.00  0.00    +0.004 C 
ENDBRANCH  23  24
BRANCH  23  26
ATOM     26  C   UNL     1      -2.058  -0.995   0.888  0.00  0.00    +0.013 C 
BRANCH  26  27
ATOM     27  C   UNL     1      -1.993   0.489   0.519  0.00  0.00    +0.000 C 
BRANCH  27  29
ATOM     28  C   UNL     1      -1.918   2.815   1.429  0.00  0.00    +0.004 C 
ATOM     29  C   UNL     1      -1.983   1.331   1.797  0.00  0.00    -0.003 C 
ENDBRANCH  27  29
ENDBRANCH  26  27
ENDBRANCH  23  26
ENDBRANCH  20  23
BRANCH  22  30
ATOM     30  C   UNL     1      -4.658  -2.992  -0.318  0.00  0.00    +0.090 C 
BRANCH  30  31
ATOM     31  C   UNL     1      -4.850  -2.854  -1.829  0.00  0.00    -0.060 C 
BRANCH  31  32
ATOM     32  N   UNL     1      -5.947  -1.915  -2.100  0.00  0.00    +0.377 N 
ATOM     33  C   UNL     1      -6.039  -1.675  -3.546  0.00  0.00    -0.097 C 
ATOM     34  C   UNL     1      -7.211  -2.487  -1.617  0.00  0.00    -0.097 C 
ATOM     35  H   UNL     1      -5.768  -1.043  -1.625  0.00  0.00    -0.083 HD
ENDBRANCH  31  32
ENDBRANCH  30  31
ENDBRANCH  22  30
ENDBRANCH   1  22
BRANCH   1  36
ATOM     36  C   UNL     1      -4.317  -5.923  -1.012  0.00  0.00    +0.027 C 
ATOM     37  C   UNL     1      -3.359  -5.860  -2.204  0.00  0.00    +0.006 C 
ENDBRANCH   1  36
TORSDOF 12
