REMARK  Name = ZINC21466295
REMARK  8 active torsions:
REMARK  status: ('A' for Active; 'I' for Inactive)
REMARK    1  A    between atoms: C_1  and  C_2
REMARK    2  A    between atoms: C_12  and  C_14
REMARK    3  A    between atoms: C_14  and  C_16
REMARK    4  A    between atoms: C_14  and  S_17
REMARK    5  A    between atoms: S_17  and  C_18
REMARK    6  A    between atoms: N_28  and  C_29
REMARK    7  A    between atoms: C_29  and  C_30
REMARK    8  A    between atoms: C_29  and  C_31
REMARK                            x       y       z     vdW  Elec       q    Type
REMARK                         _______ _______ _______ _____ _____    ______ ____
ROOT
ATOM      1  S   UNL     1       3.562   1.802   0.021  0.00  0.00    -0.075 S 
ENDROOT
BRANCH   1   2
ATOM      2  C   UNL     1       2.166   0.728   0.053  0.00  0.00    +0.173 A 
ATOM      3  N   UNL     1       2.373  -0.563   0.134  0.00  0.00    -0.223 NA
ATOM      4  C   UNL     1       1.346  -1.444   0.162  0.00  0.00    +0.080 A 
ATOM      5  C   UNL     1       1.564  -2.822   0.248  0.00  0.00    +0.048 A 
ATOM      6  C   UNL     1       0.487  -3.680   0.274  0.00  0.00    +0.043 A 
ATOM      7  C   UNL     1      -0.814  -3.192   0.215  0.00  0.00    +0.021 A 
ATOM      8  C   UNL     1      -1.052  -1.849   0.131  0.00  0.00    +0.017 A 
ATOM      9  C   UNL     1       0.019  -0.958   0.103  0.00  0.00    +0.065 A 
ATOM     10  C   UNL     1      -0.183   0.494   0.013  0.00  0.00    +0.263 A 
ATOM     11  O   UNL     1      -1.301   0.973  -0.045  0.00  0.00    -0.267 OA
ATOM     12  N   UNL     1       0.918   1.280  -0.008  0.00  0.00    -0.285 N 
ATOM     13 CL   UNL     1       0.757  -5.392   0.381  0.00  0.00    -0.083 Cl
BRANCH  12  14
ATOM     14  C   UNL     1       0.771   2.735  -0.097  0.00  0.00    +0.087 C 
ATOM     15  C   UNL     1       0.031   3.094  -1.387  0.00  0.00    +0.031 C 
ATOM     16  C   UNL     1      -0.026   3.242   1.106  0.00  0.00    +0.031 C 
ENDBRANCH  12  14
ENDBRANCH   1   2
BRANCH   1  17
ATOM     17  C   UNL     1       4.898   0.585   0.123  0.00  0.00    +0.137 C 
ATOM     18  C   UNL     1       4.834  -0.131   1.473  0.00  0.00    +0.029 C 
BRANCH  17  29
ATOM     19  C   UNL     1       6.323  -0.764  -2.295  0.00  0.00    +0.029 C 
ATOM     20  C   UNL     1       7.247  -0.730  -1.076  0.00  0.00    +0.083 C 
ATOM     21  C   UNL     1       8.694  -1.036  -1.498  0.00  0.00    +0.059 C 
ATOM     22  C   UNL     1       9.472   0.203  -1.114  0.00  0.00    -0.024 A 
ATOM     23  C   UNL     1      10.813   0.507  -1.245  0.00  0.00    +0.005 A 
ATOM     24  C   UNL     1      11.294   1.727  -0.810  0.00  0.00    +0.000 A 
ATOM     25  C   UNL     1      10.429   2.646  -0.244  0.00  0.00    +0.002 A 
ATOM     26  C   UNL     1       9.090   2.347  -0.112  0.00  0.00    +0.024 A 
ATOM     27  C   UNL     1       8.596   1.116  -0.548  0.00  0.00    +0.040 A 
ATOM     28  N   UNL     1       7.290   0.620  -0.508  0.00  0.00    -0.267 N 
ATOM     29  C   UNL     1       6.226   1.284  -0.013  0.00  0.00    +0.233 C 
ATOM     30  O   UNL     1       6.338   2.443   0.324  0.00  0.00    -0.274 OA
ENDBRANCH  17  29
ENDBRANCH   1  17
TORSDOF 4
