REMARK  Name = ZINC39536221
REMARK  7 active torsions:
REMARK  status: ('A' for Active; 'I' for Inactive)
REMARK    1  A    between atoms: C_1  and  C_2
REMARK    2  A    between atoms: C_4  and  C_27
REMARK    3  A    between atoms: C_7  and  C_12
REMARK    4  A    between atoms: C_12  and  O_14
REMARK    5  A    between atoms: O_14  and  C_15
REMARK    6  A    between atoms: C_15  and  C_17
REMARK    7  A    between atoms: C_15  and  C_18
REMARK                            x       y       z     vdW  Elec       q    Type
REMARK                         _______ _______ _______ _____ _____    ______ ____
ROOT
ATOM      1  C   UNL     1      -0.248  -5.780   2.250  0.00  0.00    +0.356 C 
ATOM      2  O   UNL     1       0.063  -6.835   1.732  0.00  0.00    -0.243 OA
ENDROOT
BRANCH   1   9
ATOM      3  C   UNL     1      -2.323   0.741  -0.663  0.00  0.00    +0.044 C 
ATOM      4  C   UNL     1      -1.879  -0.694  -0.547  0.00  0.00    -0.048 A 
ATOM      5  C   UNL     1      -1.674  -1.446  -1.697  0.00  0.00    +0.007 A 
ATOM      6  C   UNL     1      -1.272  -2.748  -1.614  0.00  0.00    -0.041 A 
ATOM      7  C   UNL     1      -1.062  -3.334  -0.359  0.00  0.00    +0.003 A 
ATOM      8  C   UNL     1      -0.655  -4.625   0.055  0.00  0.00    +0.043 A 
ATOM      9  C   UNL     1      -0.621  -4.632   1.414  0.00  0.00    +0.125 A 
ATOM     10  N   UNL     1      -0.992  -3.386   1.883  0.00  0.00    -0.349 N 
ATOM     11  H   UNL     1      -1.049  -3.128   2.816  0.00  0.00    +0.166 HD
ATOM     12  C   UNL     1      -1.268  -2.573   0.809  0.00  0.00    +0.048 A 
ATOM     13  C   UNL     1      -1.674  -1.246   0.698  0.00  0.00    +0.029 A 
ATOM     14  C   UNL     1      -1.055  -3.552  -2.870  0.00  0.00    +0.044 C 
ENDBRANCH   1   9
BRANCH   1  15
ATOM     15  O   UNL     1      -0.251  -5.665   3.594  0.00  0.00    -0.448 OA
BRANCH  15  16
ATOM     16  C   UNL     1       0.121  -6.822   4.345  0.00  0.00    +0.259 C 
ATOM     17  C   UNL     1       1.633  -6.812   4.580  0.00  0.00    +0.062 C 
BRANCH  16  18
ATOM     18  C   UNL     1      -0.593  -6.811   5.672  0.00  0.00    +0.256 C 
ATOM     19  O   UNL     1      -1.165  -5.809   6.044  0.00  0.00    -0.272 OA
ATOM     20  N   UNL     1      -0.597  -7.916   6.444  0.00  0.00    -0.298 N 
ATOM     21  C   UNL     1      -1.382  -7.910   7.658  0.00  0.00    +0.108 C 
ATOM     22  C   UNL     1      -0.521  -7.377   8.831  0.00  0.00    +0.019 C 
ATOM     23  C   UNL     1       0.501  -8.366   9.204  0.00  0.00    +0.002 C 
ATOM     24  C   UNL     1       1.512  -8.671   8.102  0.00  0.00    +0.002 C 
ATOM     25  C   UNL     1       0.951  -9.735   7.190  0.00  0.00    +0.019 C 
ATOM     26  C   UNL     1       0.196  -9.084   6.013  0.00  0.00    +0.108 C 
ENDBRANCH  16  18
ENDBRANCH  15  16
ENDBRANCH   1  15
TORSDOF 4
