REMARK  Name = ZINC59393763
REMARK  7 active torsions:
REMARK  status: ('A' for Active; 'I' for Inactive)
REMARK    1  A    between atoms: C_6  and  C_7
REMARK    2  A    between atoms: C_7  and  N_8
REMARK    3  A    between atoms: C_11  and  N_14
REMARK    4  A    between atoms: N_14  and  C_15
REMARK    5  A    between atoms: C_18  and  S_24
REMARK    6  A    between atoms: C_20  and  N_21
REMARK    7  A    between atoms: S_24  and  N_27
REMARK                            x       y       z     vdW  Elec       q    Type
REMARK                         _______ _______ _______ _____ _____    ______ ____
ROOT
ATOM      1  C   UNL     1      -3.723  -3.984  -5.418  0.00  0.00    +0.058 A 
ATOM      2  C   UNL     1      -4.169  -4.907  -4.482  0.00  0.00    +0.027 A 
ATOM      3  C   UNL     1      -5.263  -5.701  -4.764  0.00  0.00    +0.030 A 
ATOM      4  C   UNL     1      -5.915  -5.578  -5.978  0.00  0.00    +0.108 A 
ATOM      5  C   UNL     1      -5.473  -4.660  -6.912  0.00  0.00    +0.063 A 
ATOM      6  C   UNL     1      -4.383  -3.858  -6.634  0.00  0.00    +0.149 A 
ENDROOT
BRANCH   6   7
ATOM      7  N   UNL     1      -3.914  -2.872  -7.633  0.00  0.00    +0.058 N 
ATOM      8  O   UNL     1      -3.503  -1.794  -7.271  0.00  0.00    -0.126 OA
ATOM      9  O   UNL     1      -3.943  -3.144  -8.811  0.00  0.00    -0.126 OA
ENDBRANCH   6   7
BRANCH   4  10
ATOM     10  S   UNL     1      -7.310  -6.593  -6.333  0.00  0.00    +0.061 S 
ATOM     11  O   UNL     1      -7.408  -6.667  -7.749  0.00  0.00    -0.153 OA
ATOM     12  O   UNL     1      -7.190  -7.749  -5.517  0.00  0.00    -0.153 OA
BRANCH  10  13
ATOM     13  N   UNL     1      -8.654  -5.780  -5.808  0.00  0.00    -0.177 NA
ATOM     14  C   UNL     1      -9.147  -5.957  -4.435  0.00  0.00    +0.109 C 
ATOM     15  C   UNL     1      -9.278  -4.580  -3.777  0.00  0.00    +0.017 C 
ATOM     16  C   UNL     1     -10.159  -3.684  -4.650  0.00  0.00    +0.003 C 
ATOM     17  C   UNL     1      -9.504  -3.503  -6.021  0.00  0.00    +0.017 C 
ATOM     18  C   UNL     1      -9.372  -4.862  -6.703  0.00  0.00    +0.109 C 
ENDBRANCH  10  13
ENDBRANCH   4  10
BRANCH   1  19
ATOM     19  N   UNL     1      -2.617  -3.179  -5.136  0.00  0.00    -0.339 N 
ATOM     20  H   UNL     1      -2.256  -2.594  -5.820  0.00  0.00    +0.146 HD
BRANCH  19  24
ATOM     21  N   UNL     1      -0.658  -1.801  -1.668  0.00  0.00    +0.382 N 
ATOM     22  C   UNL     1       0.077  -2.755  -2.506  0.00  0.00    -0.077 C 
ATOM     23  C   UNL     1      -0.536  -2.788  -3.908  0.00  0.00    +0.003 C 
ATOM     24  C   UNL     1      -2.002  -3.219  -3.807  0.00  0.00    +0.067 C 
ATOM     25  C   UNL     1      -2.743  -2.259  -2.871  0.00  0.00    +0.003 C 
ATOM     26  C   UNL     1      -2.047  -2.246  -1.508  0.00  0.00    -0.077 C 
ATOM     27  H   UNL     1      -0.645  -0.892  -2.107  0.00  0.00    -0.081 HD
BRANCH  21  28
ATOM     28  C   UNL     1      -0.018  -1.715  -0.349  0.00  0.00    -0.043 C 
BRANCH  28  34
ATOM     29  C   UNL     1       1.562   0.225  -0.425  0.00  0.00    +0.004 A 
ATOM     30  C   UNL     1       2.832   0.752  -0.563  0.00  0.00    +0.038 A 
ATOM     31  C   UNL     1       3.910  -0.090  -0.774  0.00  0.00    +0.123 A 
ATOM     32  C   UNL     1       3.715  -1.459  -0.848  0.00  0.00    +0.038 A 
ATOM     33  C   UNL     1       2.444  -1.983  -0.710  0.00  0.00    +0.004 A 
ATOM     34  C   UNL     1       1.368  -1.142  -0.499  0.00  0.00    -0.064 A 
ATOM     35  F   UNL     1       5.153   0.424  -0.909  0.00  0.00    -0.205 F 
ENDBRANCH  28  34
ENDBRANCH  21  28
ENDBRANCH  19  24
ENDBRANCH   1  19
TORSDOF 7
