REMARK  Name = ZINC39896854
REMARK  10 active torsions:
REMARK  status: ('A' for Active; 'I' for Inactive)
REMARK    1  A    between atoms: C_1  and  C_2
REMARK    2  A    between atoms: C_5  and  C_8
REMARK    3  A    between atoms: C_8  and  C_9
REMARK    4  A    between atoms: N_13  and  C_28
REMARK    5  A    between atoms: C_15  and  C_16
REMARK    6  A    between atoms: C_15  and  C_18
REMARK    7  A    between atoms: N_20  and  C_21
REMARK    8  A    between atoms: C_31  and  C_34
REMARK    9  A    between atoms: C_34  and  C_35
REMARK   10  A    between atoms: C_34  and  C_36
REMARK                            x       y       z     vdW  Elec       q    Type
REMARK                         _______ _______ _______ _____ _____    ______ ____
ROOT
ATOM      1  C   UNL     1       1.542  -4.566  -0.189  0.00  0.00    +0.143 C 
ATOM      2  C   UNL     1       1.404  -6.063  -0.416  0.00  0.00    +0.238 C 
ATOM      3  O   UNL     1       0.595  -6.526  -1.192  0.00  0.00    -0.274 OA
ATOM      4  N   UNL     1       2.222  -6.828   0.286  0.00  0.00    -0.232 N 
ATOM      5  C   UNL     1       3.143  -6.315   1.167  0.00  0.00    +0.098 C 
ATOM      6  C   UNL     1       4.056  -7.009   1.961  0.00  0.00    +0.142 C 
ATOM      7  S   UNL     1       2.896  -4.547   1.058  0.00  0.00    -0.095 S 
ENDROOT
BRANCH   4   8
ATOM      8  C   UNL     1       2.147  -8.218   0.126  0.00  0.00    +0.042 A 
ATOM      9  C   UNL     1       2.804  -8.832  -0.933  0.00  0.00    +0.024 A 
ATOM     10  C   UNL     1       2.728 -10.202  -1.089  0.00  0.00    +0.006 A 
ATOM     11  C   UNL     1       1.999 -10.963  -0.192  0.00  0.00    -0.045 A 
ATOM     12  C   UNL     1       1.345 -10.354   0.863  0.00  0.00    +0.006 A 
ATOM     13  C   UNL     1       1.421  -8.985   1.027  0.00  0.00    +0.024 A 
BRANCH  11  14
ATOM     14  C   UNL     1       1.919 -12.457  -0.365  0.00  0.00    +0.013 C 
ATOM     15  C   UNL     1       2.493 -13.146   0.874  0.00  0.00    +0.012 C 
ATOM     16  C   UNL     1       0.457 -12.871  -0.548  0.00  0.00    +0.012 C 
ENDBRANCH  11  14
ENDBRANCH   4   8
BRANCH   6  17
ATOM     17  C   UNL     1       5.004  -6.275   2.798  0.00  0.00    +0.261 C 
ATOM     18  O   UNL     1       4.997  -5.058   2.802  0.00  0.00    -0.269 OA
ATOM     19  N   UNL     1       5.887  -6.946   3.564  0.00  0.00    -0.281 N 
ATOM     20  H   UNL     1       5.953  -7.912   3.496  0.00  0.00    +0.155 HD
BRANCH  19  21
ATOM     21  C   UNL     1       6.707  -6.251   4.459  0.00  0.00    +0.034 A 
ATOM     22  C   UNL     1       7.990  -6.709   4.726  0.00  0.00    +0.023 A 
ATOM     23  C   UNL     1       8.798  -6.020   5.609  0.00  0.00    +0.002 A 
ATOM     24  C   UNL     1       8.329  -4.875   6.228  0.00  0.00    +0.000 A 
ATOM     25  C   UNL     1       7.051  -4.417   5.965  0.00  0.00    +0.002 A 
ATOM     26  C   UNL     1       6.241  -5.098   5.078  0.00  0.00    +0.023 A 
ENDBRANCH  19  21
ENDBRANCH   6  17
BRANCH   6  27
ATOM     27  C   UNL     1       4.065  -8.441   1.957  0.00  0.00    +0.107 C 
ATOM     28  N   UNL     1       4.071  -9.577   1.953  0.00  0.00    -0.191 NA
ENDBRANCH   6  27
BRANCH   1  29
ATOM     29  C   UNL     1       0.254  -3.969   0.382  0.00  0.00    +0.059 C 
BRANCH  29  34
ATOM     30  C   UNL     1       0.910   1.729   1.082  0.00  0.00    +0.044 C 
ATOM     31  C   UNL     1       0.739   0.243   0.899  0.00  0.00    -0.050 A 
ATOM     32  C   UNL     1       0.254  -0.255  -0.295  0.00  0.00    +0.003 A 
ATOM     33  C   UNL     1       0.098  -1.618  -0.463  0.00  0.00    +0.004 A 
ATOM     34  C   UNL     1       0.426  -2.483   0.564  0.00  0.00    -0.046 A 
ATOM     35  C   UNL     1       0.912  -1.985   1.758  0.00  0.00    +0.004 A 
ATOM     36  C   UNL     1       1.073  -0.622   1.924  0.00  0.00    +0.003 A 
ENDBRANCH  29  34
ENDBRANCH   1  29
TORSDOF 7
