REMARK  Name = ZINC08430405
REMARK  13 active torsions:
REMARK  status: ('A' for Active; 'I' for Inactive)
REMARK    1  A    between atoms: C_1  and  C_2
REMARK    2  A    between atoms: C_2  and  O_3
REMARK    3  A    between atoms: O_3  and  C_4
REMARK    4  A    between atoms: C_7  and  C_12
REMARK    5  A    between atoms: C_9  and  O_10
REMARK    6  A    between atoms: O_10  and  C_11
REMARK    7  A    between atoms: C_17  and  C_27
REMARK    8  A    between atoms: C_29  and  O_37
REMARK    9  A    between atoms: C_30  and  O_35
REMARK   10  A    between atoms: C_31  and  O_33
REMARK   11  A    between atoms: O_33  and  C_34
REMARK   12  A    between atoms: O_35  and  C_36
REMARK   13  A    between atoms: O_37  and  C_38
REMARK                            x       y       z     vdW  Elec       q    Type
REMARK                         _______ _______ _______ _____ _____    ______ ____
ROOT
ATOM      1  C   UNL     1      -6.987  -2.881  -2.205  0.00  0.00    +0.032 C 
ATOM      2  C   UNL     1      -7.071  -1.385  -2.501  0.00  0.00    +0.059 C 
ATOM      3  C   UNL     1      -6.959  -0.596  -1.206  0.00  0.00    +0.017 C 
ATOM      4  C   UNL     1      -6.196  -1.049  -0.199  0.00  0.00    +0.036 C 
ATOM      5  C   UNL     1      -5.964  -0.352   1.121  0.00  0.00    +0.136 C 
ATOM      6  N   UNL     1      -6.846   0.769   1.369  0.00  0.00    -0.331 N 
ATOM      7  C   UNL     1      -6.807   1.908   0.567  0.00  0.00    +0.049 A 
ATOM      8  C   UNL     1      -6.414   3.137   1.074  0.00  0.00    +0.025 A 
ATOM      9  C   UNL     1      -6.347   4.231   0.229  0.00  0.00    +0.002 A 
ATOM     10  C   UNL     1      -6.666   4.102  -1.111  0.00  0.00    +0.002 A 
ATOM     11  C   UNL     1      -7.075   2.880  -1.617  0.00  0.00    +0.025 A 
ATOM     12  C   UNL     1      -7.162   1.790  -0.768  0.00  0.00    +0.052 A 
ATOM     13  N   UNL     1      -7.665   0.563  -1.187  0.00  0.00    -0.316 N 
ATOM     14  C   UNL     1      -5.522  -2.287  -0.317  0.00  0.00    +0.163 C 
ATOM     15  O   UNL     1      -4.828  -2.666   0.606  0.00  0.00    -0.292 OA
ATOM     16  C   UNL     1      -5.633  -3.149  -1.538  0.00  0.00    +0.088 C 
ATOM     17  H   UNL     1      -7.476   0.726   2.105  0.00  0.00    +0.147 HD
ATOM     18  H   UNL     1      -8.587   0.533  -1.487  0.00  0.00    +0.152 HD
ENDROOT
BRANCH   1  22
ATOM     19  C   UNL     1      -7.265  -5.094  -5.854  0.00  0.00    +0.162 A 
ATOM     20  C   UNL     1      -6.259  -4.157  -5.684  0.00  0.00    +0.050 A 
ATOM     21  C   UNL     1      -6.172  -3.443  -4.503  0.00  0.00    +0.008 A 
ATOM     22  C   UNL     1      -7.087  -3.662  -3.490  0.00  0.00    -0.040 A 
ATOM     23  C   UNL     1      -8.090  -4.599  -3.651  0.00  0.00    +0.053 A 
ATOM     24  C   UNL     1      -8.186  -5.315  -4.834  0.00  0.00    +0.162 A 
BRANCH  24  25
ATOM     25  O   UNL     1      -9.175  -6.234  -4.997  0.00  0.00    -0.491 OA
ATOM     26  C   UNL     1     -10.085  -6.407  -3.908  0.00  0.00    +0.277 C 
ENDBRANCH  24  25
BRANCH  19  27
ATOM     27  O   UNL     1      -7.352  -5.798  -7.015  0.00  0.00    -0.489 OA
BRANCH  27  29
ATOM     28  C   UNL     1      -6.630  -6.400  -9.241  0.00  0.00    +0.048 C 
ATOM     29  C   UNL     1      -6.373  -5.519  -8.017  0.00  0.00    +0.226 C 
ENDBRANCH  27  29
ENDBRANCH  19  27
ENDBRANCH   1  22
BRANCH   5  30
ATOM     30  C   UNL     1      -4.541   0.143   1.156  0.00  0.00    -0.016 A 
ATOM     31  C   UNL     1      -4.117   1.089   0.241  0.00  0.00    +0.055 A 
ATOM     32  C   UNL     1      -2.808   1.546   0.270  0.00  0.00    +0.165 A 
ATOM     33  C   UNL     1      -1.923   1.054   1.220  0.00  0.00    +0.204 A 
ATOM     34  C   UNL     1      -2.351   0.099   2.135  0.00  0.00    +0.165 A 
ATOM     35  C   UNL     1      -3.663  -0.349   2.103  0.00  0.00    +0.055 A 
BRANCH  34  36
ATOM     36  O   UNL     1      -1.487  -0.390   3.064  0.00  0.00    -0.491 OA
ATOM     37  C   UNL     1      -1.967  -1.438   3.909  0.00  0.00    +0.277 C 
ENDBRANCH  34  36
BRANCH  33  38
ATOM     38  O   UNL     1      -0.637   1.500   1.252  0.00  0.00    -0.488 OA
ATOM     39  C   UNL     1      -0.367   2.642   2.068  0.00  0.00    +0.277 C 
ENDBRANCH  33  38
BRANCH  32  40
ATOM     40  O   UNL     1      -2.392   2.476  -0.632  0.00  0.00    -0.491 OA
ATOM     41  C   UNL     1      -3.357   2.937  -1.580  0.00  0.00    +0.277 C 
ENDBRANCH  32  40
ENDBRANCH   5  30
TORSDOF 8
