REMARK  Name = ZINC13233231
REMARK  10 active torsions:
REMARK  status: ('A' for Active; 'I' for Inactive)
REMARK    1  A    between atoms: C_1  and  C_2
REMARK    2  A    between atoms: C_2  and  C_4
REMARK    3  A    between atoms: C_2  and  S_16
REMARK    4  A    between atoms: N_6  and  C_7
REMARK    5  A    between atoms: N_6  and  C_8
REMARK    6  A    between atoms: S_16  and  C_17
REMARK    7  A    between atoms: C_20  and  C_26
REMARK    8  A    between atoms: N_21  and  C_22
REMARK    9  A    between atoms: C_22  and  C_23
REMARK   10  A    between atoms: C_23  and  C_24
REMARK                            x       y       z     vdW  Elec       q    Type
REMARK                         _______ _______ _______ _____ _____    ______ ____
ROOT
ATOM      1  C   UNL     1       1.414   3.864  -0.201  0.00  0.00    +0.193 A 
ATOM      2  N   UNL     1       0.230   4.392  -0.415  0.00  0.00    -0.122 NA
ATOM      3  N   UNL     1       0.305   5.675  -0.380  0.00  0.00    -0.128 NA
ATOM      4  C   UNL     1       1.542   6.044  -0.141  0.00  0.00    +0.165 A 
ATOM      5  N   UNL     1       2.289   4.896  -0.014  0.00  0.00    -0.302 N 
ENDROOT
BRANCH   4   6
ATOM      6  C   UNL     1       2.038   7.432  -0.026  0.00  0.00    +0.019 A 
ATOM      7  C   UNL     1       1.145   8.477   0.218  0.00  0.00    +0.014 A 
ATOM      8  C   UNL     1       1.613   9.769   0.331  0.00  0.00    +0.039 A 
ATOM      9  C   UNL     1       2.966  10.033   0.190  0.00  0.00    +0.123 A 
ATOM     10  C   UNL     1       3.857   9.000  -0.059  0.00  0.00    +0.039 A 
ATOM     11  C   UNL     1       3.400   7.704  -0.167  0.00  0.00    +0.014 A 
ATOM     12  F   UNL     1       3.419  11.301   0.296  0.00  0.00    -0.205 F 
ENDBRANCH   4   6
BRANCH   1  13
ATOM     13  S   UNL     1       1.799   2.145  -0.157  0.00  0.00    -0.074 S 
BRANCH  13  15
ATOM     14  C   UNL     1      -0.776   1.792   0.684  0.00  0.00    +0.029 C 
ATOM     15  C   UNL     1       0.160   1.447  -0.476  0.00  0.00    +0.137 C 
BRANCH  15  16
ATOM     16  C   UNL     1       0.269  -0.050  -0.606  0.00  0.00    +0.229 C 
ATOM     17  O   UNL     1       1.184  -0.640  -0.073  0.00  0.00    -0.274 OA
ATOM     18  N   UNL     1      -0.651  -0.733  -1.316  0.00  0.00    -0.299 N 
ATOM     19  C   UNL     1      -1.757  -0.020  -1.960  0.00  0.00    +0.132 C 
BRANCH  18  20
ATOM     20  C   UNL     1      -0.546  -2.189  -1.442  0.00  0.00    +0.098 C 
ATOM     21  C   UNL     1      -1.803  -2.853  -0.856  0.00  0.00    +0.046 C 
ATOM     22  C   UNL     1      -1.852  -4.345  -1.267  0.00  0.00    +0.168 C 
ATOM     23  S   UNL     1      -0.940  -4.354  -2.864  0.00  0.00    -0.029 S 
ATOM     24  O   UNL     1       0.228  -5.152  -2.725  0.00  0.00    -0.174 OA
ATOM     25  O   UNL     1      -1.853  -4.629  -3.917  0.00  0.00    -0.174 OA
ATOM     26  C   UNL     1      -0.447  -2.580  -2.944  0.00  0.00    +0.188 C 
ENDBRANCH  18  20
ENDBRANCH  15  16
ENDBRANCH  13  15
ENDBRANCH   1  13
BRANCH   5  27
ATOM     27  C   UNL     1       3.725   4.800   0.262  0.00  0.00    +0.137 C 
BRANCH  27  28
ATOM     28  C   UNL     1       4.492   4.697  -1.058  0.00  0.00    +0.147 C 
BRANCH  28  29
ATOM     29  C   UNL     1       5.969   4.598  -0.774  0.00  0.00    +0.358 C 
ATOM     30  O   UNL     1       6.367   4.609   0.367  0.00  0.00    -0.246 OA
ATOM     31  O   UNL     1       6.842   4.497  -1.788  0.00  0.00    -0.246 OA
ENDBRANCH  28  29
ENDBRANCH  27  28
ENDBRANCH   5  27
TORSDOF 8
