REMARK  Name = ZINC59040004
REMARK  11 active torsions:
REMARK  status: ('A' for Active; 'I' for Inactive)
REMARK    1  A    between atoms: C_1  and  O_2
REMARK    2  A    between atoms: O_2  and  C_3
REMARK    3  A    between atoms: C_5  and  C_13
REMARK    4  A    between atoms: C_6  and  N_10
REMARK    5  A    between atoms: C_8  and  O_9
REMARK    6  A    between atoms: N_14  and  N_15
REMARK    7  A    between atoms: C_18  and  S_21
REMARK    8  A    between atoms: S_21  and  C_22
REMARK    9  A    between atoms: C_22  and  C_23
REMARK   10  A    between atoms: N_25  and  C_26
REMARK   11  A    between atoms: C_26  and  C_27
REMARK                            x       y       z     vdW  Elec       q    Type
REMARK                         _______ _______ _______ _____ _____    ______ ____
ROOT
ATOM      1  N   UNL     1      -7.053   0.254  -0.043  0.00  0.00    -0.205 N 
ATOM      2  C   UNL     1      -8.246  -0.372  -0.137  0.00  0.00    +0.232 A 
ATOM      3  N   UNL     1      -8.444  -1.683  -0.239  0.00  0.00    -0.186 NA
ATOM      4  C   UNL     1      -9.756  -1.884  -0.307  0.00  0.00    +0.211 A 
ATOM      5  N   UNL     1     -10.369  -0.702  -0.248  0.00  0.00    -0.144 NA
ATOM      6  N   UNL     1      -9.479   0.225  -0.140  0.00  0.00    -0.245 N 
ATOM      7  H   UNL     1      -7.017   1.221   0.032  0.00  0.00    +0.177 HD
ATOM      8  H   UNL     1      -9.653   1.177  -0.073  0.00  0.00    +0.192 HD
ENDROOT
BRANCH   1  10
ATOM      9  C   UNL     1      -4.787   0.183   0.039  0.00  0.00    +0.140 C 
ATOM     10  N   UNL     1      -5.962  -0.433  -0.053  0.00  0.00    -0.187 NA
BRANCH   9  13
ATOM     11  C   UNL     1      -1.197  -0.643  -0.005  0.00  0.00    +0.162 A 
ATOM     12  C   UNL     1      -2.346   0.090   0.005  0.00  0.00    +0.061 A 
ATOM     13  C   UNL     1      -3.597  -0.565   0.028  0.00  0.00    +0.028 A 
ATOM     14  C   UNL     1      -3.648  -1.982   0.041  0.00  0.00    +0.138 A 
ATOM     15  C   UNL     1      -2.494  -2.702   0.031  0.00  0.00    +0.082 A 
ATOM     16  C   UNL     1      -1.257  -2.049   0.002  0.00  0.00    +0.161 A 
BRANCH  14  17
ATOM     17  N   UNL     1      -4.955  -2.676   0.067  0.00  0.00    +0.057 N 
ATOM     18  O   UNL     1      -5.830  -2.399   1.011  0.00  0.00    -0.126 OA
ATOM     19  O   UNL     1      -5.243  -3.572  -0.855  0.00  0.00    -0.126 OA
ENDBRANCH  14  17
BRANCH  11  21
ATOM     20  C   UNL     1      -0.004   1.413  -0.035  0.00  0.00    +0.277 C 
ATOM     21  O   UNL     1       0.008  -0.016  -0.029  0.00  0.00    -0.491 OA
ENDBRANCH  11  21
BRANCH  16  22
ATOM     22  O   UNL     1      -0.115  -2.772  -0.014  0.00  0.00    -0.503 OA
ATOM     23  H   UNL     1       0.233  -2.978   0.865  0.00  0.00    +0.292 HD
ENDBRANCH  16  22
ENDBRANCH   9  13
ENDBRANCH   1  10
BRANCH   4  24
ATOM     24  S   UNL     1     -10.551  -3.450  -0.453  0.00  0.00    -0.075 S 
BRANCH  24  25
ATOM     25  C   UNL     1     -12.318  -3.042  -0.496  0.00  0.00    +0.173 C 
BRANCH  25  26
ATOM     26  C   UNL     1     -13.123  -4.310  -0.620  0.00  0.00    +0.224 C 
ATOM     27  O   UNL     1     -12.559  -5.383  -0.674  0.00  0.00    -0.275 OA
ATOM     28  N   UNL     1     -14.468  -4.252  -0.671  0.00  0.00    -0.311 N 
ATOM     29  H   UNL     1     -14.919  -3.394  -0.627  0.00  0.00    +0.149 HD
BRANCH  28  30
ATOM     30  C   UNL     1     -15.251  -5.485  -0.792  0.00  0.00    +0.139 C 
BRANCH  30  31
ATOM     31  C   UNL     1     -16.719  -5.147  -0.827  0.00  0.00    -0.030 A 
ATOM     32  C   UNL     1     -17.439  -5.072   0.350  0.00  0.00    +0.005 A 
ATOM     33  C   UNL     1     -18.786  -4.762   0.317  0.00  0.00    +0.000 A 
ATOM     34  C   UNL     1     -19.412  -4.526  -0.892  0.00  0.00    +0.000 A 
ATOM     35  C   UNL     1     -18.691  -4.599  -2.070  0.00  0.00    +0.000 A 
ATOM     36  C   UNL     1     -17.343  -4.905  -2.037  0.00  0.00    +0.005 A 
ENDBRANCH  30  31
ENDBRANCH  28  30
ENDBRANCH  25  26
ENDBRANCH  24  25
ENDBRANCH   4  24
TORSDOF 10
