REMARK  Name = ZINC09170317
REMARK  7 active torsions:
REMARK  status: ('A' for Active; 'I' for Inactive)
REMARK    1  A    between atoms: C_1  and  C_2
REMARK    2  A    between atoms: C_5  and  N_8
REMARK    3  A    between atoms: C_9  and  C_33
REMARK    4  A    between atoms: C_11  and  C_16
REMARK    5  A    between atoms: N_18  and  C_19
REMARK    6  A    between atoms: N_18  and  C_20
REMARK    7  A    between atoms: C_20  and  C_21
REMARK                            x       y       z     vdW  Elec       q    Type
REMARK                         _______ _______ _______ _____ _____    ______ ____
ROOT
ATOM      1  N   UNL     1      -3.208   8.521   3.030  0.00  0.00    -0.263 N 
ATOM      2  C   UNL     1      -1.841   8.123   2.672  0.00  0.00    +0.130 C 
ATOM      3  C   UNL     1      -1.935   7.577   1.230  0.00  0.00    +0.110 C 
ATOM      4  C   UNL     1      -3.186   8.312   0.696  0.00  0.00    +0.111 C 
ATOM      5  C   UNL     1      -3.983   8.640   1.939  0.00  0.00    +0.221 C 
ATOM      6  O   UNL     1      -5.152   8.963   1.950  0.00  0.00    -0.275 OA
ENDROOT
BRANCH   1  11
ATOM      7  C   UNL     1      -4.988   9.435   8.339  0.00  0.00    +0.044 C 
ATOM      8  C   UNL     1      -4.515   9.192   6.929  0.00  0.00    -0.050 A 
ATOM      9  C   UNL     1      -3.240   8.705   6.702  0.00  0.00    +0.005 A 
ATOM     10  C   UNL     1      -2.804   8.482   5.411  0.00  0.00    +0.024 A 
ATOM     11  C   UNL     1      -3.647   8.746   4.340  0.00  0.00    +0.037 A 
ATOM     12  C   UNL     1      -4.924   9.241   4.570  0.00  0.00    +0.024 A 
ATOM     13  C   UNL     1      -5.356   9.457   5.864  0.00  0.00    +0.005 A 
ENDBRANCH   1  11
BRANCH   2  14
ATOM     14  C   UNL     1      -0.921   9.316   2.719  0.00  0.00    +0.011 A 
ATOM     15  C   UNL     1       0.375   9.379   3.110  0.00  0.00    +0.013 A 
ATOM     16  C   UNL     1       1.029  10.596   3.069  0.00  0.00    +0.008 A 
ATOM     17  C   UNL     1       0.354  11.690   2.638  0.00  0.00    +0.045 A 
ATOM     18  S   UNL     1      -1.254  11.010   2.266  0.00  0.00    -0.100 S 
ENDBRANCH   2  14
BRANCH   3  19
ATOM     19  C   UNL     1      -2.147   6.085   1.231  0.00  0.00    +0.221 C 
ATOM     20  O   UNL     1      -2.219   5.483   2.281  0.00  0.00    -0.275 OA
ATOM     21  N   UNL     1      -2.255   5.419   0.064  0.00  0.00    -0.297 N 
ATOM     22  C   UNL     1      -2.167   6.146  -1.205  0.00  0.00    +0.132 C 
BRANCH  21  23
ATOM     23  C   UNL     1      -2.460   3.968   0.065  0.00  0.00    +0.181 C 
BRANCH  23  24
ATOM     24  C   UNL     1      -1.123   3.272   0.049  0.00  0.00    +0.128 A 
ATOM     25  N   UNL     1      -1.105   1.913   0.041  0.00  0.00    -0.309 N 
ATOM     26  H   UNL     1      -1.940   1.421   0.046  0.00  0.00    +0.170 HD
ATOM     27  C   UNL     1       0.070   1.241   0.032  0.00  0.00    +0.259 A 
ATOM     28  O   UNL     1       0.102   0.024   0.030  0.00  0.00    -0.267 OA
ATOM     29  C   UNL     1       1.306   2.037   0.019  0.00  0.00    +0.065 A 
ATOM     30  C   UNL     1       2.566   1.442   0.003  0.00  0.00    +0.015 A 
ATOM     31  C   UNL     1       3.691   2.236  -0.010  0.00  0.00    +0.001 A 
ATOM     32  C   UNL     1       3.579   3.621  -0.007  0.00  0.00    +0.002 A 
ATOM     33  C   UNL     1       2.344   4.228   0.009  0.00  0.00    +0.028 A 
ATOM     34  C   UNL     1       1.188   3.445   0.021  0.00  0.00    +0.078 A 
ATOM     35  N   UNL     1      -0.049   4.001   0.037  0.00  0.00    -0.232 NA
ENDBRANCH  23  24
ENDBRANCH  21  23
ENDBRANCH   3  19
TORSDOF 5
