REMARK  Name = ZINC40896344
REMARK  14 active torsions:
REMARK  status: ('A' for Active; 'I' for Inactive)
REMARK    1  A    between atoms: C_1  and  C_2
REMARK    2  A    between atoms: C_2  and  C_3
REMARK    3  A    between atoms: C_2  and  C_4
REMARK    4  A    between atoms: C_4  and  N_5
REMARK    5  A    between atoms: C_6  and  C_8
REMARK    6  A    between atoms: C_13  and  O_19
REMARK    7  A    between atoms: O_19  and  C_20
REMARK    8  A    between atoms: C_20  and  C_22
REMARK    9  A    between atoms: C_22  and  O_23
REMARK   10  A    between atoms: O_23  and  C_24
REMARK   11  A    between atoms: C_27  and  C_30
REMARK   12  A    between atoms: C_30  and  C_31
REMARK   13  A    between atoms: C_30  and  C_32
REMARK   14  A    between atoms: C_30  and  C_33
REMARK                            x       y       z     vdW  Elec       q    Type
REMARK                         _______ _______ _______ _____ _____    ______ ____
ROOT
ATOM      1  O   UNL     1      -3.330 -10.393  -0.771  0.00  0.00    -0.423 OA
ENDROOT
BRANCH   1   7
ATOM      2  C   UNL     1      -3.956  -4.412   1.149  0.00  0.00    +0.122 A 
ATOM      3  C   UNL     1      -3.633  -4.897  -0.112  0.00  0.00    +0.031 A 
ATOM      4  C   UNL     1      -3.586  -6.300  -0.295  0.00  0.00    +0.019 A 
ATOM      5  C   UNL     1      -3.073  -6.846  -1.484  0.00  0.00    +0.015 A 
ATOM      6  C   UNL     1      -2.994  -8.198  -1.631  0.00  0.00    +0.047 A 
ATOM      7  C   UNL     1      -3.426  -9.048  -0.613  0.00  0.00    +0.135 A 
ATOM      8  C   UNL     1      -3.953  -8.529   0.560  0.00  0.00    +0.093 A 
ATOM      9  C   UNL     1      -4.048  -7.156   0.724  0.00  0.00    +0.143 A 
ATOM     10  O   UNL     1      -4.601  -6.638   1.847  0.00  0.00    -0.422 OA
ATOM     11  C   UNL     1      -4.188  -5.401   2.216  0.00  0.00    +0.350 A 
ATOM     12  O   UNL     1      -4.019  -5.115   3.387  0.00  0.00    -0.244 OA
BRANCH   2  14
ATOM     13  N   UNL     1      -4.366  -2.526   2.646  0.00  0.00    -0.311 N 
ATOM     14  C   UNL     1      -4.057  -2.967   1.411  0.00  0.00    +0.251 C 
ATOM     15  O   UNL     1      -3.860  -2.171   0.512  0.00  0.00    -0.270 OA
ATOM     16  H   UNL     1      -4.523  -3.160   3.363  0.00  0.00    +0.149 HD
BRANCH  13  17
ATOM     17  C   UNL     1      -4.466  -1.087   2.906  0.00  0.00    +0.107 C 
BRANCH  17  19
ATOM     18  C   UNL     1      -4.810   0.641   4.678  0.00  0.00    +0.009 C 
ATOM     19  C   UNL     1      -4.827  -0.859   4.376  0.00  0.00    -0.000 C 
ATOM     20  C   UNL     1      -6.225  -1.418   4.651  0.00  0.00    +0.009 C 
ENDBRANCH  17  19
ENDBRANCH  13  17
ENDBRANCH   2  14
ENDBRANCH   1   7
BRANCH   1  21
ATOM     21  C   UNL     1      -4.467 -11.094  -0.910  0.00  0.00    +0.350 C 
ATOM     22  O   UNL     1      -5.526 -10.517  -0.997  0.00  0.00    -0.247 OA
BRANCH  21  23
ATOM     23  C   UNL     1      -4.423 -12.599  -0.958  0.00  0.00    +0.349 C 
BRANCH  23  24
ATOM     24  O   UNL     1      -5.749 -13.110  -1.110  0.00  0.00    -0.481 OA
BRANCH  24  25
ATOM     25  C   UNL     1      -5.886 -14.461  -1.171  0.00  0.00    +0.121 A 
ATOM     26  C   UNL     1      -4.769 -15.278  -1.081  0.00  0.00    +0.046 A 
ATOM     27  C   UNL     1      -4.911 -16.651  -1.143  0.00  0.00    +0.008 A 
ATOM     28  C   UNL     1      -6.166 -17.210  -1.295  0.00  0.00    -0.037 A 
ATOM     29  C   UNL     1      -7.281 -16.398  -1.386  0.00  0.00    +0.008 A 
ATOM     30  C   UNL     1      -7.145 -15.025  -1.319  0.00  0.00    +0.046 A 
BRANCH  28  31
ATOM     31  C   UNL     1      -6.319 -18.708  -1.363  0.00  0.00    +0.015 C 
ATOM     32  C   UNL     1      -4.960 -19.370  -1.123  0.00  0.00    +0.021 C 
ATOM     33  C   UNL     1      -7.307 -19.169  -0.290  0.00  0.00    +0.021 C 
BRANCH  31  34
ATOM     34  C   UNL     1      -6.835 -19.099  -2.724  0.00  0.00    -0.037 A 
ATOM     35  C   UNL     1      -6.158 -18.701  -3.861  0.00  0.00    +0.004 A 
ATOM     36  C   UNL     1      -6.632 -19.060  -5.109  0.00  0.00    +0.000 A 
ATOM     37  C   UNL     1      -7.783 -19.818  -5.219  0.00  0.00    +0.000 A 
ATOM     38  C   UNL     1      -8.460 -20.217  -4.082  0.00  0.00    +0.000 A 
ATOM     39  C   UNL     1      -7.983 -19.861  -2.834  0.00  0.00    +0.004 A 
ENDBRANCH  31  34
ENDBRANCH  28  31
ENDBRANCH  24  25
ENDBRANCH  23  24
ENDBRANCH  21  23
ENDBRANCH   1  21
TORSDOF 10
