REMARK  Name = ZINC40317228
REMARK  11 active torsions:
REMARK  status: ('A' for Active; 'I' for Inactive)
REMARK    1  A    between atoms: C_1  and  C_2
REMARK    2  A    between atoms: C_4  and  O_9
REMARK    3  A    between atoms: O_9  and  C_10
REMARK    4  A    between atoms: C_10  and  C_11
REMARK    5  A    between atoms: C_11  and  C_13
REMARK    6  A    between atoms: C_11  and  O_37
REMARK    7  A    between atoms: C_13  and  N_14
REMARK    8  A    between atoms: N_14  and  C_15
REMARK    9  A    between atoms: C_16  and  C_26
REMARK   10  A    between atoms: C_21  and  C_25
REMARK   11  A    between atoms: N_28  and  C_29
REMARK                            x       y       z     vdW  Elec       q    Type
REMARK                         _______ _______ _______ _____ _____    ______ ____
ROOT
ATOM      1  C   UNL     1      -0.143  -8.200  -5.206  0.00  0.00    +0.078 A 
ATOM      2  C   UNL     1      -0.150  -8.897  -6.406  0.00  0.00    +0.068 A 
ATOM      3  C   UNL     1      -0.251 -10.345  -6.330  0.00  0.00    -0.023 A 
ATOM      4  C   UNL     1      -0.325 -10.829  -5.073  0.00  0.00    -0.004 A 
ATOM      5  S   UNL     1      -0.256  -9.399  -4.035  0.00  0.00    -0.078 S 
ATOM      6  C   UNL     1      -0.437 -12.267  -4.667  0.00  0.00    +0.046 C 
ATOM      7  C   UNL     1      -0.835 -13.087  -5.903  0.00  0.00    -0.009 C 
ATOM      8  C   UNL     1       0.069 -12.690  -7.074  0.00  0.00    +0.008 C 
ATOM      9  C   UNL     1      -0.273 -11.272  -7.537  0.00  0.00    +0.037 C 
ATOM     10  C   UNL     1      -0.665 -14.578  -5.605  0.00  0.00    +0.008 C 
ENDROOT
BRANCH   2  11
ATOM     11  C   UNL     1      -0.062  -8.204  -7.692  0.00  0.00    +0.247 C 
ATOM     12  O   UNL     1       1.026  -7.987  -8.193  0.00  0.00    -0.270 OA
ATOM     13  N   UNL     1      -1.185  -7.806  -8.322  0.00  0.00    -0.307 N 
ATOM     14  H   UNL     1      -2.052  -7.979  -7.923  0.00  0.00    +0.149 HD
BRANCH  13  15
ATOM     15  C   UNL     1      -1.096  -7.112  -9.610  0.00  0.00    +0.096 C 
ATOM     16  C   UNL     1      -0.909  -5.604  -9.375  0.00  0.00    +0.046 C 
ATOM     17  C   UNL     1      -1.135  -4.832 -10.697  0.00  0.00    +0.168 C 
ATOM     18  S   UNL     1      -2.303  -5.923 -11.607  0.00  0.00    -0.029 S 
ATOM     19  O   UNL     1      -1.676  -6.383 -12.796  0.00  0.00    -0.174 OA
ATOM     20  O   UNL     1      -3.568  -5.280 -11.688  0.00  0.00    -0.174 OA
ATOM     21  C   UNL     1      -2.414  -7.318 -10.409  0.00  0.00    +0.188 C 
ENDBRANCH  13  15
ENDBRANCH   2  11
BRANCH   1  22
ATOM     22  N   UNL     1      -0.056  -6.834  -5.018  0.00  0.00    -0.335 N 
ATOM     23  H   UNL     1       0.005  -6.242  -5.784  0.00  0.00    +0.147 HD
BRANCH  22  24
ATOM     24  C   UNL     1      -0.057  -6.280  -3.662  0.00  0.00    +0.136 C 
BRANCH  24  25
ATOM     25  C   UNL     1       0.048  -4.755  -3.734  0.00  0.00    +0.169 C 
BRANCH  25  26
ATOM     26  O   UNL     1       1.261  -4.392  -4.396  0.00  0.00    -0.387 OA
ATOM     27  H   UNL     1       2.061  -4.712  -3.957  0.00  0.00    +0.210 HD
ENDBRANCH  25  26
BRANCH  25  28
ATOM     28  C   UNL     1       0.047  -4.176  -2.317  0.00  0.00    +0.261 C 
BRANCH  28  29
ATOM     29  O   UNL     1       0.028  -2.749  -2.386  0.00  0.00    -0.489 OA
BRANCH  29  33
ATOM     30  C   UNL     1      -0.018   1.503   0.010  0.00  0.00    +0.045 C 
ATOM     31  C   UNL     1       0.002  -0.004   0.002  0.00  0.00    -0.029 A 
ATOM     32  C   UNL     1       0.006  -0.688  -1.199  0.00  0.00    +0.050 A 
ATOM     33  C   UNL     1       0.025  -2.075  -1.206  0.00  0.00    +0.121 A 
ATOM     34  C   UNL     1       0.040  -2.773  -0.007  0.00  0.00    +0.047 A 
ATOM     35  C   UNL     1       0.036  -2.086   1.192  0.00  0.00    +0.024 A 
ATOM     36  C   UNL     1       0.023  -0.702   1.196  0.00  0.00    +0.044 A 
ATOM     37 CL   UNL     1       0.025   0.160   2.704  0.00  0.00    -0.083 Cl
ENDBRANCH  29  33
ENDBRANCH  28  29
ENDBRANCH  25  28
ENDBRANCH  24  25
ENDBRANCH  22  24
ENDBRANCH   1  22
TORSDOF 9
