REMARK  Name = ZINC12058683
REMARK  8 active torsions:
REMARK  status: ('A' for Active; 'I' for Inactive)
REMARK    1  A    between atoms: C_1  and  C_2
REMARK    2  A    between atoms: C_3  and  C_15
REMARK    3  A    between atoms: N_6  and  C_7
REMARK    4  A    between atoms: C_15  and  C_17
REMARK    5  A    between atoms: C_15  and  N_50
REMARK    6  A    between atoms: C_18  and  C_19
REMARK    7  A    between atoms: C_18  and  N_50
REMARK    8  A    between atoms: C_22  and  C_25
REMARK                            x       y       z     vdW  Elec       q    Type
REMARK                         _______ _______ _______ _____ _____    ______ ____
ROOT
ATOM      1  N   UNL     1      -0.593   6.048  -1.279  0.00  0.00    +0.386 N 
ATOM      2  H   UNL     1       0.235   5.607  -1.697  0.00  0.00    -0.085 HD
ATOM      3  H   UNL     1      -1.426   5.796  -1.823  0.00  0.00    -0.085 HD
ENDROOT
BRANCH   1   4
ATOM      4  C   UNL     1      -0.425   7.514  -1.299  0.00  0.00    -0.040 C 
ATOM      5  C   UNL     1       1.048   7.862  -1.075  0.00  0.00    -0.009 C 
BRANCH   4   8
ATOM      6  C   UNL     1      -1.234  10.469  -1.933  0.00  0.00    +0.066 C 
ATOM      7  C   UNL     1      -1.219   9.323  -2.912  0.00  0.00    +0.044 A 
ATOM      8  C   UNL     1      -0.868   8.044  -2.638  0.00  0.00    -0.021 A 
ATOM      9  C   UNL     1      -0.985   7.304  -3.819  0.00  0.00    +0.137 A 
ATOM     10  N   UNL     1      -1.401   8.106  -4.766  0.00  0.00    -0.174 NA
ATOM     11  N   UNL     1      -1.552   9.387  -4.220  0.00  0.00    -0.234 N 
BRANCH  11  12
ATOM     12  C   UNL     1      -1.973  10.534  -4.910  0.00  0.00    +0.101 A 
ATOM     13  C   UNL     1      -1.273  11.725  -4.772  0.00  0.00    +0.033 A 
ATOM     14  C   UNL     1      -1.685  12.851  -5.456  0.00  0.00    +0.040 A 
ATOM     15  C   UNL     1      -2.805  12.799  -6.270  0.00  0.00    +0.126 A 
ATOM     16  C   UNL     1      -3.510  11.614  -6.405  0.00  0.00    +0.078 A 
ATOM     17  C   UNL     1      -3.097  10.482  -5.727  0.00  0.00    +0.151 A 
ATOM     18  F   UNL     1      -3.784   9.326  -5.858  0.00  0.00    -0.203 F 
ATOM     19  F   UNL     1      -3.210  13.904  -6.933  0.00  0.00    -0.205 F 
ENDBRANCH  11  12
ENDBRANCH   4   8
ENDBRANCH   1   4
BRANCH   1  20
ATOM     20  C   UNL     1      -0.753   5.570   0.107  0.00  0.00    -0.043 C 
BRANCH  20  21
ATOM     21  C   UNL     1      -0.922   4.073   0.096  0.00  0.00    -0.028 A 
ATOM     22  C   UNL     1       0.180   3.235   0.181  0.00  0.00    +0.116 A 
ATOM     23  N   UNL     1      -0.004   1.926   0.169  0.00  0.00    -0.235 NA
ATOM     24  C   UNL     1      -1.223   1.413   0.076  0.00  0.00    +0.160 A 
ATOM     25  N   UNL     1      -2.296   2.186  -0.012  0.00  0.00    -0.235 NA
ATOM     26  C   UNL     1      -2.183   3.503   0.001  0.00  0.00    +0.116 A 
BRANCH  24  27
ATOM     27  C   UNL     1      -1.390  -0.061   0.065  0.00  0.00    +0.019 A 
ATOM     28  C   UNL     1      -0.273  -0.891   0.145  0.00  0.00    +0.013 A 
ATOM     29  C   UNL     1      -0.434  -2.262   0.140  0.00  0.00    +0.021 A 
ATOM     30  C   UNL     1      -1.701  -2.812   0.044  0.00  0.00    +0.041 A 
ATOM     31  C   UNL     1      -2.812  -1.991  -0.042  0.00  0.00    +0.021 A 
ATOM     32  C   UNL     1      -2.663  -0.620  -0.031  0.00  0.00    +0.013 A 
ATOM     33 CL   UNL     1      -1.896  -4.537   0.031  0.00  0.00    -0.084 Cl
ENDBRANCH  24  27
ENDBRANCH  20  21
ENDBRANCH   1  20
TORSDOF 6
