REMARK  Name = ZINC08847396
REMARK  10 active torsions:
REMARK  status: ('A' for Active; 'I' for Inactive)
REMARK    1  A    between atoms: C_1  and  C_2
REMARK    2  A    between atoms: C_2  and  C_4
REMARK    3  A    between atoms: C_2  and  N_16
REMARK    4  A    between atoms: N_6  and  C_7
REMARK    5  A    between atoms: C_12  and  O_13
REMARK    6  A    between atoms: O_13  and  C_14
REMARK    7  A    between atoms: C_27  and  C_31
REMARK    8  A    between atoms: C_31  and  C_32
REMARK    9  A    between atoms: C_31  and  C_33
REMARK   10  A    between atoms: C_31  and  C_34
REMARK                            x       y       z     vdW  Elec       q    Type
REMARK                         _______ _______ _______ _____ _____    ______ ____
ROOT
ATOM      1  N   UNL     1      -1.373  -0.510   0.040  0.00  0.00    -0.287 N 
ATOM      2  C   UNL     1      -2.215  -0.183  -0.974  0.00  0.00    +0.204 A 
ATOM      3  N   UNL     1      -3.446  -0.620  -0.998  0.00  0.00    -0.230 NA
ATOM      4  C   UNL     1      -3.917  -1.390  -0.021  0.00  0.00    +0.116 A 
ATOM      5  C   UNL     1      -3.124  -1.776   1.071  0.00  0.00    +0.076 A 
ATOM      6  C   UNL     1      -1.777  -1.285   1.063  0.00  0.00    +0.263 A 
ATOM      7  O   UNL     1      -1.011  -1.565   1.969  0.00  0.00    -0.267 OA
ATOM      8  C   UNL     1      -3.777  -2.623   2.068  0.00  0.00    -0.023 A 
ATOM      9  C   UNL     1      -5.067  -2.951   1.843  0.00  0.00    -0.004 A 
ATOM     10  S   UNL     1      -5.481  -2.160   0.312  0.00  0.00    -0.073 S 
ATOM     11  C   UNL     1      -5.952  -3.799   2.705  0.00  0.00    +0.046 C 
ATOM     12  C   UNL     1      -5.291  -3.944   4.083  0.00  0.00    -0.000 C 
ATOM     13  C   UNL     1      -3.819  -4.319   3.884  0.00  0.00    +0.009 C 
ATOM     14  C   UNL     1      -3.051  -3.127   3.313  0.00  0.00    +0.037 C 
ENDROOT
BRANCH  12  15
ATOM     15  C   UNL     1      -5.998  -5.043   4.878  0.00  0.00    -0.035 C 
ATOM     16  C   UNL     1      -5.892  -6.368   4.122  0.00  0.00    +0.011 C 
ATOM     17  C   UNL     1      -5.337  -5.185   6.251  0.00  0.00    +0.011 C 
ATOM     18  C   UNL     1      -7.472  -4.674   5.058  0.00  0.00    +0.011 C 
ENDBRANCH  12  15
BRANCH   1  20
ATOM     19  C   UNL     1       0.715  -0.508  -1.233  0.00  0.00    +0.041 C 
ATOM     20  C   UNL     1       0.001  -0.004   0.023  0.00  0.00    +0.174 C 
BRANCH  20  21
ATOM     21  C   UNL     1      -0.019   1.503   0.018  0.00  0.00    +0.240 C 
ATOM     22  O   UNL     1      -1.077   2.096   0.024  0.00  0.00    -0.273 OA
ATOM     23  N   UNL     1       1.139   2.192   0.003  0.00  0.00    -0.281 N 
ATOM     24  H   UNL     1       1.985   1.721   0.060  0.00  0.00    +0.155 HD
BRANCH  23  25
ATOM     25  C   UNL     1       1.122   3.590  -0.095  0.00  0.00    +0.077 A 
ATOM     26  C   UNL     1       0.106   4.317   0.509  0.00  0.00    +0.047 A 
ATOM     27  C   UNL     1       0.091   5.696   0.411  0.00  0.00    +0.043 A 
ATOM     28  C   UNL     1       1.087   6.354  -0.289  0.00  0.00    +0.024 A 
ATOM     29  C   UNL     1       2.102   5.635  -0.893  0.00  0.00    +0.049 A 
ATOM     30  C   UNL     1       2.127   4.254  -0.795  0.00  0.00    +0.141 A 
ATOM     31 CL   UNL     1      -1.180   6.604   1.167  0.00  0.00    -0.083 Cl
BRANCH  30  32
ATOM     32  O   UNL     1       3.128   3.546  -1.384  0.00  0.00    -0.493 OA
ATOM     33  C   UNL     1       4.125   4.293  -2.085  0.00  0.00    +0.277 C 
ENDBRANCH  30  32
ENDBRANCH  23  25
ENDBRANCH  20  21
ENDBRANCH   1  20
TORSDOF 5
