REMARK  Name = ZINC08951349
REMARK  8 active torsions:
REMARK  status: ('A' for Active; 'I' for Inactive)
REMARK    1  A    between atoms: C_1  and  C_2
REMARK    2  A    between atoms: N_4  and  C_26
REMARK    3  A    between atoms: C_7  and  C_8
REMARK    4  A    between atoms: N_9  and  C_10
REMARK    5  A    between atoms: C_10  and  C_11
REMARK    6  A    between atoms: C_11  and  N_60
REMARK    7  A    between atoms: C_17  and  C_19
REMARK    8  A    between atoms: C_29  and  N_32
REMARK                            x       y       z     vdW  Elec       q    Type
REMARK                         _______ _______ _______ _____ _____    ______ ____
ROOT
ATOM      1  C   UNL     1      -7.116   2.274  -3.646  0.00  0.00    +0.096 C 
ATOM      2  N   UNL     1      -5.983   1.561  -3.482  0.00  0.00    -0.297 NA
ENDROOT
BRANCH   1   9
ATOM      3  C   UNL     1      -9.877   3.783  -4.265  0.00  0.00    +0.063 C 
ATOM      4  C   UNL     1      -9.282   2.595  -4.975  0.00  0.00    +0.052 C 
ATOM      5  N   UNL     1      -9.801   1.966  -5.985  0.00  0.00    -0.181 NA
ATOM      6  N   UNL     1      -8.987   0.911  -6.398  0.00  0.00    -0.160 N 
ATOM      7  C   UNL     1      -7.882   0.849  -5.629  0.00  0.00    +0.253 C 
ATOM      8  O   UNL     1      -6.966   0.050  -5.724  0.00  0.00    -0.272 OA
ATOM      9  C   UNL     1      -8.007   1.937  -4.651  0.00  0.00    +0.163 C 
BRANCH   6  10
ATOM     10  C   UNL     1      -9.274   0.047  -7.462  0.00  0.00    +0.060 A 
ATOM     11  C   UNL     1      -8.386  -0.969  -7.792  0.00  0.00    +0.028 A 
ATOM     12  C   UNL     1      -8.673  -1.823  -8.839  0.00  0.00    +0.034 A 
ATOM     13  C   UNL     1      -9.838  -1.661  -9.565  0.00  0.00    +0.126 A 
ATOM     14  C   UNL     1     -10.722  -0.647  -9.243  0.00  0.00    +0.034 A 
ATOM     15  C   UNL     1     -10.443   0.207  -8.194  0.00  0.00    +0.028 A 
BRANCH  13  16
ATOM     16  N   UNL     1     -10.141  -2.574 -10.690  0.00  0.00    +0.056 N 
ATOM     17  O   UNL     1     -11.167  -2.432 -11.331  0.00  0.00    -0.126 OA
ATOM     18  O   UNL     1      -9.363  -3.467 -10.975  0.00  0.00    -0.126 OA
ENDBRANCH  13  16
ENDBRANCH   6  10
ENDBRANCH   1   9
BRANCH   2  19
ATOM     19  C   UNL     1      -5.040   1.918  -2.419  0.00  0.00    +0.122 C 
BRANCH  19  20
ATOM     20  C   UNL     1      -3.848   0.959  -2.452  0.00  0.00    -0.055 C 
BRANCH  20  28
ATOM     21  C   UNL     1      -1.869   0.285  -1.231  0.00  0.00    -0.059 C 
ATOM     22  C   UNL     1      -0.806   0.775  -0.242  0.00  0.00    +0.089 C 
ATOM     23  N   UNL     1      -1.473   1.179   1.005  0.00  0.00    -0.301 N 
ATOM     24  C   UNL     1      -2.614   2.104   0.915  0.00  0.00    +0.089 C 
ATOM     25  C   UNL     1      -3.606   1.561  -0.119  0.00  0.00    -0.059 C 
ATOM     26  C   UNL     1      -1.053   0.710   2.197  0.00  0.00    +0.246 C 
ATOM     27  O   UNL     1      -0.182  -0.136   2.244  0.00  0.00    -0.270 OA
ATOM     28  N   UNL     1      -2.890   1.343  -1.395  0.00  0.00    +0.383 N 
ATOM     29  H   UNL     1      -2.423   2.215  -1.668  0.00  0.00    -0.082 HD
BRANCH  26  30
ATOM     30  C   UNL     1      -1.652   1.226   3.445  0.00  0.00    +0.037 A 
ATOM     31  C   UNL     1      -1.952   2.584   3.570  0.00  0.00    +0.016 A 
ATOM     32  C   UNL     1      -2.516   3.058   4.734  0.00  0.00    +0.039 A 
ATOM     33  C   UNL     1      -2.774   2.192   5.786  0.00  0.00    +0.123 A 
ATOM     34  C   UNL     1      -2.472   0.844   5.670  0.00  0.00    +0.039 A 
ATOM     35  C   UNL     1      -1.914   0.358   4.507  0.00  0.00    +0.016 A 
ATOM     36  F   UNL     1      -3.321   2.663   6.928  0.00  0.00    -0.205 F 
ENDBRANCH  26  30
ENDBRANCH  20  28
ENDBRANCH  19  20
ENDBRANCH   2  19
TORSDOF 7
