REMARK  Name = ZINC16226453
REMARK  7 active torsions:
REMARK  status: ('A' for Active; 'I' for Inactive)
REMARK    1  A    between atoms: C_1  and  O_2
REMARK    2  A    between atoms: O_2  and  C_3
REMARK    3  A    between atoms: C_8  and  C_9
REMARK    4  A    between atoms: C_10  and  C_11
REMARK    5  A    between atoms: N_16  and  C_19
REMARK    6  A    between atoms: C_22  and  C_28
REMARK    7  A    between atoms: C_24  and  N_25
REMARK                            x       y       z     vdW  Elec       q    Type
REMARK                         _______ _______ _______ _____ _____    ______ ____
ROOT
ATOM      1  C   UNL     1       4.684  -2.264  -0.126  0.00  0.00    +0.240 C 
ATOM      2  O   UNL     1       4.815  -2.827  -1.198  0.00  0.00    -0.271 OA
ATOM      3  N   UNL     1       4.223  -0.999  -0.081  0.00  0.00    -0.295 N 
ATOM      4  C   UNL     1       3.949  -0.341   1.205  0.00  0.00    +0.127 C 
ATOM      5  C   UNL     1       2.533   0.244   1.161  0.00  0.00    +0.124 C 
ATOM      6  N   UNL     1       2.400   1.107  -0.020  0.00  0.00    -0.325 N 
ATOM      7  C   UNL     1       2.563   0.341  -1.262  0.00  0.00    +0.124 C 
ATOM      8  C   UNL     1       3.981  -0.239  -1.317  0.00  0.00    +0.127 C 
ENDROOT
BRANCH   6   9
ATOM      9  C   UNL     1       1.179   1.786  -0.008  0.00  0.00    +0.060 A 
ATOM     10  C   UNL     1      -0.014   1.074  -0.006  0.00  0.00    +0.026 A 
ATOM     11  C   UNL     1      -1.219   1.749  -0.001  0.00  0.00    +0.014 A 
ATOM     12  C   UNL     1      -1.239   3.132   0.015  0.00  0.00    +0.057 A 
ATOM     13  C   UNL     1      -0.053   3.844   0.013  0.00  0.00    +0.047 A 
ATOM     14  C   UNL     1       1.155   3.175   0.002  0.00  0.00    +0.148 A 
BRANCH  12  15
ATOM     15  C   UNL     1      -2.556   3.865   0.027  0.00  0.00    +0.417 C 
ATOM     16  F   UNL     1      -2.970   4.100  -1.288  0.00  0.00    -0.166 F 
ATOM     17  F   UNL     1      -3.515   3.089   0.686  0.00  0.00    -0.166 F 
ATOM     18  F   UNL     1      -2.404   5.085   0.694  0.00  0.00    -0.166 F 
ENDBRANCH  12  15
BRANCH  14  19
ATOM     19  N   UNL     1       2.424   3.938   0.001  0.00  0.00    +0.058 N 
ATOM     20  O   UNL     1       2.402   5.156   0.009  0.00  0.00    -0.126 OA
ATOM     21  O   UNL     1       3.489   3.348  -0.009  0.00  0.00    -0.126 OA
ENDBRANCH  14  19
ENDBRANCH   6   9
BRANCH   1  23
ATOM     22  C   UNL     1       5.584  -4.191   1.063  0.00  0.00    +0.016 C 
ATOM     23  C   UNL     1       5.028  -2.962   1.113  0.00  0.00    +0.068 C 
BRANCH  22  29
ATOM     24  C   UNL     1       6.502  -6.173   2.262  0.00  0.00    +0.127 A 
ATOM     25  C   UNL     1       6.828  -6.822   3.442  0.00  0.00    +0.047 A 
ATOM     26  C   UNL     1       6.580  -6.215   4.658  0.00  0.00    +0.019 A 
ATOM     27  C   UNL     1       6.009  -4.953   4.710  0.00  0.00    +0.019 A 
ATOM     28  C   UNL     1       5.683  -4.289   3.547  0.00  0.00    +0.026 A 
ATOM     29  C   UNL     1       5.929  -4.892   2.308  0.00  0.00    +0.018 A 
ATOM     30 BR   UNL     1       5.677  -4.138   6.383  0.00  0.00    -0.050 Br
BRANCH  24  32
ATOM     31  C   UNL     1       7.325  -8.073   1.099  0.00  0.00    +0.277 C 
ATOM     32  O   UNL     1       6.740  -6.770   1.067  0.00  0.00    -0.495 OA
ENDBRANCH  24  32
ENDBRANCH  22  29
ENDBRANCH   1  23
TORSDOF 6
