REMARK  Name = ZINC20929313
REMARK  8 active torsions:
REMARK  status: ('A' for Active; 'I' for Inactive)
REMARK    1  A    between atoms: C_1  and  C_2
REMARK    2  A    between atoms: C_5  and  N_8
REMARK    3  A    between atoms: N_12  and  S_26
REMARK    4  A    between atoms: C_14  and  C_15
REMARK    5  A    between atoms: C_14  and  C_16
REMARK    6  A    between atoms: N_18  and  C_19
REMARK    7  A    between atoms: S_26  and  C_29
REMARK    8  A    between atoms: C_32  and  C_35
REMARK                            x       y       z     vdW  Elec       q    Type
REMARK                         _______ _______ _______ _____ _____    ______ ____
ROOT
ATOM      1  N   UNL     1      -2.275   5.284   4.549  0.00  0.00    -0.255 N 
ATOM      2  C   UNL     1      -2.968   6.421   4.630  0.00  0.00    +0.236 C 
ATOM      3  O   UNL     1      -2.367   7.449   4.857  0.00  0.00    -0.274 OA
ATOM      4  C   UNL     1      -4.460   6.486   4.450  0.00  0.00    +0.205 C 
ATOM      5  N   UNL     1      -4.928   5.209   3.890  0.00  0.00    -0.165 NA
ATOM      6  C   UNL     1      -4.353   3.974   4.451  0.00  0.00    +0.145 C 
ATOM      7  C   UNL     1      -2.845   3.991   4.194  0.00  0.00    +0.129 C 
ATOM      8  C   UNL     1      -2.179   2.900   5.035  0.00  0.00    +0.043 C 
ENDROOT
BRANCH   1  13
ATOM      9  C   UNL     1       3.283   5.498   5.667  0.00  0.00    +0.044 C 
ATOM     10  C   UNL     1       1.807   5.442   5.370  0.00  0.00    -0.050 A 
ATOM     11  C   UNL     1       1.310   6.037   4.225  0.00  0.00    +0.005 A 
ATOM     12  C   UNL     1      -0.043   5.986   3.950  0.00  0.00    +0.024 A 
ATOM     13  C   UNL     1      -0.904   5.337   4.825  0.00  0.00    +0.037 A 
ATOM     14  C   UNL     1      -0.403   4.745   5.977  0.00  0.00    +0.024 A 
ATOM     15  C   UNL     1       0.952   4.794   6.243  0.00  0.00    +0.005 A 
ENDBRANCH   1  13
BRANCH   7  16
ATOM     16  C   UNL     1      -2.587   3.720   2.734  0.00  0.00    +0.238 C 
ATOM     17  O   UNL     1      -3.443   3.194   2.055  0.00  0.00    -0.273 OA
ATOM     18  N   UNL     1      -1.405   4.061   2.184  0.00  0.00    -0.311 N 
ATOM     19  H   UNL     1      -0.600   4.464   2.816  0.00  0.00    +0.149 HD
BRANCH  18  20
ATOM     20  C   UNL     1      -1.193   3.897   0.744  0.00  0.00    +0.073 C 
ATOM     21  C   UNL     1      -0.721   2.457   0.472  0.00  0.00    +0.022 C 
ATOM     22  C   UNL     1      -0.063   2.294  -0.912  0.00  0.00    +0.002 C 
ATOM     23  C   UNL     1      -0.803   3.037  -1.990  0.00  0.00    +0.000 C 
ATOM     24  C   UNL     1      -0.154   4.425  -2.163  0.00  0.00    +0.000 C 
ATOM     25  C   UNL     1      -0.590   5.372  -1.148  0.00  0.00    +0.002 C 
ATOM     26  C   UNL     1      -0.201   4.927   0.277  0.00  0.00    +0.022 C 
ENDBRANCH  18  20
ENDBRANCH   7  16
BRANCH   5  27
ATOM     27  S   UNL     1      -6.056   5.161   2.679  0.00  0.00    +0.061 S 
ATOM     28  O   UNL     1      -5.889   6.351   1.921  0.00  0.00    -0.153 OA
ATOM     29  O   UNL     1      -5.972   3.868   2.096  0.00  0.00    -0.153 OA
BRANCH  27  30
ATOM     30  C   UNL     1      -7.642   5.268   3.440  0.00  0.00    +0.106 A 
ATOM     31  C   UNL     1      -8.261   4.126   3.912  0.00  0.00    +0.029 A 
ATOM     32  C   UNL     1      -9.503   4.210   4.513  0.00  0.00    +0.005 A 
ATOM     33  C   UNL     1     -10.131   5.436   4.633  0.00  0.00    -0.050 A 
ATOM     34  C   UNL     1      -9.514   6.578   4.157  0.00  0.00    +0.005 A 
ATOM     35  C   UNL     1      -8.270   6.494   3.560  0.00  0.00    +0.029 A 
ATOM     36  C   UNL     1     -11.487   5.527   5.283  0.00  0.00    +0.044 C 
ENDBRANCH  27  30
ENDBRANCH   5  27
TORSDOF 5
