REMARK  Name = ZINC00646958
REMARK  5 active torsions:
REMARK  status: ('A' for Active; 'I' for Inactive)
REMARK    1  A    between atoms: C_3  and  C_6
REMARK    2  A    between atoms: C_9  and  C_32
REMARK    3  A    between atoms: C_14  and  C_16
REMARK    4  A    between atoms: N_18  and  C_19
REMARK    5  A    between atoms: C_20  and  C_28
REMARK                            x       y       z     vdW  Elec       q    Type
REMARK                         _______ _______ _______ _____ _____    ______ ____
ROOT
ATOM      1  C   UNL     1      -7.478   5.103   0.494  0.00  0.00    +0.140 C 
ATOM      2  C   UNL     1      -6.744   6.175  -0.319  0.00  0.00    +0.066 C 
ATOM      3  C   UNL     1      -5.256   6.156   0.060  0.00  0.00    +0.215 C 
ATOM      4  N   UNL     1      -4.809   4.758   0.052  0.00  0.00    -0.237 N 
ATOM      5  C   UNL     1      -5.650   3.686   0.051  0.00  0.00    +0.133 A 
ATOM      6  C   UNL     1      -4.890   2.565   0.041  0.00  0.00    +0.089 A 
ATOM      7  C   UNL     1      -3.535   2.964   0.036  0.00  0.00    +0.163 A 
ATOM      8  N   UNL     1      -3.496   4.284   0.049  0.00  0.00    -0.163 NA
ATOM      9 BR   UNL     1      -5.528   0.784   0.036  0.00  0.00    -0.044 Br
ATOM     10  N   UNL     1      -7.042   3.768   0.060  0.00  0.00    -0.318 N 
ATOM     11  H   UNL     1      -7.423   3.540  -0.846  0.00  0.00    +0.148 HD
ENDROOT
BRANCH   1  14
ATOM     12  C   UNL     1      -7.274   5.827   4.102  0.00  0.00    +0.041 A 
ATOM     13  C   UNL     1      -7.955   5.882   2.864  0.00  0.00    +0.046 A 
ATOM     14  C   UNL     1      -7.163   5.282   1.957  0.00  0.00    +0.125 A 
ATOM     15  O   UNL     1      -6.049   4.863   2.578  0.00  0.00    -0.466 OA
ATOM     16  C   UNL     1      -6.108   5.196   3.878  0.00  0.00    +0.195 A 
ENDBRANCH   1  14
BRANCH   7  17
ATOM     17  C   UNL     1      -2.366   2.062   0.025  0.00  0.00    +0.270 C 
ATOM     18  O   UNL     1      -2.528   0.857   0.020  0.00  0.00    -0.268 OA
ATOM     19  N   UNL     1      -1.120   2.575   0.022  0.00  0.00    -0.274 N 
ATOM     20  H   UNL     1      -0.991   3.537   0.026  0.00  0.00    +0.156 HD
BRANCH  19  21
ATOM     21  C   UNL     1      -0.021   1.728   0.011  0.00  0.00    +0.090 A 
ATOM     22  C   UNL     1       1.325   2.063   0.001  0.00  0.00    +0.084 A 
ATOM     23  C   UNL     1       2.287   0.975  -0.015  0.00  0.00    -0.018 A 
ATOM     24  C   UNL     1       1.753  -0.266  -0.017  0.00  0.00    -0.004 A 
ATOM     25  S   UNL     1       0.002  -0.004   0.002  0.00  0.00    -0.077 S 
ATOM     26  C   UNL     1       2.493  -1.568  -0.033  0.00  0.00    +0.043 C 
ATOM     27  C   UNL     1       3.951  -1.290  -0.425  0.00  0.00    +0.005 C 
ATOM     28  C   UNL     1       4.473  -0.120   0.414  0.00  0.00    +0.005 C 
ATOM     29  C   UNL     1       3.797   1.179  -0.028  0.00  0.00    +0.037 C 
BRANCH  22  30
ATOM     30  C   UNL     1       1.750   3.430   0.004  0.00  0.00    +0.102 C 
ATOM     31  N   UNL     1       2.087   4.515   0.007  0.00  0.00    -0.191 NA
ENDBRANCH  22  30
ENDBRANCH  19  21
ENDBRANCH   7  17
BRANCH   3  32
ATOM     32  C   UNL     1      -4.452   6.964  -0.960  0.00  0.00    +0.412 C 
ATOM     33  F   UNL     1      -4.643   6.425  -2.237  0.00  0.00    -0.168 F 
ATOM     34  F   UNL     1      -4.883   8.294  -0.947  0.00  0.00    -0.168 F 
ATOM     35  F   UNL     1      -3.093   6.911  -0.630  0.00  0.00    -0.168 F 
ENDBRANCH   3  32
TORSDOF 5
