REMARK  Name = ZINC35779145
REMARK  19 active torsions:
REMARK  status: ('A' for Active; 'I' for Inactive)
REMARK    1  A    between atoms: C_1  and  C_2
REMARK    2  A    between atoms: C_5  and  O_9
REMARK    3  A    between atoms: C_6  and  C_8
REMARK    4  A    between atoms: O_9  and  C_10
REMARK    5  A    between atoms: C_10  and  C_11
REMARK    6  A    between atoms: C_21  and  C_23
REMARK    7  A    between atoms: C_23  and  N_24
REMARK    8  A    between atoms: N_24  and  C_25
REMARK    9  A    between atoms: N_24  and  C_34
REMARK   10  A    between atoms: C_25  and  C_26
REMARK   11  A    between atoms: C_26  and  C_28
REMARK   12  A    between atoms: C_26  and  O_33
REMARK   13  A    between atoms: C_28  and  O_29
REMARK   14  A    between atoms: O_29  and  C_30
REMARK   15  A    between atoms: C_30  and  C_31
REMARK   16  A    between atoms: C_30  and  C_32
REMARK   17  A    between atoms: C_34  and  C_35
REMARK   18  A    between atoms: C_35  and  C_36
REMARK   19  A    between atoms: C_35  and  C_37
REMARK                            x       y       z     vdW  Elec       q    Type
REMARK                         _______ _______ _______ _____ _____    ______ ____
ROOT
ATOM      1  C   UNL     1      -0.054  -6.720  -0.923  0.00  0.00    +0.144 C 
ATOM      2  C   UNL     1      -1.142  -7.286  -0.011  0.00  0.00    -0.014 A 
ATOM      3  C   UNL     1      -2.487  -7.342  -0.371  0.00  0.00    +0.013 A 
ATOM      4  C   UNL     1      -3.397  -7.853   0.489  0.00  0.00    +0.046 A 
ATOM      5  S   UNL     1      -2.376  -8.293   1.887  0.00  0.00    -0.101 S 
ATOM      6  C   UNL     1      -0.819  -7.767   1.220  0.00  0.00    -0.004 A 
ATOM      7  C   UNL     1       0.533  -7.837   1.852  0.00  0.00    +0.061 C 
ATOM      8  C   UNL     1       1.488  -6.915   1.078  0.00  0.00    +0.113 C 
ATOM      9  N   UNL     1       1.248  -7.104  -0.361  0.00  0.00    -0.292 N 
ATOM     10  C   UNL     1       2.208  -7.622  -1.153  0.00  0.00    +0.200 C 
ATOM     11  O   UNL     1       1.999  -7.775  -2.338  0.00  0.00    -0.278 OA
ENDROOT
BRANCH   1  12
ATOM     12  C   UNL     1      -0.166  -5.195  -0.978  0.00  0.00    +0.256 C 
BRANCH  12  13
ATOM     13  O   UNL     1      -0.143  -4.667   0.350  0.00  0.00    -0.490 OA
BRANCH  13  18
ATOM     14  C   UNL     1      -0.521   0.927   0.885  0.00  0.00    +0.044 C 
ATOM     15  C   UNL     1      -0.419  -0.570   0.742  0.00  0.00    -0.050 A 
ATOM     16  C   UNL     1      -0.435  -1.146  -0.516  0.00  0.00    +0.007 A 
ATOM     17  C   UNL     1      -0.343  -2.517  -0.649  0.00  0.00    +0.046 A 
ATOM     18  C   UNL     1      -0.233  -3.318   0.479  0.00  0.00    +0.124 A 
ATOM     19  C   UNL     1      -0.217  -2.737   1.739  0.00  0.00    -0.009 A 
ATOM     20  C   UNL     1      -0.305  -1.365   1.867  0.00  0.00    +0.010 A 
ATOM     21  C   UNL     1      -0.099  -3.604   2.966  0.00  0.00    +0.047 C 
ENDBRANCH  13  18
ENDBRANCH  12  13
ENDBRANCH   1  12
BRANCH  10  22
ATOM     22  C   UNL     1       3.540  -8.012  -0.566  0.00  0.00    +0.019 C 
BRANCH  22  23
ATOM     23  N   UNL     1       4.404  -8.546  -1.626  0.00  0.00    +0.387 N 
ATOM     24  H   UNL     1       3.930  -9.302  -2.098  0.00  0.00    -0.081 HD
BRANCH  23  25
ATOM     25  C   UNL     1       5.653  -9.046  -1.034  0.00  0.00    -0.044 C 
BRANCH  25  26
ATOM     26  C   UNL     1       5.354 -10.280  -0.180  0.00  0.00    +0.124 C 
BRANCH  26  27
ATOM     27  O   UNL     1       4.603  -9.891   0.972  0.00  0.00    -0.391 OA
ATOM     28  H   UNL     1       5.056  -9.253   1.540  0.00  0.00    +0.210 HD
ENDBRANCH  26  27
BRANCH  26  29
ATOM     29  C   UNL     1       6.669 -10.924   0.263  0.00  0.00    +0.189 C 
BRANCH  29  30
ATOM     30  O   UNL     1       6.392 -12.139   0.962  0.00  0.00    -0.375 OA
BRANCH  30  31
ATOM     31  C   UNL     1       7.559 -12.825   1.421  0.00  0.00    +0.112 C 
ATOM     32  C   UNL     1       7.914 -12.340   2.828  0.00  0.00    +0.037 C 
ATOM     33  C   UNL     1       7.287 -14.330   1.453  0.00  0.00    +0.037 C 
ENDBRANCH  30  31
ENDBRANCH  29  30
ENDBRANCH  26  29
ENDBRANCH  25  26
ENDBRANCH  23  25
BRANCH  23  34
ATOM     34  C   UNL     1       4.712  -7.482  -2.591  0.00  0.00    -0.075 C 
BRANCH  34  35
ATOM     35  C   UNL     1       5.486  -8.072  -3.771  0.00  0.00    -0.034 C 
ATOM     36  C   UNL     1       4.600  -9.074  -4.514  0.00  0.00    +0.005 C 
ATOM     37  C   UNL     1       5.895  -6.948  -4.725  0.00  0.00    +0.005 C 
ENDBRANCH  34  35
ENDBRANCH  23  34
ENDBRANCH  22  23
ENDBRANCH  10  22
TORSDOF 13
