REMARK  Name = ZINC59293539
REMARK  12 active torsions:
REMARK  status: ('A' for Active; 'I' for Inactive)
REMARK    1  A    between atoms: C_1  and  C_2
REMARK    2  A    between atoms: C_2  and  C_3
REMARK    3  A    between atoms: C_3  and  N_4
REMARK    4  A    between atoms: C_5  and  C_7
REMARK    5  A    between atoms: C_13  and  C_14
REMARK    6  A    between atoms: C_17  and  O_20
REMARK    7  A    between atoms: O_20  and  C_21
REMARK    8  A    between atoms: C_23  and  N_37
REMARK    9  A    between atoms: C_24  and  C_35
REMARK   10  A    between atoms: C_25  and  C_27
REMARK   11  A    between atoms: C_30  and  O_33
REMARK   12  A    between atoms: O_33  and  C_34
REMARK                            x       y       z     vdW  Elec       q    Type
REMARK                         _______ _______ _______ _____ _____    ______ ____
ROOT
ATOM      1  C   UNL     1       1.606  -3.996  -2.068  0.00  0.00    +0.057 C 
ATOM      2  C   UNL     1       2.291  -4.620  -3.063  0.00  0.00    +0.099 A 
ATOM      3  N   UNL     1       2.678  -5.945  -3.029  0.00  0.00    -0.257 N 
ATOM      4  C   UNL     1       3.353  -6.426  -4.092  0.00  0.00    +0.271 A 
ATOM      5  O   UNL     1       3.721  -7.586  -4.122  0.00  0.00    -0.266 OA
ATOM      6  C   UNL     1       3.632  -5.521  -5.211  0.00  0.00    +0.079 A 
ATOM      7  C   UNL     1       4.286  -5.766  -6.376  0.00  0.00    +0.028 C 
ATOM      8  S   UNL     1       2.882  -4.009  -4.628  0.00  0.00    -0.065 S 
ATOM      9  C   UNL     1       2.357  -6.720  -1.908  0.00  0.00    +0.118 C 
ATOM     10  C   UNL     1       1.682  -6.247  -0.838  0.00  0.00    +0.079 C 
ATOM     11  C   UNL     1       1.244  -4.797  -0.833  0.00  0.00    +0.100 C 
ENDROOT
BRANCH   7  12
ATOM     12  C   UNL     1       4.669  -7.139  -6.728  0.00  0.00    -0.024 A 
ATOM     13  C   UNL     1       3.773  -8.194  -6.517  0.00  0.00    +0.011 A 
ATOM     14  C   UNL     1       4.138  -9.480  -6.849  0.00  0.00    +0.046 A 
ATOM     15  C   UNL     1       5.393  -9.731  -7.392  0.00  0.00    +0.120 A 
ATOM     16  C   UNL     1       6.286  -8.687  -7.603  0.00  0.00    +0.046 A 
ATOM     17  C   UNL     1       5.930  -7.397  -7.280  0.00  0.00    +0.011 A 
BRANCH  15  18
ATOM     18  O   UNL     1       5.748 -11.000  -7.717  0.00  0.00    -0.495 OA
ATOM     19  C   UNL     1       7.052 -11.188  -8.270  0.00  0.00    +0.277 C 
ENDBRANCH  15  18
ENDBRANCH   7  12
BRANCH  11  20
ATOM     20  C   UNL     1      -0.254  -4.761  -0.671  0.00  0.00    -0.034 A 
ATOM     21  C   UNL     1      -1.068  -5.269  -1.667  0.00  0.00    +0.008 A 
ATOM     22  C   UNL     1      -2.442  -5.237  -1.521  0.00  0.00    +0.046 A 
ATOM     23  C   UNL     1      -3.004  -4.696  -0.375  0.00  0.00    +0.120 A 
ATOM     24  C   UNL     1      -2.185  -4.187   0.623  0.00  0.00    +0.046 A 
ATOM     25  C   UNL     1      -0.812  -4.226   0.475  0.00  0.00    +0.008 A 
BRANCH  23  26
ATOM     26  O   UNL     1      -4.355  -4.663  -0.229  0.00  0.00    -0.495 OA
ATOM     27  C   UNL     1      -4.864  -4.091   0.977  0.00  0.00    +0.277 C 
ENDBRANCH  23  26
ENDBRANCH  11  20
BRANCH   1  29
ATOM     28  N   UNL     1       0.576  -2.039  -1.180  0.00  0.00    -0.312 N 
ATOM     29  C   UNL     1       1.249  -2.643  -2.179  0.00  0.00    +0.244 C 
ATOM     30  O   UNL     1       1.549  -2.014  -3.180  0.00  0.00    -0.270 OA
ATOM     31  H   UNL     1       0.337  -2.540  -0.384  0.00  0.00    +0.149 HD
BRANCH  28  32
ATOM     32  C   UNL     1       0.203  -0.627  -1.296  0.00  0.00    +0.104 C 
BRANCH  32  34
ATOM     33  C   UNL     1      -0.936   1.282  -0.157  0.00  0.00    +0.005 C 
ATOM     34  C   UNL     1      -0.547  -0.193  -0.036  0.00  0.00    +0.015 C 
ENDBRANCH  32  34
ENDBRANCH  28  32
ENDBRANCH   1  29
BRANCH   9  35
ATOM     35  N   UNL     1       2.752  -8.035  -1.896  0.00  0.00    -0.343 N 
ATOM     36  H   UNL     1       3.541  -8.310  -2.390  0.00  0.00    +0.144 HD
ATOM     37  H   UNL     1       2.242  -8.690  -1.393  0.00  0.00    +0.144 HD
ENDBRANCH   9  35
BRANCH  10  38
ATOM     38  C   UNL     1       1.390  -7.100   0.275  0.00  0.00    +0.099 C 
ATOM     39  N   UNL     1       1.159  -7.777   1.157  0.00  0.00    -0.191 NA
ENDBRANCH  10  38
TORSDOF 9
