REMARK  Name = ZINC14549441
REMARK  6 active torsions:
REMARK  status: ('A' for Active; 'I' for Inactive)
REMARK    1  A    between atoms: C_1  and  C_2
REMARK    2  A    between atoms: C_2  and  C_3
REMARK    3  A    between atoms: C_3  and  C_5
REMARK    4  A    between atoms: C_3  and  O_6
REMARK    5  A    between atoms: O_6  and  C_7
REMARK    6  A    between atoms: C_20  and  C_23
REMARK                            x       y       z     vdW  Elec       q    Type
REMARK                         _______ _______ _______ _____ _____    ______ ____
ROOT
ATOM      1  C   UNL     1       7.134   3.094  -0.474  0.00  0.00    +0.121 A 
ATOM      2  C   UNL     1       7.225   2.647   0.836  0.00  0.00    +0.047 A 
ATOM      3  C   UNL     1       6.437   1.599   1.265  0.00  0.00    +0.027 A 
ATOM      4  C   UNL     1       5.548   0.985   0.392  0.00  0.00    +0.032 A 
ATOM      5  C   UNL     1       5.451   1.448  -0.924  0.00  0.00    -0.016 A 
ATOM      6  C   UNL     1       6.246   2.490  -1.350  0.00  0.00    +0.051 A 
ATOM      7  C   UNL     1       4.471   0.785  -1.811  0.00  0.00    +0.049 C 
ATOM      8  C   UNL     1       4.652   0.732  -3.284  0.00  0.00    -0.023 C 
ATOM      9  C   UNL     1       4.100  -0.386  -3.740  0.00  0.00    -0.030 C 
ATOM     10  C   UNL     1       3.527  -1.198  -2.577  0.00  0.00    +0.033 C 
ATOM     11  C   UNL     1       4.417  -0.724  -1.425  0.00  0.00    +0.029 C 
ATOM     12  C   UNL     1       3.798  -0.764  -0.039  0.00  0.00    +0.106 C 
ATOM     13  N   UNL     1       4.768  -0.088   0.850  0.00  0.00    -0.336 N 
ATOM     14  H   UNL     1       4.867  -0.392   1.766  0.00  0.00    +0.147 HD
ENDROOT
BRANCH  12  15
ATOM     15  C   UNL     1       2.484  -0.026  -0.033  0.00  0.00    -0.012 A 
ATOM     16  C   UNL     1       1.388  -0.541  -0.722  0.00  0.00    -0.012 A 
ATOM     17  C   UNL     1       1.480  -1.755  -1.436  0.00  0.00    +0.009 A 
ATOM     18  C   UNL     1       0.393  -2.228  -2.096  0.00  0.00    +0.001 A 
ATOM     19  C   UNL     1      -0.824  -1.545  -2.091  0.00  0.00    +0.001 A 
ATOM     20  C   UNL     1      -0.981  -0.373  -1.425  0.00  0.00    +0.008 A 
ATOM     21  C   UNL     1       0.109   0.178  -0.717  0.00  0.00    -0.017 A 
ATOM     22  C   UNL     1      -0.017   1.379  -0.022  0.00  0.00    +0.017 A 
ATOM     23  C   UNL     1       1.079   1.894   0.667  0.00  0.00    -0.017 A 
ATOM     24  C   UNL     1       2.358   1.175   0.662  0.00  0.00    -0.012 A 
ATOM     25  C   UNL     1       3.448   1.726   1.370  0.00  0.00    +0.009 A 
ATOM     26  C   UNL     1       3.291   2.898   2.036  0.00  0.00    +0.001 A 
ATOM     27  C   UNL     1       2.074   3.581   2.042  0.00  0.00    +0.001 A 
ATOM     28  C   UNL     1       0.987   3.108   1.381  0.00  0.00    +0.008 A 
ENDBRANCH  12  15
BRANCH   1  29
ATOM     29  O   UNL     1       7.916   4.124  -0.897  0.00  0.00    -0.489 OA
BRANCH  29  30
ATOM     30  C   UNL     1       8.890   4.620   0.022  0.00  0.00    +0.170 C 
ATOM     31  C   UNL     1       8.241   5.651   0.947  0.00  0.00    +0.052 C 
BRANCH  30  33
ATOM     32  C   UNL     1      10.763   4.221  -1.584  0.00  0.00    +0.007 C 
ATOM     33  C   UNL     1      10.034   5.279  -0.752  0.00  0.00    +0.041 C 
ENDBRANCH  30  33
ENDBRANCH  29  30
ENDBRANCH   1  29
TORSDOF 4
