REMARK  Name = ZINC08790119
REMARK  7 active torsions:
REMARK  status: ('A' for Active; 'I' for Inactive)
REMARK    1  A    between atoms: C_1  and  C_2
REMARK    2  A    between atoms: C_16  and  C_18
REMARK    3  A    between atoms: C_18  and  C_19
REMARK    4  A    between atoms: C_22  and  O_25
REMARK    5  A    between atoms: N_28  and  C_31
REMARK    6  A    between atoms: C_31  and  C_32
REMARK    7  A    between atoms: C_32  and  C_33
REMARK                            x       y       z     vdW  Elec       q    Type
REMARK                         _______ _______ _______ _____ _____    ______ ____
ROOT
ATOM      1  C   UNL     1      -2.074  -0.207   7.856  0.00  0.00    +0.047 C 
ATOM      2  C   UNL     1      -1.086  -0.277   6.720  0.00  0.00    -0.011 A 
ATOM      3  C   UNL     1       0.235   0.065   6.936  0.00  0.00    +0.046 A 
ATOM      4  C   UNL     1       1.150   0.002   5.899  0.00  0.00    +0.020 A 
ATOM      5  C   UNL     1       0.738  -0.402   4.641  0.00  0.00    +0.006 A 
ATOM      6  C   UNL     1      -0.578  -0.742   4.422  0.00  0.00    -0.027 A 
ATOM      7  C   UNL     1      -1.507  -0.684   5.457  0.00  0.00    +0.040 A 
ATOM      8  N   UNL     1      -2.767  -1.073   4.997  0.00  0.00    -0.286 N 
ATOM      9  C   UNL     1      -2.753  -1.397   3.690  0.00  0.00    +0.211 C 
ATOM     10  O   UNL     1      -3.697  -1.768   3.026  0.00  0.00    -0.277 OA
ATOM     11  C   UNL     1      -1.338  -1.208   3.213  0.00  0.00    +0.050 C 
ATOM     12  C   UNL     1      -0.760  -2.511   2.649  0.00  0.00    +0.088 C 
ATOM     13  C   UNL     1       0.131  -2.062   1.457  0.00  0.00    +0.073 C 
ATOM     14  C   UNL     1       0.023  -0.522   1.442  0.00  0.00    -0.053 C 
ATOM     15  C   UNL     1       1.529  -2.456   1.879  0.00  0.00    +0.224 C 
ATOM     16  O   UNL     1       2.533  -2.289   1.220  0.00  0.00    -0.275 OA
ATOM     17  N   UNL     1       1.466  -3.018   3.108  0.00  0.00    -0.241 N 
ATOM     18  C   UNL     1       0.234  -3.097   3.626  0.00  0.00    +0.225 C 
ATOM     19  O   UNL     1      -0.042  -3.566   4.709  0.00  0.00    -0.275 OA
ATOM     20 CL   UNL     1       0.750   0.573   8.514  0.00  0.00    -0.083 Cl
ATOM     21  H   UNL     1      -3.560  -1.107   5.555  0.00  0.00    +0.155 HD
ATOM     22  N   UNL     1      -1.242  -0.248   2.127  0.00  0.00    +0.394 N 
ATOM     23  H   UNL     1      -1.245   0.710   2.498  0.00  0.00    -0.083 HD
ATOM     24  H   UNL     1      -2.030  -0.366   1.478  0.00  0.00    -0.083 HD
ENDROOT
BRANCH  14  25
ATOM     25  C   UNL     1       0.002  -0.004   0.002  0.00  0.00    +0.020 C 
BRANCH  25  26
ATOM     26  C   UNL     1      -0.018   1.503   0.010  0.00  0.00    -0.049 A 
ATOM     27  C   UNL     1      -1.226   2.177   0.020  0.00  0.00    +0.007 A 
ATOM     28  C   UNL     1      -1.247   3.558   0.033  0.00  0.00    +0.045 A 
ATOM     29  C   UNL     1      -0.056   4.269   0.026  0.00  0.00    +0.117 A 
ATOM     30  C   UNL     1       1.154   3.591   0.011  0.00  0.00    +0.045 A 
ATOM     31  C   UNL     1       1.170   2.209   0.003  0.00  0.00    +0.007 A 
BRANCH  29  32
ATOM     32  O   UNL     1      -0.074   5.628   0.033  0.00  0.00    -0.507 OA
ATOM     33  H   UNL     1      -0.088   6.026  -0.848  0.00  0.00    +0.292 HD
ENDBRANCH  29  32
ENDBRANCH  25  26
ENDBRANCH  14  25
BRANCH  17  34
ATOM     34  C   UNL     1       2.653  -3.509   3.812  0.00  0.00    +0.121 C 
BRANCH  34  35
ATOM     35  C   UNL     1       2.893  -4.975   3.447  0.00  0.00    +0.054 C 
BRANCH  35  36
ATOM     36  C   UNL     1       4.115  -5.479   4.171  0.00  0.00    -0.046 A 
ATOM     37  C   UNL     1       5.361  -5.374   3.581  0.00  0.00    +0.004 A 
ATOM     38  C   UNL     1       6.482  -5.833   4.246  0.00  0.00    +0.000 A 
ATOM     39  C   UNL     1       6.357  -6.404   5.499  0.00  0.00    +0.000 A 
ATOM     40  C   UNL     1       5.110  -6.514   6.087  0.00  0.00    +0.000 A 
ATOM     41  C   UNL     1       3.990  -6.052   5.423  0.00  0.00    +0.004 A 
ENDBRANCH  35  36
ENDBRANCH  34  35
ENDBRANCH  17  34
TORSDOF 6
