REMARK  Name = ZINC35442673
REMARK  13 active torsions:
REMARK  status: ('A' for Active; 'I' for Inactive)
REMARK    1  A    between atoms: C_1  and  C_2
REMARK    2  A    between atoms: C_4  and  C_29
REMARK    3  A    between atoms: C_6  and  C_26
REMARK    4  A    between atoms: C_9  and  C_11
REMARK    5  A    between atoms: C_11  and  C_12
REMARK    6  A    between atoms: C_15  and  C_17
REMARK    7  A    between atoms: C_20  and  N_23
REMARK    8  A    between atoms: N_23  and  C_24
REMARK    9  A    between atoms: N_23  and  C_25
REMARK   10  A    between atoms: C_26  and  C_27
REMARK   11  A    between atoms: C_26  and  C_28
REMARK   12  A    between atoms: C_29  and  N_30
REMARK   13  A    between atoms: N_30  and  C_31
REMARK                            x       y       z     vdW  Elec       q    Type
REMARK                         _______ _______ _______ _____ _____    ______ ____
ROOT
ATOM      1  C   UNL     1      -0.164   1.568  -0.393  0.00  0.00    +0.039 C 
ATOM      2  C   UNL     1      -0.053   0.069  -0.280  0.00  0.00    -0.073 C 
ATOM      3  C   UNL     1       0.164  -0.606  -1.363  0.00  0.00    -0.026 C 
ATOM      4  C   UNL     1       0.287  -2.101  -1.410  0.00  0.00    -0.002 C 
ATOM      5  C   UNL     1       0.547  -2.654  -0.007  0.00  0.00    -0.003 C 
ATOM      6  C   UNL     1      -0.484  -2.045   0.952  0.00  0.00    +0.012 C 
ATOM      7  C   UNL     1      -0.195  -0.546   1.081  0.00  0.00    +0.024 C 
ENDROOT
BRANCH   5   8
ATOM      8  C   UNL     1       0.407  -4.177  -0.020  0.00  0.00    -0.014 C 
ATOM      9  C   UNL     1       0.806  -4.738   1.346  0.00  0.00    +0.007 C 
ATOM     10  C   UNL     1      -1.046  -4.553  -0.321  0.00  0.00    +0.007 C 
ENDBRANCH   5   8
BRANCH   7  11
ATOM     11  C   UNL     1       1.101  -0.341   1.868  0.00  0.00    +0.105 C 
BRANCH  11  12
ATOM     12  C   UNL     1       1.311   1.131   2.115  0.00  0.00    +0.218 A 
ATOM     13  N   UNL     1       0.887   1.807   3.146  0.00  0.00    -0.112 NA
ATOM     14  N   UNL     1       1.245   3.037   3.031  0.00  0.00    -0.107 NA
ATOM     15  C   UNL     1       1.916   3.190   1.913  0.00  0.00    +0.248 A 
ATOM     16  O   UNL     1       1.974   1.984   1.314  0.00  0.00    -0.420 OA
BRANCH  15  17
ATOM     17  C   UNL     1       2.502   4.449   1.408  0.00  0.00    +0.039 A 
ATOM     18  C   UNL     1       3.188   4.463   0.192  0.00  0.00    +0.015 A 
ATOM     19  C   UNL     1       3.733   5.638  -0.277  0.00  0.00    +0.024 A 
ATOM     20  C   UNL     1       3.601   6.810   0.460  0.00  0.00    +0.029 A 
ATOM     21  C   UNL     1       2.918   6.799   1.672  0.00  0.00    +0.024 A 
ATOM     22  C   UNL     1       2.365   5.629   2.143  0.00  0.00    +0.015 A 
BRANCH  20  23
ATOM     23  N   UNL     1       4.154   7.997  -0.017  0.00  0.00    -0.336 N 
ATOM     24  C   UNL     1       4.874   8.010  -1.293  0.00  0.00    +0.129 C 
ATOM     25  C   UNL     1       4.016   9.233   0.758  0.00  0.00    +0.129 C 
ENDBRANCH  20  23
ENDBRANCH  15  17
ENDBRANCH  11  12
ENDBRANCH   7  11
BRANCH   4  26
ATOM     26  C   UNL     1       1.450  -2.485  -2.327  0.00  0.00    -0.074 C 
BRANCH  26  27
ATOM     27  N   UNL     1       1.152  -2.060  -3.701  0.00  0.00    +0.381 N 
ATOM     28  H   UNL     1       0.309  -2.515  -4.019  0.00  0.00    -0.086 HD
ATOM     29  H   UNL     1       1.022  -1.059  -3.723  0.00  0.00    -0.086 HD
BRANCH  27  30
ATOM     30  C   UNL     1       2.268  -2.428  -4.581  0.00  0.00    -0.072 C 
ATOM     31  C   UNL     1       3.040  -1.293  -5.257  0.00  0.00    -0.017 C 
ATOM     32  C   UNL     1       2.100  -2.175  -6.081  0.00  0.00    -0.017 C 
ENDBRANCH  27  30
ENDBRANCH  26  27
ENDBRANCH   4  26
TORSDOF 8
