REMARK  Name = ZINC40140647
REMARK  8 active torsions:
REMARK  status: ('A' for Active; 'I' for Inactive)
REMARK    1  A    between atoms: C_1  and  C_2
REMARK    2  A    between atoms: N_9  and  N_10
REMARK    3  A    between atoms: C_11  and  C_13
REMARK    4  A    between atoms: C_16  and  O_19
REMARK    5  A    between atoms: N_22  and  C_23
REMARK    6  A    between atoms: C_23  and  C_24
REMARK    7  A    between atoms: C_24  and  O_25
REMARK    8  A    between atoms: O_25  and  C_26
REMARK                            x       y       z     vdW  Elec       q    Type
REMARK                         _______ _______ _______ _____ _____    ______ ____
ROOT
ATOM      1  C   UNL     1      -0.018   1.503   0.010  0.00  0.00    +0.044 C 
ATOM      2  C   UNL     1       0.002  -0.004   0.002  0.00  0.00    -0.050 A 
ATOM      3  C   UNL     1       0.006  -0.689  -1.201  0.00  0.00    +0.005 A 
ATOM      4  C   UNL     1       0.024  -2.069  -1.225  0.00  0.00    +0.024 A 
ATOM      5  C   UNL     1       0.039  -2.787  -0.034  0.00  0.00    +0.046 A 
ATOM      6  C   UNL     1       0.036  -2.090   1.181  0.00  0.00    +0.029 A 
ATOM      7  C   UNL     1       0.023  -0.700   1.194  0.00  0.00    +0.015 A 
ATOM      8  C   UNL     1       0.055  -3.115   2.251  0.00  0.00    +0.153 C 
ATOM      9  N   UNL     1       0.059  -2.916   3.547  0.00  0.00    -0.174 NA
ATOM     10  C   UNL     1       0.069  -4.409   1.540  0.00  0.00    +0.271 C 
ATOM     11  O   UNL     1       0.087  -5.510   2.057  0.00  0.00    -0.268 OA
ATOM     12  N   UNL     1       0.059  -4.154   0.220  0.00  0.00    -0.262 N 
ENDROOT
BRANCH   9  13
ATOM     13  N   UNL     1       0.078  -4.009   4.423  0.00  0.00    -0.202 N 
ATOM     14  C   UNL     1       0.081  -3.804   5.755  0.00  0.00    +0.263 C 
ATOM     15  O   UNL     1       0.067  -2.672   6.197  0.00  0.00    -0.268 OA
ATOM     16  H   UNL     1       0.089  -4.913   4.071  0.00  0.00    +0.178 HD
BRANCH  14  17
ATOM     17  C   UNL     1       0.102  -4.955   6.678  0.00  0.00    +0.039 A 
ATOM     18  C   UNL     1       0.123  -6.258   6.173  0.00  0.00    +0.016 A 
ATOM     19  C   UNL     1       0.142  -7.330   7.037  0.00  0.00    +0.046 A 
ATOM     20  C   UNL     1       0.139  -7.117   8.411  0.00  0.00    +0.117 A 
ATOM     21  C   UNL     1       0.117  -5.822   8.918  0.00  0.00    +0.046 A 
ATOM     22  C   UNL     1       0.105  -4.745   8.060  0.00  0.00    +0.016 A 
BRANCH  20  23
ATOM     23  O   UNL     1       0.158  -8.175   9.260  0.00  0.00    -0.507 OA
ATOM     24  H   UNL     1       1.046  -8.467   9.505  0.00  0.00    +0.292 HD
ENDBRANCH  20  23
ENDBRANCH  14  17
ENDBRANCH   9  13
BRANCH  12  25
ATOM     25  C   UNL     1       0.067  -5.187  -0.819  0.00  0.00    +0.155 C 
BRANCH  25  26
ATOM     26  C   UNL     1       1.513  -5.527  -1.189  0.00  0.00    +0.248 C 
BRANCH  26  27
ATOM     27  O   UNL     1       2.166  -6.118  -0.064  0.00  0.00    -0.490 OA
BRANCH  27  28
ATOM     28  C   UNL     1       3.464  -6.481  -0.225  0.00  0.00    +0.128 A 
ATOM     29  C   UNL     1       4.093  -6.272  -1.421  0.00  0.00    +0.046 A 
ATOM     30  C   UNL     1       5.424  -6.639  -1.602  0.00  0.00    +0.004 A 
ATOM     31  C   UNL     1       6.137  -7.215  -0.595  0.00  0.00    +0.009 A 
ATOM     32  C   UNL     1       5.527  -7.446   0.649  0.00  0.00    -0.014 A 
ATOM     33  C   UNL     1       4.174  -7.070   0.840  0.00  0.00    +0.024 A 
ATOM     34  C   UNL     1       3.565  -7.297   2.085  0.00  0.00    +0.012 A 
ATOM     35  C   UNL     1       4.282  -7.869   3.091  0.00  0.00    +0.001 A 
ATOM     36  C   UNL     1       5.614  -8.234   2.906  0.00  0.00    +0.001 A 
ATOM     37  C   UNL     1       6.234  -8.039   1.710  0.00  0.00    +0.008 A 
ENDBRANCH  27  28
ENDBRANCH  26  27
ENDBRANCH  25  26
ENDBRANCH  12  25
TORSDOF 7
