REMARK  Name = ZINC38894151
REMARK  11 active torsions:
REMARK  status: ('A' for Active; 'I' for Inactive)
REMARK    1  A    between atoms: C_1  and  C_2
REMARK    2  A    between atoms: C_2  and  C_4
REMARK    3  A    between atoms: C_2  and  N_14
REMARK    4  A    between atoms: C_7  and  C_10
REMARK    5  A    between atoms: C_10  and  C_11
REMARK    6  A    between atoms: C_10  and  C_12
REMARK    7  A    between atoms: C_10  and  C_13
REMARK    8  A    between atoms: C_15  and  C_17
REMARK    9  A    between atoms: N_22  and  C_24
REMARK   10  A    between atoms: C_24  and  C_25
REMARK   11  A    between atoms: C_27  and  C_30
REMARK                            x       y       z     vdW  Elec       q    Type
REMARK                         _______ _______ _______ _____ _____    ______ ____
ROOT
ATOM      1  C   UNL     1      -3.442  -1.177   1.191  0.00  0.00    +0.058 C 
ATOM      2  C   UNL     1      -3.475  -2.579   0.576  0.00  0.00    +0.009 C 
ATOM      3  C   UNL     1      -4.901  -3.131   0.663  0.00  0.00    -0.018 C 
ATOM      4  C   UNL     1      -5.355  -3.128   2.124  0.00  0.00    -0.078 C 
ATOM      5  N   UNL     1      -5.327  -1.757   2.647  0.00  0.00    +0.386 N 
ATOM      6  C   UNL     1      -3.951  -1.246   2.633  0.00  0.00    -0.065 C 
ATOM      7  H   UNL     1      -5.909  -1.167   2.071  0.00  0.00    -0.081 HD
ENDROOT
BRANCH   1   9
ATOM      8  N   UNL     1      -1.372  -0.511   0.012  0.00  0.00    -0.309 N 
ATOM      9  C   UNL     1      -2.029  -0.655   1.181  0.00  0.00    +0.215 C 
ATOM     10  O   UNL     1      -1.481  -0.365   2.224  0.00  0.00    -0.276 OA
ATOM     11  H   UNL     1      -1.810  -0.743  -0.822  0.00  0.00    +0.149 HD
BRANCH   8  13
ATOM     12  C   UNL     1      -0.019   1.526   0.010  0.00  0.00    +0.033 C 
ATOM     13  C   UNL     1       0.002  -0.004   0.002  0.00  0.00    +0.100 C 
BRANCH  13  14
ATOM     14  C   UNL     1       0.707  -0.490  -1.238  0.00  0.00    -0.027 A 
ATOM     15  C   UNL     1       0.038  -0.522  -2.447  0.00  0.00    +0.006 A 
ATOM     16  C   UNL     1       0.685  -0.967  -3.584  0.00  0.00    +0.004 A 
ATOM     17  C   UNL     1       2.002  -1.381  -3.513  0.00  0.00    -0.042 A 
ATOM     18  C   UNL     1       2.672  -1.349  -2.304  0.00  0.00    +0.004 A 
ATOM     19  C   UNL     1       2.026  -0.899  -1.167  0.00  0.00    +0.006 A 
BRANCH  17  20
ATOM     20  C   UNL     1       2.707  -1.868  -4.752  0.00  0.00    -0.013 C 
ATOM     21  C   UNL     1       2.726  -0.753  -5.799  0.00  0.00    +0.015 C 
ATOM     22  C   UNL     1       4.143  -2.263  -4.401  0.00  0.00    +0.015 C 
ATOM     23  C   UNL     1       1.967  -3.084  -5.315  0.00  0.00    +0.015 C 
ENDBRANCH  17  20
ENDBRANCH  13  14
ENDBRANCH   8  13
ENDBRANCH   1   9
BRANCH   5  24
ATOM     24  C   UNL     1      -5.837  -1.748   4.024  0.00  0.00    +0.022 C 
BRANCH  24  25
ATOM     25  C   UNL     1      -7.290  -2.146   4.024  0.00  0.00    +0.211 A 
ATOM     26  N   UNL     1      -7.747  -3.361   4.138  0.00  0.00    -0.193 NA
ATOM     27  C   UNL     1      -9.092  -3.353   4.098  0.00  0.00    +0.202 A 
ATOM     28  N   UNL     1      -9.499  -2.115   3.957  0.00  0.00    -0.056 NA
ATOM     29  O   UNL     1      -8.331  -1.310   3.912  0.00  0.00    -0.340 OA
BRANCH  27  30
ATOM     30  C   UNL     1      -9.968  -4.546   4.198  0.00  0.00    +0.023 A 
ATOM     31  C   UNL     1      -9.408  -5.813   4.352  0.00  0.00    +0.014 A 
ATOM     32  C   UNL     1     -10.226  -6.920   4.445  0.00  0.00    +0.039 A 
ATOM     33  C   UNL     1     -11.603  -6.773   4.385  0.00  0.00    +0.123 A 
ATOM     34  C   UNL     1     -12.164  -5.515   4.231  0.00  0.00    +0.039 A 
ATOM     35  C   UNL     1     -11.353  -4.403   4.143  0.00  0.00    +0.014 A 
ATOM     36  F   UNL     1     -12.400  -7.860   4.476  0.00  0.00    -0.205 F 
ENDBRANCH  27  30
ENDBRANCH  24  25
ENDBRANCH   5  24
TORSDOF 7
