REMARK  Name = ZINC35992860
REMARK  9 active torsions:
REMARK  status: ('A' for Active; 'I' for Inactive)
REMARK    1  A    between atoms: C_1  and  C_2
REMARK    2  A    between atoms: C_2  and  O_3
REMARK    3  A    between atoms: O_3  and  C_4
REMARK    4  A    between atoms: C_4  and  C_6
REMARK    5  A    between atoms: C_7  and  C_21
REMARK    6  A    between atoms: N_8  and  C_20
REMARK    7  A    between atoms: C_12  and  C_14
REMARK    8  A    between atoms: C_21  and  N_22
REMARK    9  A    between atoms: C_29  and  C_31
REMARK                            x       y       z     vdW  Elec       q    Type
REMARK                         _______ _______ _______ _____ _____    ______ ____
ROOT
ATOM      1  C   UNL     1       0.046  -2.415  -4.510  0.00  0.00    +0.076 C 
ATOM      2  C   UNL     1       0.642  -3.426  -3.843  0.00  0.00    +0.010 C 
ATOM      3  N   UNL     1       1.991  -3.623  -3.920  0.00  0.00    -0.264 N 
ATOM      4  C   UNL     1       2.814  -2.851  -4.641  0.00  0.00    +0.307 C 
ATOM      5  O   UNL     1       4.003  -3.104  -4.648  0.00  0.00    -0.252 OA
ATOM      6  N   UNL     1       2.367  -1.803  -5.361  0.00  0.00    -0.288 N 
ATOM      7  C   UNL     1       0.924  -1.509  -5.350  0.00  0.00    +0.143 C 
ATOM      8  C   UNL     1       2.571  -4.740  -3.171  0.00  0.00    +0.139 C 
ATOM      9  H   UNL     1       2.981  -1.256  -5.876  0.00  0.00    +0.151 HD
ENDROOT
BRANCH   7  10
ATOM     10  C   UNL     1       0.745  -0.098  -4.854  0.00  0.00    -0.023 A 
ATOM     11  C   UNL     1       1.420   0.329  -3.725  0.00  0.00    +0.006 A 
ATOM     12  C   UNL     1       1.257   1.623  -3.270  0.00  0.00    +0.000 A 
ATOM     13  C   UNL     1       0.418   2.492  -3.943  0.00  0.00    +0.000 A 
ATOM     14  C   UNL     1      -0.257   2.066  -5.072  0.00  0.00    +0.000 A 
ATOM     15  C   UNL     1      -0.089   0.772  -5.530  0.00  0.00    +0.006 A 
ENDBRANCH   7  10
BRANCH   1  16
ATOM     16  C   UNL     1      -1.352  -2.211  -4.432  0.00  0.00    +0.339 C 
ATOM     17  O   UNL     1      -2.052  -3.013  -3.844  0.00  0.00    -0.245 OA
BRANCH  16  18
ATOM     18  O   UNL     1      -1.909  -1.126  -5.010  0.00  0.00    -0.462 OA
BRANCH  18  20
ATOM     19  C   UNL     1      -3.771   0.296  -5.604  0.00  0.00    +0.048 C 
ATOM     20  C   UNL     1      -3.326  -0.983  -4.892  0.00  0.00    +0.229 C 
ENDBRANCH  18  20
ENDBRANCH  16  18
ENDBRANCH   1  16
BRANCH   2  21
ATOM     21  C   UNL     1      -0.195  -4.354  -3.001  0.00  0.00    -0.026 C 
BRANCH  21  22
ATOM     22  N   UNL     1      -0.826  -5.363  -3.862  0.00  0.00    +0.384 N 
ATOM     23  C   UNL     1      -1.814  -6.092  -3.070  0.00  0.00    -0.077 C 
ATOM     24  C   UNL     1      -2.925  -6.573  -3.978  0.00  0.00    +0.000 C 
ATOM     25  C   UNL     1      -2.617  -8.006  -4.448  0.00  0.00    +0.106 C 
ATOM     26  N   UNL     1      -1.180  -8.170  -4.750  0.00  0.00    -0.299 N 
ATOM     27  C   UNL     1      -0.414  -7.157  -5.447  0.00  0.00    +0.089 C 
ATOM     28  C   UNL     1       0.191  -6.164  -4.428  0.00  0.00    -0.059 C 
ATOM     29  C   UNL     1      -0.560  -9.302  -4.363  0.00  0.00    +0.249 C 
ATOM     30  O   UNL     1       0.643  -9.414  -4.502  0.00  0.00    -0.270 OA
ATOM     31  H   UNL     1      -1.308  -4.886  -4.609  0.00  0.00    -0.081 HD
BRANCH  29  32
ATOM     32  C   UNL     1      -1.341 -10.406  -3.769  0.00  0.00    +0.072 A 
ATOM     33  C   UNL     1      -2.491 -10.874  -4.408  0.00  0.00    +0.016 A 
ATOM     34  C   UNL     1      -3.215 -11.906  -3.849  0.00  0.00    +0.001 A 
ATOM     35  C   UNL     1      -2.806 -12.478  -2.656  0.00  0.00    +0.003 A 
ATOM     36  C   UNL     1      -1.669 -12.021  -2.016  0.00  0.00    +0.039 A 
ATOM     37  C   UNL     1      -0.929 -10.991  -2.568  0.00  0.00    +0.135 A 
ATOM     38  F   UNL     1       0.185 -10.548  -1.945  0.00  0.00    -0.205 F 
ENDBRANCH  29  32
ENDBRANCH  21  22
ENDBRANCH   2  21
TORSDOF 7
