REMARK  Name = ZINC38288173
REMARK  8 active torsions:
REMARK  status: ('A' for Active; 'I' for Inactive)
REMARK    1  A    between atoms: C_1  and  C_2
REMARK    2  A    between atoms: C_5  and  C_21
REMARK    3  A    between atoms: C_6  and  C_7
REMARK    4  A    between atoms: C_6  and  C_8
REMARK    5  A    between atoms: N_11  and  O_12
REMARK    6  A    between atoms: O_12  and  C_13
REMARK    7  A    between atoms: C_13  and  C_15
REMARK    8  A    between atoms: N_23  and  C_24
REMARK                            x       y       z     vdW  Elec       q    Type
REMARK                         _______ _______ _______ _____ _____    ______ ____
ROOT
ATOM      1  C   UNL     1      -0.033   1.526   0.019  0.00  0.00    +0.018 C 
ATOM      2  C   UNL     1      -0.011  -0.004   0.009  0.00  0.00    +0.015 C 
ATOM      3  C   UNL     1      -1.402  -0.705   0.081  0.00  0.00    +0.014 C 
ATOM      4  C   UNL     1      -1.092  -2.138   0.571  0.00  0.00    +0.018 C 
ATOM      5  C   UNL     1       0.459  -2.165   0.738  0.00  0.00    +0.058 C 
ATOM      6  C   UNL     1       0.724  -0.692   1.213  0.00  0.00    -0.010 C 
ATOM      7  C   UNL     1       0.046  -0.389   2.551  0.00  0.00    +0.013 C 
ATOM      8  C   UNL     1       2.216  -0.358   1.244  0.00  0.00    +0.013 C 
ATOM      9  C   UNL     1       1.005  -2.088  -0.720  0.00  0.00    +0.071 C 
ATOM     10  C   UNL     1       0.709  -0.656  -1.179  0.00  0.00    +0.066 C 
ATOM     11  N   UNL     1       0.981  -0.122  -2.310  0.00  0.00    -0.083 NA
ENDROOT
BRANCH   5  12
ATOM     12  C   UNL     1       1.011  -3.261   1.612  0.00  0.00    +0.224 C 
ATOM     13  O   UNL     1       1.636  -2.982   2.614  0.00  0.00    -0.275 OA
ATOM     14  N   UNL     1       0.811  -4.553   1.282  0.00  0.00    -0.285 N 
ATOM     15  H   UNL     1       0.256  -4.777   0.519  0.00  0.00    +0.155 HD
BRANCH  14  16
ATOM     16  C   UNL     1       1.405  -5.569   2.039  0.00  0.00    +0.035 A 
ATOM     17  C   UNL     1       1.852  -6.728   1.418  0.00  0.00    +0.025 A 
ATOM     18  C   UNL     1       2.438  -7.730   2.166  0.00  0.00    +0.023 A 
ATOM     19  C   UNL     1       2.581  -7.580   3.534  0.00  0.00    +0.059 A 
ATOM     20  C   UNL     1       2.137  -6.425   4.156  0.00  0.00    +0.061 A 
ATOM     21  C   UNL     1       1.554  -5.418   3.410  0.00  0.00    +0.044 A 
ATOM     22 CL   UNL     1       2.317  -6.240   5.873  0.00  0.00    -0.082 Cl
ATOM     23 CL   UNL     1       3.319  -8.841   4.472  0.00  0.00    -0.082 Cl
ENDBRANCH  14  16
ENDBRANCH   5  12
BRANCH  11  24
ATOM     24  O   UNL     1       1.657  -0.872  -3.303  0.00  0.00    -0.312 OA
BRANCH  24  25
ATOM     25  C   UNL     1       1.881  -0.192  -4.444  0.00  0.00    +0.366 C 
ATOM     26  O   UNL     1       1.511   0.960  -4.548  0.00  0.00    -0.243 OA
BRANCH  25  27
ATOM     27  C   UNL     1       2.577  -0.848  -5.570  0.00  0.00    +0.061 A 
ATOM     28  C   UNL     1       2.998  -2.175  -5.456  0.00  0.00    +0.015 A 
ATOM     29  C   UNL     1       3.648  -2.781  -6.511  0.00  0.00    +0.001 A 
ATOM     30  C   UNL     1       3.882  -2.078  -7.680  0.00  0.00    +0.000 A 
ATOM     31  C   UNL     1       3.467  -0.764  -7.799  0.00  0.00    +0.001 A 
ATOM     32  C   UNL     1       2.811  -0.147  -6.754  0.00  0.00    +0.015 A 
ENDBRANCH  25  27
ENDBRANCH  24  25
ENDBRANCH  11  24
TORSDOF 5
