REMARK  Name = ZINC08860857
REMARK  9 active torsions:
REMARK  status: ('A' for Active; 'I' for Inactive)
REMARK    1  A    between atoms: C_1  and  C_2
REMARK    2  A    between atoms: C_3  and  C_34
REMARK    3  A    between atoms: N_4  and  C_28
REMARK    4  A    between atoms: C_5  and  N_9
REMARK    5  A    between atoms: C_6  and  C_7
REMARK    6  A    between atoms: C_10  and  C_12
REMARK    7  A    between atoms: C_12  and  N_62
REMARK    8  A    between atoms: C_16  and  C_18
REMARK    9  A    between atoms: C_28  and  C_29
REMARK                            x       y       z     vdW  Elec       q    Type
REMARK                         _______ _______ _______ _____ _____    ______ ____
ROOT
ATOM      1  N   UNL     1       3.882   2.655   4.442  0.00  0.00    -0.272 N 
ATOM      2  C   UNL     1       3.620   2.295   3.170  0.00  0.00    +0.202 C 
ATOM      3  O   UNL     1       4.079   1.264   2.725  0.00  0.00    -0.278 OA
ATOM      4  H   UNL     1       3.494   3.465   4.806  0.00  0.00    +0.156 HD
ENDROOT
BRANCH   1   9
ATOM      5  C   UNL     1       7.654  -0.285   6.075  0.00  0.00    +0.047 C 
ATOM      6  C   UNL     1       6.394   0.538   6.000  0.00  0.00    -0.011 A 
ATOM      7  C   UNL     1       5.518   0.755   6.994  0.00  0.00    +0.022 A 
ATOM      8  N   UNL     1       4.506   1.556   6.537  0.00  0.00    -0.327 N 
ATOM      9  C   UNL     1       4.707   1.866   5.231  0.00  0.00    +0.124 A 
ATOM     10  C   UNL     1       5.886   1.257   4.825  0.00  0.00    +0.095 A 
ATOM     11  C   UNL     1       5.633   0.208   8.393  0.00  0.00    +0.064 C 
BRANCH  10  12
ATOM     12  C   UNL     1       6.485   1.318   3.526  0.00  0.00    +0.103 C 
ATOM     13  N   UNL     1       6.960   1.366   2.495  0.00  0.00    -0.191 NA
ENDBRANCH  10  12
BRANCH   8  14
ATOM     14  C   UNL     1       3.369   2.012   7.342  0.00  0.00    +0.165 C 
BRANCH  14  15
ATOM     15  C   UNL     1       2.272   0.980   7.291  0.00  0.00    +0.009 A 
ATOM     16  C   UNL     1       1.996  -0.016   8.168  0.00  0.00    +0.013 A 
ATOM     17  C   UNL     1       0.925  -0.854   7.915  0.00  0.00    +0.008 A 
ATOM     18  C   UNL     1       0.184  -0.654   6.798  0.00  0.00    +0.045 A 
ATOM     19  S   UNL     1       0.994   0.757   6.064  0.00  0.00    -0.100 S 
ENDBRANCH  14  15
ENDBRANCH   8  14
ENDBRANCH   1   9
BRANCH   2  20
ATOM     20  C   UNL     1       2.758   3.173   2.301  0.00  0.00    +0.020 C 
BRANCH  20  25
ATOM     21  C   UNL     1       3.697   2.710   0.100  0.00  0.00    -0.077 C 
ATOM     22  C   UNL     1       3.132   2.470  -1.317  0.00  0.00    -0.020 C 
ATOM     23  C   UNL     1       1.620   2.751  -1.198  0.00  0.00    -0.013 C 
ATOM     24  C   UNL     1       1.399   3.136   0.281  0.00  0.00    -0.037 C 
ATOM     25  N   UNL     1       2.538   2.521   0.970  0.00  0.00    +0.390 N 
ATOM     26  H   UNL     1       2.365   1.519   1.110  0.00  0.00    -0.080 HD
BRANCH  24  27
ATOM     27  C   UNL     1       0.090   2.580   0.778  0.00  0.00    -0.057 A 
ATOM     28  C   UNL     1      -0.013   1.239   1.099  0.00  0.00    +0.006 A 
ATOM     29  C   UNL     1      -1.212   0.725   1.555  0.00  0.00    +0.049 A 
ATOM     30  C   UNL     1      -2.317   1.553   1.687  0.00  0.00    +0.162 A 
ATOM     31  C   UNL     1      -2.212   2.902   1.373  0.00  0.00    +0.162 A 
ATOM     32  C   UNL     1      -1.006   3.412   0.914  0.00  0.00    +0.051 A 
ATOM     33  O   UNL     1      -3.280   3.735   1.509  0.00  0.00    -0.485 OA
ATOM     34  C   UNL     1      -4.571   3.114   1.597  0.00  0.00    +0.270 C 
ATOM     35  C   UNL     1      -4.473   1.960   2.605  0.00  0.00    +0.270 C 
ATOM     36  O   UNL     1      -3.494   1.030   2.127  0.00  0.00    -0.485 OA
ENDBRANCH  24  27
ENDBRANCH  20  25
ENDBRANCH   2  20
TORSDOF 7
