REMARK  Name = ZINC17150344
REMARK  16 active torsions:
REMARK  status: ('A' for Active; 'I' for Inactive)
REMARK    1  A    between atoms: C_1  and  C_2
REMARK    2  A    between atoms: C_5  and  C_29
REMARK    3  A    between atoms: C_6  and  O_8
REMARK    4  A    between atoms: O_8  and  C_9
REMARK    5  A    between atoms: C_9  and  C_10
REMARK    6  A    between atoms: C_13  and  S_16
REMARK    7  A    between atoms: N_14  and  N_15
REMARK    8  A    between atoms: S_16  and  C_17
REMARK    9  A    between atoms: C_17  and  C_18
REMARK   10  A    between atoms: N_23  and  C_24
REMARK   11  A    between atoms: C_24  and  C_25
REMARK   12  A    between atoms: C_25  and  C_26
REMARK   13  A    between atoms: C_26  and  C_27
REMARK   14  A    between atoms: C_26  and  C_28
REMARK   15  A    between atoms: C_29  and  C_30
REMARK   16  A    between atoms: C_29  and  C_31
REMARK                            x       y       z     vdW  Elec       q    Type
REMARK                         _______ _______ _______ _____ _____    ______ ____
ROOT
ATOM      1  C   UNL     1       3.647   3.128  -0.015  0.00  0.00    +0.189 A 
ATOM      2  N   UNL     1       3.813   1.836  -0.023  0.00  0.00    -0.128 NA
ATOM      3  N   UNL     1       2.673   1.244  -0.011  0.00  0.00    -0.121 NA
ATOM      4  C   UNL     1       1.708   2.135  -0.003  0.00  0.00    +0.209 A 
ATOM      5  N   UNL     1       2.301   3.365  -0.002  0.00  0.00    -0.225 N 
ENDROOT
BRANCH   5   6
ATOM      6  N   UNL     1       1.677   4.581   0.010  0.00  0.00    -0.295 N 
ATOM      7  H   UNL     1       1.520   4.898   0.955  0.00  0.00    +0.163 HD
ATOM      8  H   UNL     1       2.203   5.262  -0.517  0.00  0.00    +0.163 HD
ENDBRANCH   5   6
BRANCH   1   9
ATOM      9  C   UNL     1       4.737   4.169  -0.020  0.00  0.00    +0.306 C 
BRANCH   9  10
ATOM     10  O   UNL     1       5.094   4.491   1.326  0.00  0.00    -0.484 OA
BRANCH  10  16
ATOM     11  C   UNL     1       8.319   7.596  -0.619  0.00  0.00    +0.044 C 
ATOM     12  C   UNL     1       7.665   6.955   0.578  0.00  0.00    -0.047 A 
ATOM     13  C   UNL     1       8.057   7.312   1.855  0.00  0.00    +0.004 A 
ATOM     14  C   UNL     1       7.459   6.726   2.954  0.00  0.00    +0.008 A 
ATOM     15  C   UNL     1       6.462   5.785   2.780  0.00  0.00    -0.003 A 
ATOM     16  C   UNL     1       6.070   5.420   1.500  0.00  0.00    +0.125 A 
ATOM     17  C   UNL     1       6.673   6.010   0.398  0.00  0.00    +0.049 A 
BRANCH  15  18
ATOM     18  C   UNL     1       5.806   5.151   3.979  0.00  0.00    +0.016 C 
ATOM     19  C   UNL     1       6.863   4.426   4.815  0.00  0.00    +0.012 C 
ATOM     20  C   UNL     1       5.139   6.234   4.828  0.00  0.00    +0.012 C 
ENDBRANCH  15  18
ENDBRANCH  10  16
ENDBRANCH   9  10
ENDBRANCH   1   9
BRANCH   4  21
ATOM     21  S   UNL     1      -0.022   1.806   0.012  0.00  0.00    -0.075 S 
BRANCH  21  22
ATOM     22  C   UNL     1       0.002  -0.004   0.002  0.00  0.00    +0.173 C 
BRANCH  22  23
ATOM     23  C   UNL     1      -1.412  -0.526   0.013  0.00  0.00    +0.231 C 
ATOM     24  O   UNL     1      -2.344   0.249   0.026  0.00  0.00    -0.274 OA
ATOM     25  N   UNL     1      -1.640  -1.854   0.008  0.00  0.00    -0.240 N 
ATOM     26  C   UNL     1      -2.904  -2.321   0.017  0.00  0.00    +0.306 C 
ATOM     27  O   UNL     1      -3.839  -1.543   0.030  0.00  0.00    -0.252 OA
ATOM     28  N   UNL     1      -3.133  -3.649   0.012  0.00  0.00    -0.299 N 
ATOM     29  H   UNL     1      -0.894  -2.474  -0.003  0.00  0.00    +0.159 HD
ATOM     30  H   UNL     1      -2.387  -4.269   0.002  0.00  0.00    +0.150 HD
BRANCH  28  31
ATOM     31  C   UNL     1      -4.507  -4.156   0.023  0.00  0.00    +0.106 C 
BRANCH  31  32
ATOM     32  C   UNL     1      -4.486  -5.686   0.014  0.00  0.00    +0.022 C 
BRANCH  32  33
ATOM     33  C   UNL     1      -5.922  -6.215   0.025  0.00  0.00    -0.016 C 
ATOM     34  C   UNL     1      -6.624  -5.813  -1.273  0.00  0.00    +0.007 C 
ATOM     35  C   UNL     1      -5.902  -7.741   0.143  0.00  0.00    +0.007 C 
ENDBRANCH  32  33
ENDBRANCH  31  32
ENDBRANCH  28  31
ENDBRANCH  22  23
ENDBRANCH  21  22
ENDBRANCH   4  21
TORSDOF 11
