REMARK  Name = ZINC57731416
REMARK  3 active torsions:
REMARK  status: ('A' for Active; 'I' for Inactive)
REMARK    1  A    between atoms: C_3  and  C_6
REMARK    2  A    between atoms: C_7  and  C_12
REMARK    3  A    between atoms: C_12  and  N_13
REMARK                            x       y       z     vdW  Elec       q    Type
REMARK                         _______ _______ _______ _____ _____    ______ ____
ROOT
ATOM      1  N   UNL     1       4.761  -1.055   1.069  0.00  0.00    +0.386 N 
ATOM      2  C   UNL     1       4.582  -2.142   2.044  0.00  0.00    -0.072 C 
ATOM      3  C   UNL     1       4.352  -3.448   1.281  0.00  0.00    +0.037 C 
ATOM      4  C   UNL     1       5.428  -3.628   0.241  0.00  0.00    +0.050 A 
ATOM      5  C   UNL     1       6.212  -2.591  -0.157  0.00  0.00    +0.022 A 
ATOM      6  C   UNL     1       7.198  -2.818  -1.138  0.00  0.00    +0.254 A 
ATOM      7  O   UNL     1       7.914  -1.908  -1.520  0.00  0.00    -0.268 OA
ATOM      8  N   UNL     1       7.336  -4.060  -1.647  0.00  0.00    -0.295 N 
ATOM      9  H   UNL     1       8.010  -4.237  -2.322  0.00  0.00    +0.172 HD
ATOM     10  C   UNL     1       6.526  -5.061  -1.209  0.00  0.00    +0.198 A 
ATOM     11  N   UNL     1       5.606  -4.839  -0.294  0.00  0.00    -0.221 NA
ATOM     12  N   UNL     1       6.671  -6.320  -1.727  0.00  0.00    -0.301 N 
ATOM     13  C   UNL     1       7.692  -6.545  -2.725  0.00  0.00    +0.108 C 
ATOM     14  C   UNL     1       7.105  -6.286  -4.135  0.00  0.00    +0.019 C 
ATOM     15  C   UNL     1       6.163  -7.355  -4.501  0.00  0.00    +0.002 C 
ATOM     16  C   UNL     1       4.939  -7.451  -3.595  0.00  0.00    +0.002 C 
ATOM     17  C   UNL     1       5.276  -8.290  -2.386  0.00  0.00    +0.019 C 
ATOM     18  C   UNL     1       5.783  -7.393  -1.238  0.00  0.00    +0.108 C 
ATOM     19  C   UNL     1       6.066  -1.209   0.419  0.00  0.00    -0.035 C 
ATOM     20  H   UNL     1       4.030  -1.099   0.374  0.00  0.00    -0.081 HD
ENDROOT
BRANCH   1  21
ATOM     21  C   UNL     1       4.705   0.240   1.761  0.00  0.00    -0.039 C 
BRANCH  21  23
ATOM     22  C   UNL     1       3.736   1.822  -0.024  0.00  0.00    +0.074 A 
ATOM     23  C   UNL     1       4.778   1.353   0.748  0.00  0.00    -0.018 A 
ATOM     24  C   UNL     1       5.913   2.097   0.423  0.00  0.00    +0.136 A 
ATOM     25  N   UNL     1       5.592   2.973  -0.495  0.00  0.00    -0.182 NA
ATOM     26  H   UNL     1       3.736   3.345  -1.454  0.00  0.00    +0.189 HD
ATOM     27  N   UNL     1       4.234   2.825  -0.804  0.00  0.00    -0.276 N 
BRANCH  22  30
ATOM     28  C   UNL     1      -0.016   1.354   0.009  0.00  0.00    +0.008 A 
ATOM     29  C   UNL     1       1.177   2.042   0.002  0.00  0.00    +0.017 A 
ATOM     30  C   UNL     1       2.348   1.328  -0.013  0.00  0.00    +0.037 A 
ATOM     31  S   UNL     1       1.752  -0.355  -0.017  0.00  0.00    -0.095 S 
ATOM     32  C   UNL     1       0.002  -0.004   0.002  0.00  0.00    +0.046 A 
ENDBRANCH  22  30
ENDBRANCH  21  23
ENDBRANCH   1  21
TORSDOF 3
