REMARK  Name = ZINC03325376
REMARK  12 active torsions:
REMARK  status: ('A' for Active; 'I' for Inactive)
REMARK    1  A    between atoms: C_1  and  C_2
REMARK    2  A    between atoms: C_2  and  C_4
REMARK    3  A    between atoms: C_2  and  O_16
REMARK    4  A    between atoms: N_6  and  C_7
REMARK    5  A    between atoms: C_10  and  N_13
REMARK    6  A    between atoms: N_13  and  C_14
REMARK    7  A    between atoms: N_13  and  C_15
REMARK    8  A    between atoms: O_16  and  C_17
REMARK    9  A    between atoms: C_17  and  C_19
REMARK   10  A    between atoms: C_22  and  N_25
REMARK   11  A    between atoms: N_25  and  S_26
REMARK   12  A    between atoms: S_26  and  C_29
REMARK                            x       y       z     vdW  Elec       q    Type
REMARK                         _______ _______ _______ _____ _____    ______ ____
ROOT
ATOM      1  C   UNL     1       5.173  -1.606  -5.242  0.00  0.00    +0.340 C 
ATOM      2  O   UNL     1       5.493  -2.407  -6.099  0.00  0.00    -0.245 OA
ENDROOT
BRANCH   1   3
ATOM      3  C   UNL     1       4.105  -1.941  -4.283  0.00  0.00    +0.059 A 
ATOM      4  C   UNL     1       3.459  -3.179  -4.357  0.00  0.00    +0.017 A 
ATOM      5  C   UNL     1       2.466  -3.487  -3.463  0.00  0.00    +0.025 A 
ATOM      6  C   UNL     1       2.101  -2.570  -2.482  0.00  0.00    +0.048 A 
ATOM      7  C   UNL     1       2.739  -1.334  -2.409  0.00  0.00    +0.025 A 
ATOM      8  C   UNL     1       3.736  -1.021  -3.296  0.00  0.00    +0.017 A 
BRANCH   6   9
ATOM      9  N   UNL     1       1.095  -2.886  -1.577  0.00  0.00    -0.216 N 
ATOM     10  H   UNL     1       0.220  -2.474  -1.661  0.00  0.00    +0.174 HD
BRANCH   9  11
ATOM     11  S   UNL     1       1.389  -3.964  -0.355  0.00  0.00    +0.072 S 
ATOM     12  O   UNL     1       1.969  -5.113  -0.958  0.00  0.00    -0.150 OA
ATOM     13  O   UNL     1       0.201  -4.030   0.423  0.00  0.00    -0.150 OA
BRANCH  11  14
ATOM     14  C   UNL     1       2.629  -3.257   0.677  0.00  0.00    +0.109 A 
ATOM     15  C   UNL     1       2.273  -2.375   1.681  0.00  0.00    +0.030 A 
ATOM     16  C   UNL     1       3.245  -1.820   2.491  0.00  0.00    +0.017 A 
ATOM     17  C   UNL     1       4.575  -2.147   2.298  0.00  0.00    +0.018 A 
ATOM     18  C   UNL     1       4.931  -3.029   1.293  0.00  0.00    +0.017 A 
ATOM     19  C   UNL     1       3.958  -3.584   0.484  0.00  0.00    +0.030 A 
ATOM     20 BR   UNL     1       5.907  -1.389   3.406  0.00  0.00    -0.050 Br
ENDBRANCH  11  14
ENDBRANCH   9  11
ENDBRANCH   6   9
ENDBRANCH   1   3
BRANCH   1  21
ATOM     21  O   UNL     1       5.794  -0.413  -5.169  0.00  0.00    -0.449 OA
BRANCH  21  23
ATOM     22  C   UNL     1       8.183  -0.625  -5.595  0.00  0.00    +0.062 C 
ATOM     23  C   UNL     1       6.836  -0.151  -6.146  0.00  0.00    +0.259 C 
BRANCH  23  24
ATOM     24  C   UNL     1       6.901   1.327  -6.428  0.00  0.00    +0.258 C 
ATOM     25  O   UNL     1       6.207   2.096  -5.796  0.00  0.00    -0.271 OA
ATOM     26  N   UNL     1       7.730   1.796  -7.382  0.00  0.00    -0.282 N 
ATOM     27  H   UNL     1       8.333   1.191  -7.841  0.00  0.00    +0.155 HD
BRANCH  26  28
ATOM     28  C   UNL     1       7.720   3.158  -7.711  0.00  0.00    +0.034 A 
ATOM     29  C   UNL     1       7.934   3.557  -9.024  0.00  0.00    +0.025 A 
ATOM     30  C   UNL     1       7.920   4.898  -9.350  0.00  0.00    +0.025 A 
ATOM     31  C   UNL     1       7.700   5.850  -8.362  0.00  0.00    +0.029 A 
ATOM     32  C   UNL     1       7.491   5.452  -7.048  0.00  0.00    +0.025 A 
ATOM     33  C   UNL     1       7.501   4.110  -6.724  0.00  0.00    +0.025 A 
BRANCH  31  34
ATOM     34  N   UNL     1       7.690   7.210  -8.691  0.00  0.00    -0.336 N 
ATOM     35  C   UNL     1       7.458   8.213  -7.650  0.00  0.00    +0.129 C 
ATOM     36  C   UNL     1       7.911   7.630 -10.077  0.00  0.00    +0.129 C 
ENDBRANCH  31  34
ENDBRANCH  26  28
ENDBRANCH  23  24
ENDBRANCH  21  23
ENDBRANCH   1  21
TORSDOF 9
