REMARK  Name = ZINC36638129
REMARK  13 active torsions:
REMARK  status: ('A' for Active; 'I' for Inactive)
REMARK    1  A    between atoms: C_1  and  C_2
REMARK    2  A    between atoms: C_2  and  N_3
REMARK    3  A    between atoms: N_3  and  C_4
REMARK    4  A    between atoms: N_3  and  C_6
REMARK    5  A    between atoms: C_4  and  C_5
REMARK    6  A    between atoms: C_6  and  C_7
REMARK    7  A    between atoms: C_7  and  N_8
REMARK    8  A    between atoms: C_13  and  O_20
REMARK    9  A    between atoms: C_14  and  O_18
REMARK   10  A    between atoms: O_18  and  C_19
REMARK   11  A    between atoms: O_20  and  C_21
REMARK   12  A    between atoms: C_22  and  C_24
REMARK   13  A    between atoms: C_28  and  N_33
REMARK                            x       y       z     vdW  Elec       q    Type
REMARK                         _______ _______ _______ _____ _____    ______ ____
ROOT
ATOM      1  N   UNL     1      -2.467  -3.588   0.719  0.00  0.00    -0.248 N 
ATOM      2  C   UNL     1      -2.284  -3.874   2.062  0.00  0.00    +0.168 A 
ATOM      3  N   UNL     1      -2.310  -3.057   3.089  0.00  0.00    -0.224 NA
ATOM      4  C   UNL     1      -2.113  -3.479   4.358  0.00  0.00    +0.084 A 
ATOM      5  C   UNL     1      -2.115  -2.706   5.543  0.00  0.00    +0.078 A 
ATOM      6  C   UNL     1      -1.897  -3.294   6.765  0.00  0.00    +0.164 A 
ATOM      7  C   UNL     1      -1.665  -4.666   6.880  0.00  0.00    +0.163 A 
ATOM      8  C   UNL     1      -1.657  -5.448   5.736  0.00  0.00    +0.066 A 
ATOM      9  C   UNL     1      -1.876  -4.863   4.513  0.00  0.00    +0.044 A 
ATOM     10  S   UNL     1      -1.960  -5.451   2.838  0.00  0.00    -0.052 S 
ATOM     11  C   UNL     1      -2.408  -4.577  -0.194  0.00  0.00    +0.259 C 
ATOM     12  O   UNL     1      -2.297  -5.733   0.167  0.00  0.00    -0.269 OA
ENDROOT
BRANCH  11  13
ATOM     13  C   UNL     1      -2.480  -4.258  -1.627  0.00  0.00    +0.076 A 
ATOM     14  C   UNL     1      -2.563  -5.112  -2.682  0.00  0.00    +0.029 A 
ATOM     15  C   UNL     1      -2.622  -4.605  -3.992  0.00  0.00    -0.008 A 
ATOM     16  C   UNL     1      -2.710  -5.328  -5.211  0.00  0.00    +0.041 A 
ATOM     17  C   UNL     1      -2.759  -4.678  -6.402  0.00  0.00    +0.127 A 
ATOM     18  C   UNL     1      -2.724  -3.290  -6.476  0.00  0.00    +0.034 A 
ATOM     19  C   UNL     1      -2.639  -2.549  -5.316  0.00  0.00    +0.018 A 
ATOM     20  C   UNL     1      -2.589  -3.195  -4.099  0.00  0.00    +0.020 A 
ATOM     21  S   UNL     1      -2.487  -2.655  -2.411  0.00  0.00    -0.084 S 
BRANCH  17  22
ATOM     22  N   UNL     1      -2.850  -5.466  -7.651  0.00  0.00    +0.056 N 
ATOM     23  O   UNL     1      -2.881  -6.673  -7.603  0.00  0.00    -0.126 OA
ATOM     24  O   UNL     1      -2.894  -4.902  -8.720  0.00  0.00    -0.126 OA
ENDBRANCH  17  22
ENDBRANCH  11  13
BRANCH   7  25
ATOM     25  O   UNL     1      -1.450  -5.228   8.100  0.00  0.00    -0.491 OA
ATOM     26  C   UNL     1      -1.221  -6.638   8.133  0.00  0.00    +0.277 C 
ENDBRANCH   7  25
BRANCH   6  27
ATOM     27  O   UNL     1      -1.905  -2.523   7.886  0.00  0.00    -0.491 OA
ATOM     28  C   UNL     1      -2.146  -1.126   7.711  0.00  0.00    +0.277 C 
ENDBRANCH   6  27
BRANCH   1  29
ATOM     29  C   UNL     1      -2.723  -2.210   0.292  0.00  0.00    +0.097 C 
BRANCH  29  30
ATOM     30  C   UNL     1      -1.397  -1.524  -0.042  0.00  0.00    -0.059 C 
BRANCH  30  31
ATOM     31  N   UNL     1      -1.662  -0.188  -0.592  0.00  0.00    +0.380 N 
ATOM     32  H   UNL     1      -2.280  -0.268  -1.386  0.00  0.00    -0.082 HD
BRANCH  31  34
ATOM     33  C   UNL     1      -2.680   1.999  -0.171  0.00  0.00    -0.017 C 
ATOM     34  C   UNL     1      -2.292   0.650   0.437  0.00  0.00    -0.082 C 
ENDBRANCH  31  34
BRANCH  31  35
ATOM     35  C   UNL     1      -0.397   0.426  -1.017  0.00  0.00    -0.082 C 
ATOM     36  C   UNL     1       0.186  -0.365  -2.190  0.00  0.00    -0.017 C 
ENDBRANCH  31  35
ENDBRANCH  30  31
ENDBRANCH  29  30
ENDBRANCH   1  29
TORSDOF 9
