REMARK  Name = ZINC13299615
REMARK  12 active torsions:
REMARK  status: ('A' for Active; 'I' for Inactive)
REMARK    1  A    between atoms: C_1  and  C_2
REMARK    2  A    between atoms: C_3  and  C_7
REMARK    3  A    between atoms: C_10  and  S_28
REMARK    4  A    between atoms: N_11  and  N_12
REMARK    5  A    between atoms: C_13  and  C_14
REMARK    6  A    between atoms: C_16  and  O_26
REMARK    7  A    between atoms: C_17  and  O_21
REMARK    8  A    between atoms: O_21  and  C_22
REMARK    9  A    between atoms: C_22  and  C_23
REMARK   10  A    between atoms: O_26  and  C_27
REMARK   11  A    between atoms: S_28  and  C_29
REMARK   12  A    between atoms: C_29  and  C_30
REMARK                            x       y       z     vdW  Elec       q    Type
REMARK                         _______ _______ _______ _____ _____    ______ ____
ROOT
ATOM      1  N   UNL     1       1.130  -1.061   6.690  0.00  0.00    -0.170 NA
ATOM      2  C   UNL     1       1.514   0.040   6.120  0.00  0.00    +0.141 C 
ENDROOT
BRANCH   2   3
ATOM      3  C   UNL     1       0.938   0.437   4.822  0.00  0.00    -0.000 A 
ATOM      4  C   UNL     1       1.350   1.623   4.207  0.00  0.00    +0.059 A 
ATOM      5  C   UNL     1       0.807   1.991   2.990  0.00  0.00    +0.164 A 
ATOM      6  C   UNL     1      -0.149   1.182   2.380  0.00  0.00    +0.181 A 
ATOM      7  C   UNL     1      -0.563   0.007   2.993  0.00  0.00    +0.087 A 
ATOM      8  C   UNL     1      -0.021  -0.369   4.205  0.00  0.00    +0.033 A 
ATOM      9 CL   UNL     1      -1.759  -0.993   2.231  0.00  0.00    -0.080 Cl
BRANCH   5  10
ATOM     10  O   UNL     1       1.207   3.143   2.389  0.00  0.00    -0.491 OA
ATOM     11  C   UNL     1       2.191   3.924   3.071  0.00  0.00    +0.277 C 
ENDBRANCH   5  10
BRANCH   6  12
ATOM     12  O   UNL     1      -0.682   1.547   1.184  0.00  0.00    -0.478 OA
BRANCH  12  13
ATOM     13  C   UNL     1      -0.013   1.086   0.008  0.00  0.00    +0.324 C 
BRANCH  13  14
ATOM     14  C   UNL     1      -0.742   1.585  -1.213  0.00  0.00    +0.248 C 
ATOM     15  O   UNL     1      -1.736   2.268  -1.088  0.00  0.00    -0.272 OA
ATOM     16  N   UNL     1      -0.288   1.272  -2.443  0.00  0.00    -0.327 N 
ATOM     17  H   UNL     1       0.507   0.726  -2.543  0.00  0.00    +0.145 HD
ATOM     18  H   UNL     1      -0.758   1.594  -3.229  0.00  0.00    +0.145 HD
ENDBRANCH  13  14
ENDBRANCH  12  13
ENDBRANCH   6  12
ENDBRANCH   2   3
BRANCH   1  23
ATOM     19  C   UNL     1       1.209  -1.117   9.177  0.00  0.00    +0.189 A 
ATOM     20  N   UNL     1       2.019  -1.676  10.046  0.00  0.00    -0.126 NA
ATOM     21  N   UNL     1       2.949  -2.317   9.433  0.00  0.00    -0.120 NA
ATOM     22  C   UNL     1       2.789  -2.212   8.134  0.00  0.00    +0.213 A 
ATOM     23  N   UNL     1       1.678  -1.439   7.923  0.00  0.00    -0.187 N 
BRANCH  19  26
ATOM     24  C   UNL     1       0.139  -0.398  12.035  0.00  0.00    +0.087 C 
ATOM     25  C   UNL     1      -0.461   0.025  10.718  0.00  0.00    +0.113 A 
ATOM     26  C   UNL     1       0.018  -0.297   9.486  0.00  0.00    +0.062 A 
ATOM     27  C   UNL     1      -0.898   0.334   8.526  0.00  0.00    +0.053 A 
ATOM     28  C   UNL     1      -1.824   0.971   9.261  0.00  0.00    +0.196 A 
ATOM     29  O   UNL     1      -1.555   0.784  10.562  0.00  0.00    -0.467 OA
ENDBRANCH  19  26
BRANCH  22  30
ATOM     30  S   UNL     1       3.815  -2.930   6.894  0.00  0.00    -0.073 S 
BRANCH  30  31
ATOM     31  C   UNL     1       5.029  -3.772   7.938  0.00  0.00    +0.202 C 
BRANCH  31  32
ATOM     32  C   UNL     1       6.038  -4.477   7.068  0.00  0.00    +0.366 C 
ATOM     33  O   UNL     1       5.946  -4.416   5.865  0.00  0.00    -0.245 OA
ATOM     34  O   UNL     1       7.040  -5.172   7.630  0.00  0.00    -0.245 OA
ENDBRANCH  31  32
ENDBRANCH  30  31
ENDBRANCH  22  30
ENDBRANCH   1  23
TORSDOF 10
