REMARK  Name = ZINC36628018
REMARK  15 active torsions:
REMARK  status: ('A' for Active; 'I' for Inactive)
REMARK    1  A    between atoms: C_1  and  C_2
REMARK    2  A    between atoms: C_5  and  N_9
REMARK    3  A    between atoms: C_7  and  C_8
REMARK    4  A    between atoms: N_9  and  C_10
REMARK    5  A    between atoms: C_10  and  C_11
REMARK    6  A    between atoms: C_11  and  C_12
REMARK    7  A    between atoms: C_14  and  C_16
REMARK    8  A    between atoms: C_16  and  S_17
REMARK    9  A    between atoms: S_17  and  C_18
REMARK   10  A    between atoms: C_21  and  C_24
REMARK   11  A    between atoms: N_22  and  N_23
REMARK   12  A    between atoms: C_27  and  C_30
REMARK   13  A    between atoms: C_30  and  C_31
REMARK   14  A    between atoms: C_30  and  C_32
REMARK   15  A    between atoms: C_30  and  C_33
REMARK                            x       y       z     vdW  Elec       q    Type
REMARK                         _______ _______ _______ _____ _____    ______ ____
ROOT
ATOM      1  C   UNL     1       0.593  -8.709   2.636  0.00  0.00    +0.209 A 
ATOM      2  N   UNL     1       0.603  -9.373   1.502  0.00  0.00    -0.121 NA
ATOM      3  N   UNL     1       0.725 -10.632   1.730  0.00  0.00    -0.127 NA
ATOM      4  C   UNL     1       0.800 -10.849   3.022  0.00  0.00    +0.182 A 
ATOM      5  N   UNL     1       0.724  -9.623   3.642  0.00  0.00    -0.224 N 
ENDROOT
BRANCH   4   6
ATOM      6  C   UNL     1       0.945 -12.162   3.686  0.00  0.00    +0.021 A 
ATOM      7  C   UNL     1       0.695 -12.287   5.054  0.00  0.00    +0.012 A 
ATOM      8  C   UNL     1       0.832 -13.515   5.667  0.00  0.00    +0.005 A 
ATOM      9  C   UNL     1       1.216 -14.621   4.930  0.00  0.00    -0.042 A 
ATOM     10  C   UNL     1       1.466 -14.504   3.574  0.00  0.00    +0.005 A 
ATOM     11  C   UNL     1       1.327 -13.283   2.947  0.00  0.00    +0.012 A 
BRANCH   9  12
ATOM     12  C   UNL     1       1.363 -15.960   5.607  0.00  0.00    -0.013 C 
ATOM     13  C   UNL     1       0.024 -16.370   6.222  0.00  0.00    +0.015 C 
ATOM     14  C   UNL     1       1.794 -17.007   4.578  0.00  0.00    +0.015 C 
ATOM     15  C   UNL     1       2.421 -15.861   6.707  0.00  0.00    +0.015 C 
ENDBRANCH   9  12
ENDBRANCH   4   6
BRANCH   5  16
ATOM     16  N   UNL     1       0.766  -9.373   4.984  0.00  0.00    -0.295 N 
ATOM     17  H   UNL     1      -0.159  -9.390   5.385  0.00  0.00    +0.163 HD
ATOM     18  H   UNL     1       1.377 -10.024   5.454  0.00  0.00    +0.163 HD
ENDBRANCH   5  16
BRANCH   1  19
ATOM     19  S   UNL     1       0.446  -6.963   2.823  0.00  0.00    -0.075 S 
BRANCH  19  20
ATOM     20  C   UNL     1       0.309  -6.349   1.121  0.00  0.00    +0.173 C 
BRANCH  20  22
ATOM     21  N   UNL     1       0.059  -4.170  -0.021  0.00  0.00    -0.270 N 
ATOM     22  C   UNL     1       0.175  -4.848   1.138  0.00  0.00    +0.230 C 
ATOM     23  O   UNL     1       0.173  -4.251   2.193  0.00  0.00    -0.274 OA
BRANCH  21  28
ATOM     24  C   UNL     1      -0.032   1.503   0.013  0.00  0.00    +0.044 C 
ATOM     25  C   UNL     1      -0.008  -0.004   0.004  0.00  0.00    -0.047 A 
ATOM     26  C   UNL     1      -1.142  -0.710  -0.353  0.00  0.00    +0.005 A 
ATOM     27  C   UNL     1      -1.123  -2.091  -0.362  0.00  0.00    +0.024 A 
ATOM     28  C   UNL     1       0.036  -2.771  -0.013  0.00  0.00    +0.037 A 
ATOM     29  C   UNL     1       1.174  -2.059   0.345  0.00  0.00    +0.027 A 
ATOM     30  C   UNL     1       1.150  -0.678   0.348  0.00  0.00    -0.046 A 
ATOM     31  C   UNL     1       2.385   0.096   0.730  0.00  0.00    +0.044 C 
ENDBRANCH  21  28
BRANCH  21  32
ATOM     32  C   UNL     1      -0.045  -4.897  -1.289  0.00  0.00    +0.128 C 
BRANCH  32  33
ATOM     33  C   UNL     1       1.355  -5.126  -1.861  0.00  0.00    +0.138 C 
BRANCH  33  34
ATOM     34  C   UNL     1       1.251  -5.857  -3.135  0.00  0.00    +0.064 C 
ATOM     35  N   UNL     1       1.170  -6.420  -4.118  0.00  0.00    -0.197 NA
ENDBRANCH  33  34
ENDBRANCH  32  33
ENDBRANCH  21  32
ENDBRANCH  20  22
ENDBRANCH  19  20
ENDBRANCH   1  19
TORSDOF 10
