REMARK  Name = ZINC39369574
REMARK  8 active torsions:
REMARK  status: ('A' for Active; 'I' for Inactive)
REMARK    1  A    between atoms: C_1  and  C_2
REMARK    2  A    between atoms: C_7  and  C_12
REMARK    3  A    between atoms: C_12  and  C_32
REMARK    4  A    between atoms: C_13  and  C_14
REMARK    5  A    between atoms: C_17  and  C_19
REMARK    6  A    between atoms: C_22  and  S_25
REMARK    7  A    between atoms: S_25  and  N_28
REMARK    8  A    between atoms: C_29  and  C_31
REMARK                            x       y       z     vdW  Elec       q    Type
REMARK                         _______ _______ _______ _____ _____    ______ ____
ROOT
ATOM      1  C   UNL     1       0.267  -6.859   2.786  0.00  0.00    +0.130 A 
ATOM      2  C   UNL     1       0.552  -8.131   3.245  0.00  0.00    +0.050 A 
ATOM      3  C   UNL     1       1.942  -8.208   3.382  0.00  0.00    +0.050 A 
ATOM      4  C   UNL     1       2.450  -6.997   3.007  0.00  0.00    +0.136 A 
ATOM      5  O   UNL     1       1.433  -6.195   2.645  0.00  0.00    -0.455 OA
ENDROOT
BRANCH   4   6
ATOM      6  C   UNL     1       3.881  -6.632   2.995  0.00  0.00    +0.017 A 
ATOM      7  C   UNL     1       4.846  -7.563   3.385  0.00  0.00    +0.013 A 
ATOM      8  C   UNL     1       6.180  -7.215   3.372  0.00  0.00    +0.030 A 
ATOM      9  C   UNL     1       6.564  -5.947   2.973  0.00  0.00    +0.113 A 
ATOM     10  C   UNL     1       5.613  -5.019   2.586  0.00  0.00    +0.030 A 
ATOM     11  C   UNL     1       4.275  -5.355   2.589  0.00  0.00    +0.013 A 
BRANCH   9  12
ATOM     12  S   UNL     1       8.271  -5.510   2.960  0.00  0.00    +0.102 S 
ATOM     13  O   UNL     1       8.329  -4.095   3.069  0.00  0.00    -0.146 OA
ATOM     14  O   UNL     1       8.918  -6.373   3.885  0.00  0.00    -0.146 OA
BRANCH  12  15
ATOM     15  N   UNL     1       8.863  -5.894   1.462  0.00  0.00    -0.091 NA
ATOM     16  C   UNL     1      10.103  -5.674   1.182  0.00  0.00    +0.262 C 
ATOM     17  O   UNL     1      10.918  -5.131   2.110  0.00  0.00    -0.270 OA
ATOM     18  C   UNL     1      10.642  -6.023  -0.181  0.00  0.00    +0.116 C 
ENDBRANCH  12  15
ENDBRANCH   9  12
ENDBRANCH   4   6
BRANCH   1  20
ATOM     19  C   UNL     1      -1.173  -5.040   2.169  0.00  0.00    +0.075 C 
ATOM     20  C   UNL     1      -1.021  -6.345   2.507  0.00  0.00    +0.064 C 
BRANCH  19  27
ATOM     21  C   UNL     1       0.373   1.120  -0.746  0.00  0.00    +0.044 C 
ATOM     22  C   UNL     1       0.511  -0.308  -0.286  0.00  0.00    -0.048 A 
ATOM     23  C   UNL     1       1.289  -1.192  -1.054  0.00  0.00    +0.005 A 
ATOM     24  C   UNL     1       1.466  -2.486  -0.716  0.00  0.00    +0.027 A 
ATOM     25  C   UNL     1       0.829  -3.011   0.499  0.00  0.00    +0.060 A 
ATOM     26  N   UNL     1       0.823  -4.187   1.057  0.00  0.00    -0.359 N 
ATOM     27  C   UNL     1      -0.002  -4.096   2.268  0.00  0.00    +0.216 C 
ATOM     28  N   UNL     1      -0.478  -2.708   2.341  0.00  0.00    -0.359 N 
ATOM     29  C   UNL     1       0.005  -2.075   1.312  0.00  0.00    +0.061 A 
ATOM     30  C   UNL     1      -0.112  -0.685   0.848  0.00  0.00    +0.030 A 
ATOM     31  H   UNL     1       1.280  -4.979   0.733  0.00  0.00    +0.162 HD
ATOM     32  H   UNL     1      -1.047  -2.332   3.031  0.00  0.00    +0.162 HD
ENDBRANCH  19  27
BRANCH  19  33
ATOM     33  C   UNL     1      -2.444  -4.560   1.719  0.00  0.00    +0.099 C 
ATOM     34  N   UNL     1      -3.453  -4.179   1.362  0.00  0.00    -0.191 NA
ENDBRANCH  19  33
ENDBRANCH   1  20
TORSDOF 6
