REMARK  Name = ZINC14475132
REMARK  3 active torsions:
REMARK  status: ('A' for Active; 'I' for Inactive)
REMARK    1  A    between atoms: C_1  and  C_2
REMARK    2  A    between atoms: C_4  and  N_28
REMARK    3  A    between atoms: C_9  and  C_18
REMARK                            x       y       z     vdW  Elec       q    Type
REMARK                         _______ _______ _______ _____ _____    ______ ____
ROOT
ATOM      1  C   UNL     1       2.008   8.855   2.653  0.00  0.00    +0.046 C 
ATOM      2  C   UNL     1       1.675   8.888   1.184  0.00  0.00    -0.027 A 
ATOM      3  C   UNL     1       0.541   9.543   0.752  0.00  0.00    +0.038 A 
ATOM      4  C   UNL     1       0.236   9.572  -0.596  0.00  0.00    +0.127 A 
ATOM      5  C   UNL     1       1.064   8.946  -1.505  0.00  0.00    +0.038 A 
ATOM      6  C   UNL     1       2.208   8.284  -1.080  0.00  0.00    -0.017 A 
ATOM      7  C   UNL     1       2.514   8.255   0.268  0.00  0.00    +0.034 A 
ATOM      8  N   UNL     1       3.662   7.636   0.753  0.00  0.00    -0.336 N 
ATOM      9  C   UNL     1       4.056   6.513  -0.100  0.00  0.00    +0.105 C 
ATOM     10  C   UNL     1       4.335   7.007  -1.510  0.00  0.00    +0.029 C 
ATOM     11  C   UNL     1       3.063   7.624  -2.129  0.00  0.00    +0.049 C 
ATOM     12  C   UNL     1       3.613   8.697  -3.055  0.00  0.00    -0.023 C 
ATOM     13  C   UNL     1       4.824   9.040  -2.693  0.00  0.00    -0.030 C 
ATOM     14  C   UNL     1       5.259   8.249  -1.474  0.00  0.00    +0.033 C 
ATOM     15  H   UNL     1       3.520   7.335   1.705  0.00  0.00    +0.147 HD
ENDROOT
BRANCH   9  16
ATOM     16  C   UNL     1       2.943   5.498  -0.136  0.00  0.00    -0.026 A 
ATOM     17  C   UNL     1       2.023   5.450   0.910  0.00  0.00    +0.006 A 
ATOM     18  C   UNL     1       1.007   4.545   0.909  0.00  0.00    +0.009 A 
ATOM     19  C   UNL     1       0.880   3.644  -0.162  0.00  0.00    -0.018 A 
ATOM     20  C   UNL     1      -0.156   2.694  -0.199  0.00  0.00    +0.008 A 
ATOM     21  C   UNL     1      -0.251   1.841  -1.255  0.00  0.00    +0.001 A 
ATOM     22  C   UNL     1       0.672   1.886  -2.298  0.00  0.00    +0.001 A 
ATOM     23  C   UNL     1       1.688   2.791  -2.297  0.00  0.00    +0.008 A 
ATOM     24  C   UNL     1       1.815   3.693  -1.226  0.00  0.00    -0.018 A 
ATOM     25  C   UNL     1       2.852   4.641  -1.189  0.00  0.00    +0.014 A 
ENDBRANCH   9  16
BRANCH   4  26
ATOM     26  N   UNL     1      -0.979  10.275  -1.065  0.00  0.00    +0.056 N 
ATOM     27  O   UNL     1      -1.711  10.828  -0.263  0.00  0.00    -0.126 OA
ATOM     28  O   UNL     1      -1.248  10.301  -2.253  0.00  0.00    -0.126 OA
ENDBRANCH   4  26
TORSDOF 2
