REMARK  Name = ZINC11855767
REMARK  4 active torsions:
REMARK  status: ('A' for Active; 'I' for Inactive)
REMARK    1  A    between atoms: C_3  and  C_6
REMARK    2  A    between atoms: C_8  and  N_21
REMARK    3  A    between atoms: C_22  and  C_24
REMARK    4  A    between atoms: C_26  and  N_31
REMARK                            x       y       z     vdW  Elec       q    Type
REMARK                         _______ _______ _______ _____ _____    ______ ____
ROOT
ATOM      1  C   UNL     1      -2.776   3.259   0.034  0.00  0.00    +0.102 A 
ATOM      2  C   UNL     1      -1.390   2.993   0.031  0.00  0.00    +0.074 A 
ATOM      3  C   UNL     1      -1.226   1.645   0.017  0.00  0.00    +0.132 A 
ATOM      4  N   UNL     1      -2.468   1.076   0.020  0.00  0.00    -0.185 N 
ATOM      5  N   UNL     1      -3.416   2.107   0.030  0.00  0.00    -0.162 NA
ATOM      6  C   UNL     1      -2.741  -0.278   0.013  0.00  0.00    +0.234 A 
ATOM      7  N   UNL     1      -4.034  -0.697   0.023  0.00  0.00    -0.173 NA
ATOM      8  C   UNL     1      -4.307  -2.019   0.012  0.00  0.00    +0.278 A 
ATOM      9  O   UNL     1      -5.460  -2.416   0.015  0.00  0.00    -0.265 OA
ATOM     10  C   UNL     1      -3.235  -2.933   0.003  0.00  0.00    +0.038 A 
ATOM     11  C   UNL     1      -1.959  -2.454  -0.002  0.00  0.00    +0.027 A 
ATOM     12  N   UNL     1      -1.746  -1.136   0.004  0.00  0.00    -0.327 N 
ATOM     13  C   UNL     1      -0.976  -3.605  -0.013  0.00  0.00    +0.054 C 
ATOM     14  C   UNL     1      -1.796  -4.839   0.422  0.00  0.00    +0.011 C 
ATOM     15  C   UNL     1      -3.226  -4.445  -0.004  0.00  0.00    +0.043 C 
ATOM     16  H   UNL     1      -0.707  -0.774   0.001  0.00  0.00    +0.169 HD
ENDROOT
BRANCH   1  19
ATOM     17  C   UNL     1      -5.079   6.263   0.064  0.00  0.00    +0.008 A 
ATOM     18  C   UNL     1      -4.729   4.931   0.053  0.00  0.00    +0.018 A 
ATOM     19  C   UNL     1      -3.401   4.598   0.045  0.00  0.00    +0.039 A 
ATOM     20  S   UNL     1      -2.620   6.204   0.059  0.00  0.00    -0.095 S 
ATOM     21  C   UNL     1      -4.099   7.204   0.066  0.00  0.00    +0.046 A 
ENDBRANCH   1  19
BRANCH   3  22
ATOM     22  N   UNL     1      -0.011   0.966   0.007  0.00  0.00    -0.266 N 
ATOM     23  C   UNL     1       1.147   1.655   0.000  0.00  0.00    +0.251 C 
ATOM     24  O   UNL     1       1.130   2.871   0.007  0.00  0.00    -0.270 OA
ATOM     25  H   UNL     1       0.004  -0.134   0.006  0.00  0.00    +0.157 HD
BRANCH  23  26
ATOM     26  C   UNL     1       2.436   0.934  -0.016  0.00  0.00    +0.057 A 
ATOM     27  C   UNL     1       2.459  -0.462  -0.024  0.00  0.00    +0.047 A 
ATOM     28  C   UNL     1       3.666  -1.129  -0.040  0.00  0.00    +0.127 A 
ATOM     29  C   UNL     1       4.854  -0.418  -0.048  0.00  0.00    +0.034 A 
ATOM     30  C   UNL     1       4.840   0.964  -0.040  0.00  0.00    +0.023 A 
ATOM     31  C   UNL     1       3.638   1.646  -0.030  0.00  0.00    +0.053 A 
ATOM     32 CL   UNL     1       3.622   3.382  -0.027  0.00  0.00    -0.083 Cl
BRANCH  28  33
ATOM     33  N   UNL     1       3.691  -2.609  -0.048  0.00  0.00    +0.056 N 
ATOM     34  O   UNL     1       2.647  -3.236  -0.041  0.00  0.00    -0.126 OA
ATOM     35  O   UNL     1       4.756  -3.200  -0.061  0.00  0.00    -0.126 OA
ENDBRANCH  28  33
ENDBRANCH  23  26
ENDBRANCH   3  22
TORSDOF 4
