REMARK  Name = ZINC09464247
REMARK  7 active torsions:
REMARK  status: ('A' for Active; 'I' for Inactive)
REMARK    1  A    between atoms: C_3  and  N_10
REMARK    2  A    between atoms: C_5  and  C_6
REMARK    3  A    between atoms: C_13  and  C_16
REMARK    4  A    between atoms: C_16  and  O_18
REMARK    5  A    between atoms: O_18  and  C_19
REMARK    6  A    between atoms: C_19  and  C_20
REMARK    7  A    between atoms: C_22  and  N_30
REMARK                            x       y       z     vdW  Elec       q    Type
REMARK                         _______ _______ _______ _____ _____    ______ ____
ROOT
ATOM      1  N   UNL     1      -0.017   1.386   0.010  0.00  0.00    -0.317 N 
ATOM      2  C   UNL     1      -0.784   1.895   1.153  0.00  0.00    +0.107 C 
ATOM      3  C   UNL     1      -0.906   3.417   1.050  0.00  0.00    +0.033 C 
ATOM      4  C   UNL     1       0.494   4.037   1.034  0.00  0.00    +0.101 C 
ATOM      5  C   UNL     1       1.288   3.454  -0.138  0.00  0.00    +0.033 C 
ATOM      6  C   UNL     1       1.347   1.931  -0.000  0.00  0.00    +0.107 C 
ENDROOT
BRANCH   1   9
ATOM      7  C   UNL     1      -1.163  -2.093   0.002  0.00  0.00    +0.017 A 
ATOM      8  C   UNL     1      -1.197  -0.710   0.010  0.00  0.00    +0.042 A 
ATOM      9  C   UNL     1       0.002  -0.004   0.002  0.00  0.00    +0.099 A 
ATOM     10  C   UNL     1       1.223  -1.962  -0.021  0.00  0.00    +0.096 A 
ATOM     11  C   UNL     1       0.072  -2.726  -0.014  0.00  0.00    +0.071 A 
ATOM     12  N   UNL     1       1.228  -0.603  -0.019  0.00  0.00    -0.349 N 
ATOM     13  H   UNL     1       2.100  -0.060  -0.033  0.00  0.00    +0.167 HD
BRANCH  11  14
ATOM     14  C   UNL     1       0.157  -4.230  -0.024  0.00  0.00    +0.419 C 
ATOM     15  F   UNL     1       0.171  -4.688  -1.346  0.00  0.00    -0.166 F 
ATOM     16  F   UNL     1       1.330  -4.636   0.622  0.00  0.00    -0.166 F 
ATOM     17  F   UNL     1      -0.951  -4.764   0.643  0.00  0.00    -0.166 F 
ENDBRANCH  11  14
ENDBRANCH   1   9
BRANCH   4  18
ATOM     18  C   UNL     1       0.381   5.531   0.871  0.00  0.00    +0.311 C 
ATOM     19  O   UNL     1       0.884   6.075  -0.083  0.00  0.00    -0.251 OA
BRANCH  18  20
ATOM     20  O   UNL     1      -0.278   6.258   1.787  0.00  0.00    -0.460 OA
BRANCH  20  21
ATOM     21  C   UNL     1      -0.346   7.691   1.567  0.00  0.00    +0.271 C 
BRANCH  21  22
ATOM     22  C   UNL     1      -1.119   8.336   2.689  0.00  0.00    +0.034 A 
ATOM     23  C   UNL     1      -1.630   7.560   3.711  0.00  0.00    +0.043 A 
ATOM     24  C   UNL     1      -2.338   8.151   4.740  0.00  0.00    +0.127 A 
ATOM     25  C   UNL     1      -2.538   9.519   4.749  0.00  0.00    +0.042 A 
ATOM     26  C   UNL     1      -2.029  10.300   3.728  0.00  0.00    +0.022 A 
ATOM     27  C   UNL     1      -1.312   9.711   2.698  0.00  0.00    +0.135 A 
ATOM     28  O   UNL     1      -0.795  10.468   1.694  0.00  0.00    -0.465 OA
ATOM     29  C   UNL     1      -1.319  11.792   1.550  0.00  0.00    +0.394 C 
ATOM     30  O   UNL     1      -1.342  12.418   2.838  0.00  0.00    -0.339 OA
ATOM     31  C   UNL     1      -2.259  11.790   3.743  0.00  0.00    +0.202 C 
BRANCH  24  32
ATOM     32  N   UNL     1      -2.884   7.317   5.835  0.00  0.00    +0.056 N 
ATOM     33  O   UNL     1      -2.709   6.112   5.828  0.00  0.00    -0.126 OA
ATOM     34  O   UNL     1      -3.508   7.837   6.743  0.00  0.00    -0.126 OA
ENDBRANCH  24  32
ENDBRANCH  21  22
ENDBRANCH  20  21
ENDBRANCH  18  20
ENDBRANCH   4  18
TORSDOF 7
