REMARK  Name = ZINC13063909
REMARK  14 active torsions:
REMARK  status: ('A' for Active; 'I' for Inactive)
REMARK    1  A    between atoms: C_1  and  C_2
REMARK    2  A    between atoms: C_2  and  C_3
REMARK    3  A    between atoms: C_3  and  C_5
REMARK    4  A    between atoms: C_3  and  N_68
REMARK    5  A    between atoms: N_9  and  C_10
REMARK    6  A    between atoms: C_10  and  C_11
REMARK    7  A    between atoms: C_10  and  C_12
REMARK    8  A    between atoms: C_10  and  C_13
REMARK    9  A    between atoms: C_14  and  C_15
REMARK   10  A    between atoms: C_14  and  N_68
REMARK   11  A    between atoms: C_18  and  C_21
REMARK   12  A    between atoms: C_22  and  C_23
REMARK   13  A    between atoms: C_22  and  N_68
REMARK   14  A    between atoms: C_28  and  C_35
REMARK                            x       y       z     vdW  Elec       q    Type
REMARK                         _______ _______ _______ _____ _____    ______ ____
ROOT
ATOM      1  N   UNL     1       1.708   2.103   0.141  0.00  0.00    +0.392 N 
ATOM      2  H   UNL     1       2.075   1.500   0.886  0.00  0.00    -0.080 HD
ENDROOT
BRANCH   1   3
ATOM      3  C   UNL     1       2.566   1.963  -1.055  0.00  0.00    +0.003 C 
BRANCH   3   4
ATOM      4  C   UNL     1       3.118   0.561  -1.088  0.00  0.00    +0.139 A 
ATOM      5  N   UNL     1       2.492  -0.535  -0.734  0.00  0.00    -0.115 NA
ATOM      6  N   UNL     1       3.297  -1.526  -0.906  0.00  0.00    -0.023 NA
ATOM      7  N   UNL     1       4.420  -1.091  -1.361  0.00  0.00    -0.043 NA
ATOM      8  N   UNL     1       4.347   0.190  -1.492  0.00  0.00    -0.226 N 
BRANCH   8   9
ATOM      9  C   UNL     1       5.405   1.076  -1.984  0.00  0.00    +0.059 C 
ATOM     10  C   UNL     1       5.882   1.982  -0.848  0.00  0.00    +0.036 C 
ATOM     11  C   UNL     1       6.578   0.236  -2.493  0.00  0.00    +0.036 C 
ATOM     12  C   UNL     1       4.860   1.935  -3.127  0.00  0.00    +0.036 C 
ENDBRANCH   8   9
ENDBRANCH   3   4
BRANCH   3  14
ATOM     13  C   UNL     1       1.242   3.663  -2.321  0.00  0.00    +0.002 C 
ATOM     14  C   UNL     1       1.754   2.221  -2.326  0.00  0.00    -0.011 C 
ENDBRANCH   3  14
ENDBRANCH   1   3
BRANCH   1  15
ATOM     15  C   UNL     1       0.326   1.688  -0.177  0.00  0.00    -0.042 C 
BRANCH  15  16
ATOM     16  C   UNL     1       0.261   0.182  -0.169  0.00  0.00    -0.064 A 
ATOM     17  C   UNL     1       0.153  -0.511  -1.360  0.00  0.00    +0.002 A 
ATOM     18  C   UNL     1       0.098  -1.892  -1.353  0.00  0.00    +0.003 A 
ATOM     19  C   UNL     1       0.140  -2.580  -0.154  0.00  0.00    -0.050 A 
ATOM     20  C   UNL     1       0.243  -1.886   1.037  0.00  0.00    +0.003 A 
ATOM     21  C   UNL     1       0.302  -0.505   1.029  0.00  0.00    +0.002 A 
ATOM     22  C   UNL     1       0.074  -4.085  -0.146  0.00  0.00    +0.044 C 
ENDBRANCH  15  16
ENDBRANCH   1  15
BRANCH   1  23
ATOM     23  C   UNL     1       1.720   3.505   0.608  0.00  0.00    -0.036 C 
BRANCH  23  24
ATOM     24  C   UNL     1       3.039   3.779   1.284  0.00  0.00    +0.001 A 
ATOM     25  C   UNL     1       4.043   4.370   0.591  0.00  0.00    +0.017 A 
ATOM     26  C   UNL     1       5.312   4.622   1.276  0.00  0.00    -0.001 A 
ATOM     27  C   UNL     1       6.384   5.229   0.613  0.00  0.00    +0.010 A 
ATOM     28  C   UNL     1       7.555   5.451   1.281  0.00  0.00    +0.004 A 
ATOM     29  C   UNL     1       7.690   5.080   2.612  0.00  0.00    -0.048 A 
ATOM     30  C   UNL     1       6.647   4.481   3.285  0.00  0.00    +0.029 A 
ATOM     31  C   UNL     1       5.445   4.245   2.625  0.00  0.00    +0.049 A 
ATOM     32  N   UNL     1       4.385   3.648   3.274  0.00  0.00    -0.322 N 
ATOM     33  H   UNL     1       4.479   3.388   4.204  0.00  0.00    +0.169 HD
ATOM     34  C   UNL     1       3.222   3.425   2.638  0.00  0.00    +0.251 A 
ATOM     35  O   UNL     1       2.304   2.900   3.244  0.00  0.00    -0.268 OA
ATOM     36  C   UNL     1       8.991   5.335   3.329  0.00  0.00    +0.044 C 
ENDBRANCH  23  24
ENDBRANCH   1  23
TORSDOF 8
