REMARK  Name = ZINC40041161
REMARK  8 active torsions:
REMARK  status: ('A' for Active; 'I' for Inactive)
REMARK    1  A    between atoms: C_1  and  C_2
REMARK    2  A    between atoms: C_2  and  C_3
REMARK    3  A    between atoms: C_3  and  C_4
REMARK    4  A    between atoms: C_10  and  C_27
REMARK    5  A    between atoms: C_17  and  C_26
REMARK    6  A    between atoms: C_19  and  C_25
REMARK    7  A    between atoms: C_31  and  O_33
REMARK    8  A    between atoms: O_33  and  C_34
REMARK                            x       y       z     vdW  Elec       q    Type
REMARK                         _______ _______ _______ _____ _____    ______ ____
ROOT
ATOM      1  C   UNL     1      -1.185  -0.848  -1.355  0.00  0.00    +0.104 A 
ATOM      2  N   UNL     1      -1.808  -1.907  -1.833  0.00  0.00    -0.145 NA
ATOM      3  N   UNL     1      -1.280  -3.053  -1.835  0.00  0.00    -0.125 NA
ATOM      4  C   UNL     1      -0.062  -3.262  -1.355  0.00  0.00    +0.191 A 
ATOM      5  S   UNL     1       0.361  -1.597  -0.850  0.00  0.00    -0.035 S 
ATOM      6  N   UNL     1       0.676  -4.436  -1.272  0.00  0.00    -0.230 N 
ATOM      7  C   UNL     1       0.241  -5.765  -1.730  0.00  0.00    +0.152 C 
ATOM      8  C   UNL     1       1.372  -6.691  -1.424  0.00  0.00    +0.072 A 
ATOM      9  C   UNL     1       1.525  -8.134  -1.638  0.00  0.00    +0.199 A 
ATOM     10  O   UNL     1       0.744  -8.797  -2.297  0.00  0.00    -0.287 OA
ATOM     11  C   UNL     1       2.723  -8.710  -0.975  0.00  0.00    +0.065 A 
ATOM     12  C   UNL     1       2.901 -10.091  -0.916  0.00  0.00    +0.018 A 
ATOM     13  C   UNL     1       4.006 -10.606  -0.298  0.00  0.00    -0.049 A 
ATOM     14  C   UNL     1       4.948  -9.759   0.270  0.00  0.00    +0.010 A 
ATOM     15  C   UNL     1       4.788  -8.392   0.220  0.00  0.00    -0.007 A 
ATOM     16  C   UNL     1       3.670  -7.842  -0.408  0.00  0.00    +0.142 A 
ATOM     17  O   UNL     1       3.538  -6.497  -0.454  0.00  0.00    -0.449 OA
ATOM     18  C   UNL     1       2.368  -5.955  -0.847  0.00  0.00    +0.199 A 
ATOM     19  C   UNL     1       1.919  -4.555  -0.763  0.00  0.00    +0.289 C 
ATOM     20  O   UNL     1       2.573  -3.641  -0.301  0.00  0.00    -0.266 OA
ATOM     21  C   UNL     1       5.822  -7.490   0.843  0.00  0.00    +0.047 C 
ATOM     22  C   UNL     1       4.203 -12.099  -0.232  0.00  0.00    +0.044 C 
ENDROOT
BRANCH   7  23
ATOM     23  C   UNL     1      -0.998  -6.192  -0.986  0.00  0.00    -0.019 A 
ATOM     24  C   UNL     1      -1.132  -5.897   0.358  0.00  0.00    +0.006 A 
ATOM     25  C   UNL     1      -2.268  -6.287   1.043  0.00  0.00    +0.004 A 
ATOM     26  C   UNL     1      -3.272  -6.971   0.386  0.00  0.00    +0.046 A 
ATOM     27  C   UNL     1      -3.140  -7.268  -0.963  0.00  0.00    +0.129 A 
ATOM     28  C   UNL     1      -2.001  -6.871  -1.650  0.00  0.00    +0.052 A 
BRANCH  27  29
ATOM     29  O   UNL     1      -4.126  -7.941  -1.612  0.00  0.00    -0.456 OA
BRANCH  29  30
ATOM     30  C   UNL     1      -3.949  -8.218  -2.930  0.00  0.00    +0.128 A 
ATOM     31  C   UNL     1      -3.336  -9.402  -3.316  0.00  0.00    +0.046 A 
ATOM     32  C   UNL     1      -3.157  -9.680  -4.657  0.00  0.00    +0.004 A 
ATOM     33  C   UNL     1      -3.587  -8.781  -5.614  0.00  0.00    +0.000 A 
ATOM     34  C   UNL     1      -4.198  -7.601  -5.233  0.00  0.00    +0.004 A 
ATOM     35  C   UNL     1      -4.385  -7.320  -3.893  0.00  0.00    +0.046 A 
ENDBRANCH  29  30
ENDBRANCH  27  29
ENDBRANCH   7  23
BRANCH   1  36
ATOM     36  C   UNL     1      -1.641   0.586  -1.266  0.00  0.00    +0.064 C 
BRANCH  36  38
ATOM     37  C   UNL     1      -2.811   2.269   0.163  0.00  0.00    +0.004 C 
ATOM     38  C   UNL     1      -2.347   0.814   0.072  0.00  0.00    +0.003 C 
ENDBRANCH  36  38
ENDBRANCH   1  36
TORSDOF 5
