REMARK  Name = ZINC08781468
REMARK  6 active torsions:
REMARK  status: ('A' for Active; 'I' for Inactive)
REMARK    1  A    between atoms: C_1  and  O_2
REMARK    2  A    between atoms: O_2  and  C_3
REMARK    3  A    between atoms: C_3  and  C_5
REMARK    4  A    between atoms: C_5  and  C_30
REMARK    5  A    between atoms: C_10  and  C_12
REMARK    6  A    between atoms: N_20  and  C_23
REMARK                            x       y       z     vdW  Elec       q    Type
REMARK                         _______ _______ _______ _____ _____    ______ ____
ROOT
ATOM      1  C   UNL     1      -4.600   2.587  -0.141  0.00  0.00    +0.070 C 
ATOM      2  C   UNL     1      -3.864   2.586  -1.417  0.00  0.00    +0.090 C 
ATOM      3  C   UNL     1      -3.114   3.972  -1.363  0.00  0.00    +0.078 C 
ATOM      4  C   UNL     1      -2.553   3.869   0.045  0.00  0.00    -0.026 C 
ATOM      5  C   UNL     1      -2.252   3.754  -2.566  0.00  0.00    +0.229 C 
ATOM      6  O   UNL     1      -1.120   4.155  -2.736  0.00  0.00    -0.275 OA
ATOM      7  N   UNL     1      -3.001   3.010  -3.434  0.00  0.00    -0.210 N 
ATOM      8  C   UNL     1      -4.094   2.449  -2.834  0.00  0.00    +0.229 C 
ATOM      9  O   UNL     1      -5.051   1.944  -3.380  0.00  0.00    -0.275 OA
ATOM     10  N   UNL     1      -3.567   3.099   0.814  0.00  0.00    +0.398 N 
ATOM     11  H   UNL     1      -3.115   2.309   1.290  0.00  0.00    -0.083 HD
ATOM     12  H   UNL     1      -4.011   3.709   1.510  0.00  0.00    -0.083 HD
ENDROOT
BRANCH   7  13
ATOM     13  C   UNL     1      -2.689   2.852  -4.792  0.00  0.00    +0.044 A 
ATOM     14  C   UNL     1      -3.499   2.073  -5.606  0.00  0.00    +0.025 A 
ATOM     15  C   UNL     1      -3.193   1.924  -6.945  0.00  0.00    +0.022 A 
ATOM     16  C   UNL     1      -2.072   2.542  -7.472  0.00  0.00    +0.041 A 
ATOM     17  C   UNL     1      -1.260   3.315  -6.662  0.00  0.00    +0.022 A 
ATOM     18  C   UNL     1      -1.565   3.471  -5.324  0.00  0.00    +0.025 A 
ATOM     19 CL   UNL     1      -1.686   2.347  -9.153  0.00  0.00    -0.084 Cl
ENDBRANCH   7  13
BRANCH   4  20
ATOM     20  C   UNL     1      -1.238   3.133   0.029  0.00  0.00    -0.061 A 
ATOM     21  C   UNL     1      -0.050   3.840   0.003  0.00  0.00    +0.002 A 
ATOM     22  C   UNL     1       1.156   3.165  -0.017  0.00  0.00    +0.000 A 
ATOM     23  C   UNL     1       1.175   1.783  -0.001  0.00  0.00    +0.000 A 
ATOM     24  C   UNL     1      -0.012   1.076   0.030  0.00  0.00    +0.000 A 
ATOM     25  C   UNL     1      -1.219   1.751   0.045  0.00  0.00    +0.002 A 
ENDBRANCH   4  20
BRANCH   1  26
ATOM     26  C   UNL     1      -5.036   1.192   0.226  0.00  0.00    -0.047 A 
ATOM     27  C   UNL     1      -5.427   0.307  -0.761  0.00  0.00    +0.003 A 
ATOM     28  C   UNL     1      -5.823  -0.973  -0.424  0.00  0.00    +0.000 A 
ATOM     29  C   UNL     1      -5.838  -1.366   0.901  0.00  0.00    +0.000 A 
ATOM     30  C   UNL     1      -5.452  -0.479   1.889  0.00  0.00    +0.000 A 
ATOM     31  C   UNL     1      -5.051   0.800   1.552  0.00  0.00    +0.003 A 
ENDBRANCH   1  26
BRANCH   1  32
ATOM     32  C   UNL     1      -5.781   3.521  -0.205  0.00  0.00    +0.301 C 
ATOM     33  O   UNL     1      -6.348   3.708  -1.255  0.00  0.00    -0.252 OA
BRANCH  32  35
ATOM     34  C   UNL     1      -7.347   5.029   0.771  0.00  0.00    +0.280 C 
ATOM     35  O   UNL     1      -6.204   4.144   0.906  0.00  0.00    -0.469 OA
ENDBRANCH  32  35
ENDBRANCH   1  32
TORSDOF 5
