REMARK  Name = ZINC38679304
REMARK  12 active torsions:
REMARK  status: ('A' for Active; 'I' for Inactive)
REMARK    1  A    between atoms: C_1  and  C_2
REMARK    2  A    between atoms: C_2  and  O_3
REMARK    3  A    between atoms: O_3  and  C_4
REMARK    4  A    between atoms: C_7  and  C_13
REMARK    5  A    between atoms: C_9  and  O_10
REMARK    6  A    between atoms: O_10  and  C_11
REMARK    7  A    between atoms: C_11  and  C_12
REMARK    8  A    between atoms: C_18  and  O_27
REMARK    9  A    between atoms: C_22  and  N_26
REMARK   10  A    between atoms: C_23  and  C_24
REMARK   11  A    between atoms: O_27  and  C_28
REMARK   12  A    between atoms: C_28  and  C_30
REMARK                            x       y       z     vdW  Elec       q    Type
REMARK                         _______ _______ _______ _____ _____    ______ ____
ROOT
ATOM      1  C   UNL     1       1.147  -6.049   1.754  0.00  0.00    +0.098 C 
ATOM      2  C   UNL     1       1.896  -6.626   0.582  0.00  0.00    +0.008 A 
ATOM      3  C   UNL     1       3.262  -6.428   0.483  0.00  0.00    +0.012 A 
ATOM      4  C   UNL     1       3.965  -6.949  -0.585  0.00  0.00    +0.047 A 
ATOM      5  C   UNL     1       3.301  -7.675  -1.565  0.00  0.00    +0.135 A 
ATOM      6  C   UNL     1       1.934  -7.875  -1.469  0.00  0.00    +0.093 A 
ATOM      7  C   UNL     1       1.228  -7.350  -0.394  0.00  0.00    +0.138 A 
ATOM      8  O   UNL     1      -0.110  -7.554  -0.315  0.00  0.00    -0.441 OA
ATOM      9  C   UNL     1      -0.742  -7.408   0.862  0.00  0.00    +0.199 C 
ATOM     10  C   UNL     1      -0.199  -6.707   1.881  0.00  0.00    +0.098 C 
ENDROOT
BRANCH   1  14
ATOM     11  C   UNL     1       0.617  -1.847   1.165  0.00  0.00    +0.162 A 
ATOM     12  C   UNL     1       0.089  -2.749   0.255  0.00  0.00    +0.050 A 
ATOM     13  C   UNL     1       0.262  -4.107   0.448  0.00  0.00    +0.008 A 
ATOM     14  C   UNL     1       0.961  -4.568   1.548  0.00  0.00    -0.031 A 
ATOM     15  C   UNL     1       1.490  -3.674   2.460  0.00  0.00    +0.054 A 
ATOM     16  C   UNL     1       1.326  -2.311   2.269  0.00  0.00    +0.162 A 
BRANCH  11  17
ATOM     17  O   UNL     1       0.448  -0.511   0.977  0.00  0.00    -0.489 OA
BRANCH  17  19
ATOM     18  C   UNL     1      -0.376   1.420  -0.221  0.00  0.00    +0.048 C 
ATOM     19  C   UNL     1      -0.291  -0.107  -0.178  0.00  0.00    +0.226 C 
ENDBRANCH  17  19
ENDBRANCH  11  17
BRANCH  16  20
ATOM     20  O   UNL     1       1.851  -1.430   3.162  0.00  0.00    -0.489 OA
BRANCH  20  21
ATOM     21  C   UNL     1       2.566  -1.978   4.271  0.00  0.00    +0.226 C 
ATOM     22  C   UNL     1       3.079  -0.842   5.159  0.00  0.00    +0.048 C 
ENDBRANCH  20  21
ENDBRANCH  16  20
ENDBRANCH   1  14
BRANCH   9  23
ATOM     23  N   UNL     1      -1.974  -7.988   1.033  0.00  0.00    -0.328 N 
ATOM     24  H   UNL     1      -2.377  -8.494   0.309  0.00  0.00    +0.145 HD
ATOM     25  H   UNL     1      -2.443  -7.891   1.876  0.00  0.00    +0.145 HD
ENDBRANCH   9  23
BRANCH  10  26
ATOM     26  C   UNL     1      -0.925  -6.588   3.110  0.00  0.00    +0.101 C 
ATOM     27  N   UNL     1      -1.500  -6.494   4.084  0.00  0.00    -0.191 NA
ENDBRANCH  10  26
BRANCH   5  28
ATOM     28  O   UNL     1       3.992  -8.188  -2.616  0.00  0.00    -0.422 OA
BRANCH  28  29
ATOM     29  C   UNL     1       4.881  -9.171  -2.370  0.00  0.00    +0.345 C 
ATOM     30  O   UNL     1       4.976  -9.639  -1.253  0.00  0.00    -0.245 OA
BRANCH  29  31
ATOM     31  C   UNL     1       5.738  -9.678  -3.456  0.00  0.00    +0.067 A 
ATOM     32  C   UNL     1       5.734  -9.069  -4.706  0.00  0.00    +0.015 A 
ATOM     33  C   UNL     1       6.543  -9.549  -5.727  0.00  0.00    +0.001 A 
ATOM     34  C   UNL     1       7.363 -10.621  -5.550  0.00  0.00    +0.008 A 
ATOM     35  C   UNL     1       7.419 -11.284  -4.313  0.00  0.00    -0.017 A 
ATOM     36  C   UNL     1       6.615 -10.827  -3.240  0.00  0.00    -0.004 A 
ATOM     37  C   UNL     1       6.671 -11.482  -2.005  0.00  0.00    +0.009 A 
ATOM     38  C   UNL     1       7.503 -12.551  -1.846  0.00  0.00    +0.001 A 
ATOM     39  C   UNL     1       8.299 -13.000  -2.897  0.00  0.00    +0.001 A 
ATOM     40  C   UNL     1       8.261 -12.393  -4.115  0.00  0.00    +0.008 A 
ENDBRANCH  29  31
ENDBRANCH  28  29
ENDBRANCH   5  28
TORSDOF 10
