REMARK  Name = ZINC01201466
REMARK  10 active torsions:
REMARK  status: ('A' for Active; 'I' for Inactive)
REMARK    1  A    between atoms: C_1  and  C_2
REMARK    2  A    between atoms: C_3  and  C_32
REMARK    3  A    between atoms: C_4  and  C_22
REMARK    4  A    between atoms: C_10  and  C_15
REMARK    5  A    between atoms: C_25  and  O_30
REMARK    6  A    between atoms: C_27  and  O_28
REMARK    7  A    between atoms: O_28  and  C_29
REMARK    8  A    between atoms: O_30  and  C_31
REMARK    9  A    between atoms: C_32  and  O_34
REMARK   10  A    between atoms: O_34  and  C_35
REMARK                            x       y       z     vdW  Elec       q    Type
REMARK                         _______ _______ _______ _____ _____    ______ ____
ROOT
ATOM      1  C   UNL     1      -7.338  -0.218   3.787  0.00  0.00    +0.061 C 
ATOM      2  C   UNL     1      -6.593  -0.140   2.479  0.00  0.00    +0.016 C 
ATOM      3  C   UNL     1      -7.210  -0.493   1.337  0.00  0.00    +0.065 C 
ATOM      4  C   UNL     1      -6.497  -0.435   0.018  0.00  0.00    +0.096 C 
ATOM      5  C   UNL     1      -5.267   0.433   0.104  0.00  0.00    +0.024 C 
ATOM      6  C   UNL     1      -4.730   0.751   1.302  0.00  0.00    +0.016 C 
ATOM      7  N   UNL     1      -5.296   0.290   2.461  0.00  0.00    -0.321 N 
ATOM      8  C   UNL     1      -3.502   1.621   1.396  0.00  0.00    +0.059 C 
ATOM      9  C   UNL     1      -2.628   1.413   0.157  0.00  0.00    +0.032 C 
ATOM     10  C   UNL     1      -3.458   1.752  -1.085  0.00  0.00    +0.088 C 
ATOM     11  C   UNL     1      -4.697   0.898  -1.093  0.00  0.00    +0.162 C 
ATOM     12  O   UNL     1      -5.213   0.606  -2.153  0.00  0.00    -0.292 OA
ATOM     13  H   UNL     1      -4.696   0.268   3.382  0.00  0.00    +0.152 HD
ENDROOT
BRANCH   9  14
ATOM     14  C   UNL     1      -1.427   2.321   0.227  0.00  0.00    -0.043 A 
ATOM     15  C   UNL     1      -0.153   1.784   0.211  0.00  0.00    +0.005 A 
ATOM     16  C   UNL     1       0.949   2.616   0.269  0.00  0.00    +0.020 A 
ATOM     17  C   UNL     1       0.777   3.986   0.348  0.00  0.00    +0.041 A 
ATOM     18  C   UNL     1      -0.498   4.523   0.369  0.00  0.00    +0.020 A 
ATOM     19  C   UNL     1      -1.599   3.690   0.312  0.00  0.00    +0.005 A 
ATOM     20 CL   UNL     1       2.161   5.032   0.420  0.00  0.00    -0.084 Cl
ENDBRANCH   9  14
BRANCH   4  21
ATOM     21  C   UNL     1      -6.092  -1.829  -0.387  0.00  0.00    +0.007 A 
ATOM     22  C   UNL     1      -5.218  -2.551   0.403  0.00  0.00    +0.012 A 
ATOM     23  C   UNL     1      -4.849  -3.831   0.038  0.00  0.00    +0.046 A 
ATOM     24  C   UNL     1      -5.347  -4.391  -1.131  0.00  0.00    +0.124 A 
ATOM     25  C   UNL     1      -6.220  -3.667  -1.928  0.00  0.00    +0.091 A 
ATOM     26  C   UNL     1      -6.593  -2.385  -1.556  0.00  0.00    +0.128 A 
BRANCH  26  27
ATOM     27  O   UNL     1      -7.448  -1.672  -2.335  0.00  0.00    -0.495 OA
ATOM     28  C   UNL     1      -7.924  -2.306  -3.524  0.00  0.00    +0.277 C 
ENDBRANCH  26  27
BRANCH  24  29
ATOM     29  O   UNL     1      -4.979  -5.648  -1.493  0.00  0.00    -0.495 OA
ATOM     30  C   UNL     1      -4.077  -6.336  -0.624  0.00  0.00    +0.277 C 
ENDBRANCH  24  29
ENDBRANCH   4  21
BRANCH   3  31
ATOM     31  C   UNL     1      -8.555  -0.927   1.381  0.00  0.00    +0.337 C 
ATOM     32  O   UNL     1      -9.444  -0.194   0.990  0.00  0.00    -0.245 OA
BRANCH  31  33
ATOM     33  O   UNL     1      -8.853  -2.154   1.857  0.00  0.00    -0.465 OA
ATOM     34  C   UNL     1     -10.233  -2.526   1.872  0.00  0.00    +0.280 C 
ENDBRANCH  31  33
ENDBRANCH   3  31
TORSDOF 6
