REMARK  Name = ZINC35746972
REMARK  13 active torsions:
REMARK  status: ('A' for Active; 'I' for Inactive)
REMARK    1  A    between atoms: C_1  and  C_2
REMARK    2  A    between atoms: C_5  and  C_35
REMARK    3  A    between atoms: C_6  and  C_8
REMARK    4  A    between atoms: C_17  and  C_19
REMARK    5  A    between atoms: C_19  and  N_20
REMARK    6  A    between atoms: N_20  and  C_21
REMARK    7  A    between atoms: N_20  and  C_28
REMARK    8  A    between atoms: C_21  and  C_22
REMARK    9  A    between atoms: C_28  and  C_29
REMARK   10  A    between atoms: C_29  and  C_31
REMARK   11  A    between atoms: C_29  and  O_34
REMARK   12  A    between atoms: C_31  and  O_32
REMARK   13  A    between atoms: O_32  and  C_33
REMARK                            x       y       z     vdW  Elec       q    Type
REMARK                         _______ _______ _______ _____ _____    ______ ____
ROOT
ATOM      1  C   UNL     1       0.259  -2.265   3.325  0.00  0.00    +0.004 A 
ATOM      2  C   UNL     1      -0.788  -2.308   4.184  0.00  0.00    +0.056 A 
ATOM      3  S   UNL     1      -0.317  -3.575   5.346  0.00  0.00    -0.076 S 
ATOM      4  C   UNL     1       1.260  -4.013   4.659  0.00  0.00    +0.116 A 
ATOM      5  C   UNL     1       1.381  -3.171   3.542  0.00  0.00    +0.080 A 
ATOM      6  C   UNL     1       2.585  -3.319   2.782  0.00  0.00    +0.260 A 
ATOM      7  O   UNL     1       2.784  -2.629   1.797  0.00  0.00    -0.267 OA
ATOM      8  N   UNL     1       3.495  -4.231   3.172  0.00  0.00    -0.312 N 
ATOM      9  H   UNL     1       4.313  -4.336   2.662  0.00  0.00    +0.170 HD
ATOM     10  C   UNL     1       3.290  -5.008   4.267  0.00  0.00    +0.094 A 
ATOM     11  N   UNL     1       2.206  -4.889   4.986  0.00  0.00    -0.229 NA
ENDROOT
BRANCH   1  17
ATOM     12  C   UNL     1       0.328   2.417   1.595  0.00  0.00    +0.044 C 
ATOM     13  C   UNL     1       0.294   0.931   1.347  0.00  0.00    -0.050 A 
ATOM     14  C   UNL     1       0.265   0.447   0.052  0.00  0.00    +0.003 A 
ATOM     15  C   UNL     1       0.233  -0.916  -0.183  0.00  0.00    +0.004 A 
ATOM     16  C   UNL     1       0.232  -1.801   0.876  0.00  0.00    -0.043 A 
ATOM     17  C   UNL     1       0.262  -1.319   2.184  0.00  0.00    -0.013 A 
ATOM     18  C   UNL     1       0.299   0.056   2.414  0.00  0.00    +0.012 A 
ATOM     19  C   UNL     1       0.197  -3.286   0.619  0.00  0.00    +0.044 C 
ENDBRANCH   1  17
BRANCH  10  20
ATOM     20  C   UNL     1       4.336  -6.016   4.666  0.00  0.00    -0.003 C 
BRANCH  20  21
ATOM     21  N   UNL     1       3.894  -6.730   5.871  0.00  0.00    +0.389 N 
ATOM     22  H   UNL     1       3.680  -6.064   6.598  0.00  0.00    -0.081 HD
BRANCH  21  23
ATOM     23  C   UNL     1       2.694  -7.518   5.560  0.00  0.00    -0.042 C 
BRANCH  23  24
ATOM     24  C   UNL     1       3.012  -8.509   4.470  0.00  0.00    -0.064 A 
ATOM     25  C   UNL     1       2.861  -8.149   3.144  0.00  0.00    +0.002 A 
ATOM     26  C   UNL     1       3.153  -9.058   2.144  0.00  0.00    +0.000 A 
ATOM     27  C   UNL     1       3.595 -10.326   2.470  0.00  0.00    +0.000 A 
ATOM     28  C   UNL     1       3.747 -10.686   3.797  0.00  0.00    +0.000 A 
ATOM     29  C   UNL     1       3.459  -9.775   4.796  0.00  0.00    +0.002 A 
ENDBRANCH  23  24
ENDBRANCH  21  23
BRANCH  21  30
ATOM     30  C   UNL     1       4.963  -7.627   6.329  0.00  0.00    -0.044 C 
BRANCH  30  31
ATOM     31  C   UNL     1       4.558  -8.267   7.659  0.00  0.00    +0.124 C 
BRANCH  31  32
ATOM     32  O   UNL     1       4.379  -7.247   8.643  0.00  0.00    -0.391 OA
ATOM     33  H   UNL     1       5.171  -6.719   8.811  0.00  0.00    +0.210 HD
ENDBRANCH  31  32
BRANCH  31  34
ATOM     34  C   UNL     1       5.654  -9.231   8.116  0.00  0.00    +0.188 C 
BRANCH  34  35
ATOM     35  O   UNL     1       5.225  -9.915   9.295  0.00  0.00    -0.381 OA
ATOM     36  C   UNL     1       6.182 -10.845   9.808  0.00  0.00    +0.194 C 
ENDBRANCH  34  35
ENDBRANCH  31  34
ENDBRANCH  30  31
ENDBRANCH  21  30
ENDBRANCH  20  21
ENDBRANCH  10  20
TORSDOF 10
