REMARK  Name = ZINC21167908
REMARK  12 active torsions:
REMARK  status: ('A' for Active; 'I' for Inactive)
REMARK    1  A    between atoms: C_1  and  C_2
REMARK    2  A    between atoms: C_5  and  N_8
REMARK    3  A    between atoms: C_9  and  C_35
REMARK    4  A    between atoms: C_10  and  C_32
REMARK    5  A    between atoms: C_15  and  O_17
REMARK    6  A    between atoms: O_17  and  C_18
REMARK    7  A    between atoms: C_18  and  C_19
REMARK    8  A    between atoms: C_19  and  C_21
REMARK    9  A    between atoms: C_19  and  O_31
REMARK   10  A    between atoms: C_21  and  N_22
REMARK   11  A    between atoms: C_25  and  C_28
REMARK   12  A    between atoms: C_32  and  C_34
REMARK                            x       y       z     vdW  Elec       q    Type
REMARK                         _______ _______ _______ _____ _____    ______ ____
ROOT
ATOM      1  N   UNL     1       0.312   0.487   5.130  0.00  0.00    -0.313 N 
ATOM      2  C   UNL     1      -0.636   0.160   4.221  0.00  0.00    +0.032 A 
ATOM      3  C   UNL     1      -0.041  -0.063   2.996  0.00  0.00    +0.046 A 
ATOM      4  C   UNL     1       1.407   0.147   3.195  0.00  0.00    +0.014 A 
ATOM      5  C   UNL     1       1.565   0.494   4.545  0.00  0.00    +0.055 A 
ATOM      6  C   UNL     1       2.839   0.760   5.037  0.00  0.00    +0.030 A 
ATOM      7  C   UNL     1       3.930   0.689   4.199  0.00  0.00    +0.048 A 
ATOM      8  C   UNL     1       3.773   0.351   2.859  0.00  0.00    +0.121 A 
ATOM      9  C   UNL     1       2.514   0.083   2.354  0.00  0.00    +0.056 A 
ATOM     10  C   UNL     1      -2.112   0.053   4.503  0.00  0.00    +0.064 C 
ENDROOT
BRANCH   1  15
ATOM     11  C   UNL     1      -0.716   1.668  10.585  0.00  0.00    +0.044 C 
ATOM     12  C   UNL     1      -0.443   1.354   9.136  0.00  0.00    -0.050 A 
ATOM     13  C   UNL     1      -0.690   0.085   8.647  0.00  0.00    +0.005 A 
ATOM     14  C   UNL     1      -0.441  -0.206   7.320  0.00  0.00    +0.026 A 
ATOM     15  C   UNL     1       0.058   0.779   6.476  0.00  0.00    +0.047 A 
ATOM     16  C   UNL     1       0.310   2.051   6.973  0.00  0.00    +0.026 A 
ATOM     17  C   UNL     1       0.053   2.337   8.299  0.00  0.00    +0.005 A 
ENDBRANCH   1  15
BRANCH   3  18
ATOM     18  C   UNL     1      -0.690  -0.426   1.790  0.00  0.00    +0.162 C 
ATOM     19  O   UNL     1      -1.107   0.434   1.042  0.00  0.00    -0.292 OA
ATOM     20  C   UNL     1      -0.863  -1.881   1.437  0.00  0.00    +0.091 C 
ENDBRANCH   3  18
BRANCH   8  21
ATOM     21  O   UNL     1       4.859   0.284   2.044  0.00  0.00    -0.489 OA
BRANCH  21  22
ATOM     22  C   UNL     1       6.130   0.573   2.632  0.00  0.00    +0.258 C 
BRANCH  22  23
ATOM     23  C   UNL     1       7.223   0.448   1.569  0.00  0.00    +0.135 C 
BRANCH  23  24
ATOM     24  O   UNL     1       7.309  -0.910   1.131  0.00  0.00    -0.390 OA
ATOM     25  H   UNL     1       8.044  -1.195   0.364  0.00  0.00    +0.210 HD
ENDBRANCH  23  24
BRANCH  23  26
ATOM     26  C   UNL     1       8.565   0.877   2.165  0.00  0.00    -0.044 C 
BRANCH  26  27
ATOM     27  N   UNL     1       9.621   0.722   1.156  0.00  0.00    +0.381 N 
ATOM     28  C   UNL     1       9.255   1.394  -0.097  0.00  0.00    -0.078 C 
ATOM     29  C   UNL     1      10.306   1.090  -1.167  0.00  0.00    -0.006 C 
ATOM     30  C   UNL     1      11.674   1.580  -0.685  0.00  0.00    +0.071 C 
ATOM     31  C   UNL     1      12.011   0.901   0.646  0.00  0.00    -0.006 C 
ATOM     32  C   UNL     1      10.910   1.210   1.663  0.00  0.00    -0.078 C 
ATOM     33  H   UNL     1       9.730  -0.351   0.941  0.00  0.00    -0.082 HD
BRANCH  30  34
ATOM     34  C   UNL     1      12.724   1.230  -1.708  0.00  0.00    +0.213 C 
ATOM     35  O   UNL     1      13.650   0.508  -1.404  0.00  0.00    -0.276 OA
ATOM     36  N   UNL     1      12.633   1.718  -2.961  0.00  0.00    -0.329 N 
ATOM     37  H   UNL     1      13.399   1.462  -3.708  0.00  0.00    +0.145 HD
ATOM     38  H   UNL     1      11.793   2.372  -3.236  0.00  0.00    +0.145 HD
ENDBRANCH  30  34
ENDBRANCH  26  27
ENDBRANCH  23  26
ENDBRANCH  22  23
ENDBRANCH  21  22
ENDBRANCH   8  21
TORSDOF 9
