REMARK  Name = ZINC09419101
REMARK  4 active torsions:
REMARK  status: ('A' for Active; 'I' for Inactive)
REMARK    1  A    between atoms: C_1  and  C_2
REMARK    2  A    between atoms: C_2  and  C_20
REMARK    3  A    between atoms: C_6  and  C_9
REMARK    4  A    between atoms: C_9  and  O_18
REMARK                            x       y       z     vdW  Elec       q    Type
REMARK                         _______ _______ _______ _____ _____    ______ ____
ROOT
ATOM      1  C   UNL     1       0.853  -1.247   3.564  0.00  0.00    +0.252 C 
ATOM      2  C   UNL     1       0.810  -0.169   4.631  0.00  0.00    +0.266 C 
ATOM      3  N   UNL     1       0.288  -0.511   5.831  0.00  0.00    -0.235 N 
ATOM      4  C   UNL     1      -0.170  -1.748   6.064  0.00  0.00    +0.332 C 
ATOM      5  N   UNL     1      -0.164  -2.745   5.173  0.00  0.00    -0.125 NA
ATOM      6  C   UNL     1       0.302  -2.603   3.959  0.00  0.00    +0.286 C 
ATOM      7  O   UNL     1       0.292  -3.627   3.090  0.00  0.00    -0.269 OA
ATOM      8  O   UNL     1      -0.624  -1.981   7.168  0.00  0.00    -0.250 OA
ATOM      9  O   UNL     1       1.225   0.950   4.418  0.00  0.00    -0.271 OA
ATOM     10  H   UNL     1       0.245   0.152   6.537  0.00  0.00    +0.159 HD
ENDROOT
BRANCH   1  16
ATOM     11  C   UNL     1      -0.019   1.526   0.010  0.00  0.00    +0.019 C 
ATOM     12  C   UNL     1       0.002  -0.004   0.002  0.00  0.00    +0.028 C 
ATOM     13  C   UNL     1      -1.435  -0.534   0.012  0.00  0.00    +0.022 C 
ATOM     14  C   UNL     1      -2.118  -0.086   1.308  0.00  0.00    +0.080 C 
ATOM     15  C   UNL     1      -1.310  -0.572   2.484  0.00  0.00    +0.166 C 
ATOM     16  C   UNL     1       0.076  -0.755   2.370  0.00  0.00    +0.087 C 
ATOM     17  C   UNL     1       0.730  -0.503   1.222  0.00  0.00    +0.172 C 
ATOM     18  O   UNL     1       2.061  -0.700   1.162  0.00  0.00    -0.292 OA
ATOM     19  O   UNL     1      -1.863  -0.807   3.539  0.00  0.00    -0.292 OA
ATOM     20  C   UNL     1       0.718  -0.497  -1.257  0.00  0.00    +0.019 C 
ENDBRANCH   1  16
BRANCH   1  21
ATOM     21  O   UNL     1       2.214  -1.418   3.165  0.00  0.00    -0.368 OA
ATOM     22  H   UNL     1       2.794  -1.734   3.872  0.00  0.00    +0.212 HD
ENDBRANCH   1  21
TORSDOF 2
