REMARK  Name = ZINC00931203
REMARK  9 active torsions:
REMARK  status: ('A' for Active; 'I' for Inactive)
REMARK    1  A    between atoms: C_1  and  C_2
REMARK    2  A    between atoms: C_4  and  N_13
REMARK    3  A    between atoms: C_7  and  N_8
REMARK    4  A    between atoms: N_13  and  C_14
REMARK    5  A    between atoms: C_14  and  C_16
REMARK    6  A    between atoms: C_14  and  C_21
REMARK    7  A    between atoms: N_23  and  C_24
REMARK    8  A    between atoms: C_24  and  C_25
REMARK    9  A    between atoms: C_31  and  C_33
REMARK                            x       y       z     vdW  Elec       q    Type
REMARK                         _______ _______ _______ _____ _____    ______ ____
ROOT
ATOM      1  N   UNL     1       3.808   1.699  -0.066  0.00  0.00    -0.250 N 
ATOM      2  C   UNL     1       2.872   0.871   0.440  0.00  0.00    +0.272 C 
ATOM      3  O   UNL     1       3.115  -0.313   0.570  0.00  0.00    -0.268 OA
ENDROOT
BRANCH   1   7
ATOM      4  C   UNL     1       6.656  -2.173  -1.096  0.00  0.00    +0.046 C 
ATOM      5  C   UNL     1       6.454  -0.684  -0.980  0.00  0.00    -0.023 A 
ATOM      6  C   UNL     1       5.232  -0.182  -0.579  0.00  0.00    +0.029 A 
ATOM      7  C   UNL     1       5.046   1.190  -0.472  0.00  0.00    +0.038 A 
ATOM      8  C   UNL     1       6.088   2.058  -0.774  0.00  0.00    +0.025 A 
ATOM      9  C   UNL     1       7.311   1.556  -1.171  0.00  0.00    +0.030 A 
ATOM     10  C   UNL     1       7.497   0.183  -1.277  0.00  0.00    +0.072 A 
BRANCH  10  11
ATOM     11  N   UNL     1       8.738  -0.327  -1.685  0.00  0.00    -0.200 N 
ATOM     12  C   UNL     1       9.879   0.364  -1.898  0.00  0.00    +0.250 A 
ATOM     13  N   UNL     1      10.792  -0.497  -2.264  0.00  0.00    -0.116 NA
ATOM     14  N   UNL     1      10.304  -1.684  -2.305  0.00  0.00    -0.023 NA
ATOM     15  N   UNL     1       9.060  -1.666  -1.967  0.00  0.00    -0.039 NA
ENDBRANCH  10  11
ENDBRANCH   1   7
BRANCH   2  16
ATOM     16  C   UNL     1       1.549   1.404   0.838  0.00  0.00    +0.144 A 
ATOM     17  C   UNL     1       0.459   0.544   0.967  0.00  0.00    +0.143 A 
ATOM     18  N   UNL     1      -0.720   1.025   1.317  0.00  0.00    -0.259 NA
ATOM     19  C   UNL     1      -0.865   2.317   1.556  0.00  0.00    +0.130 A 
ATOM     20  C   UNL     1       0.218   3.175   1.429  0.00  0.00    +0.131 A 
ATOM     21  N   UNL     1       1.397   2.704   1.075  0.00  0.00    -0.247 NA
ENDBRANCH   2  16
BRANCH   1  22
ATOM     22  C   UNL     1       3.528   3.131  -0.191  0.00  0.00    +0.204 C 
BRANCH  22  23
ATOM     23  C   UNL     1       4.264   3.883   0.888  0.00  0.00    +0.019 A 
ATOM     24  C   UNL     1       3.846   4.935   1.633  0.00  0.00    +0.013 A 
ATOM     25  C   UNL     1       4.701   5.468   2.579  0.00  0.00    +0.008 A 
ATOM     26  C   UNL     1       5.936   4.931   2.726  0.00  0.00    +0.045 A 
ATOM     27  S   UNL     1       5.918   3.625   1.509  0.00  0.00    -0.099 S 
ENDBRANCH  22  23
BRANCH  22  28
ATOM     28  C   UNL     1       3.984   3.616  -1.543  0.00  0.00    +0.239 C 
ATOM     29  O   UNL     1       4.494   2.842  -2.325  0.00  0.00    -0.273 OA
ATOM     30  N   UNL     1       3.827   4.911  -1.883  0.00  0.00    -0.309 N 
ATOM     31  H   UNL     1       3.420   5.531  -1.257  0.00  0.00    +0.149 HD
BRANCH  30  32
ATOM     32  C   UNL     1       4.271   5.383  -3.197  0.00  0.00    +0.139 C 
BRANCH  32  33
ATOM     33  C   UNL     1       3.983   6.856  -3.325  0.00  0.00    -0.030 A 
ATOM     34  C   UNL     1       2.774   7.282  -3.844  0.00  0.00    +0.005 A 
ATOM     35  C   UNL     1       2.508   8.633  -3.957  0.00  0.00    +0.000 A 
ATOM     36  C   UNL     1       3.454   9.560  -3.561  0.00  0.00    +0.000 A 
ATOM     37  C   UNL     1       4.665   9.134  -3.048  0.00  0.00    +0.000 A 
ATOM     38  C   UNL     1       4.929   7.783  -2.930  0.00  0.00    +0.005 A 
ENDBRANCH  32  33
ENDBRANCH  30  32
ENDBRANCH  22  28
ENDBRANCH   1  22
TORSDOF 8
