REMARK  Name = ZINC12363672
REMARK  7 active torsions:
REMARK  status: ('A' for Active; 'I' for Inactive)
REMARK    1  A    between atoms: C_2  and  C_3
REMARK    2  A    between atoms: C_3  and  N_4
REMARK    3  A    between atoms: C_5  and  N_31
REMARK    4  A    between atoms: C_10  and  S_11
REMARK    5  A    between atoms: S_11  and  C_12
REMARK    6  A    between atoms: C_12  and  C_13
REMARK    7  A    between atoms: N_18  and  C_21
REMARK                            x       y       z     vdW  Elec       q    Type
REMARK                         _______ _______ _______ _____ _____    ______ ____
ROOT
ATOM      1  C   UNL     1       0.940  -5.741   1.562  0.00  0.00    +0.226 C 
ATOM      2  O   UNL     1       1.003  -5.050   2.556  0.00  0.00    -0.275 OA
ATOM      3  N   UNL     1       1.397  -7.008   1.592  0.00  0.00    -0.304 N 
ATOM      4  C   UNL     1       1.336  -7.863   0.396  0.00  0.00    +0.089 C 
ATOM      5  C   UNL     1       2.720  -8.479   0.168  0.00  0.00    -0.059 C 
ATOM      6  N   UNL     1       3.153  -9.173   1.388  0.00  0.00    +0.385 N 
ATOM      7  C   UNL     1       3.325  -8.206   2.479  0.00  0.00    -0.059 C 
ATOM      8  C   UNL     1       1.976  -7.575   2.820  0.00  0.00    +0.089 C 
ATOM      9  H   UNL     1       2.456  -9.854   1.650  0.00  0.00    -0.081 HD
ENDROOT
BRANCH   6  10
ATOM     10  C   UNL     1       4.429  -9.855   1.134  0.00  0.00    -0.065 C 
ATOM     11  C   UNL     1       4.248 -10.871   0.005  0.00  0.00    -0.009 C 
ATOM     12  C   UNL     1       5.577 -11.582  -0.259  0.00  0.00    -0.012 C 
ATOM     13  C   UNL     1       6.029 -12.306   1.011  0.00  0.00    +0.007 C 
ATOM     14  C   UNL     1       6.210 -11.290   2.140  0.00  0.00    -0.012 C 
ATOM     15  C   UNL     1       4.881 -10.579   2.404  0.00  0.00    -0.009 C 
ATOM     16  C   UNL     1       7.267 -10.261   1.736  0.00  0.00    +0.007 C 
ATOM     17  C   UNL     1       6.815  -9.537   0.466  0.00  0.00    -0.012 C 
ATOM     18  C   UNL     1       6.635 -10.553  -0.663  0.00  0.00    +0.007 C 
ATOM     19  C   UNL     1       5.486  -8.826   0.730  0.00  0.00    -0.009 C 
ENDBRANCH   6  10
BRANCH   1  20
ATOM     20  C   UNL     1       0.350  -5.182   0.292  0.00  0.00    +0.173 C 
BRANCH  20  21
ATOM     21  S   UNL     1      -0.170  -3.467   0.571  0.00  0.00    -0.078 S 
BRANCH  21  28
ATOM     22  N   UNL     1      -1.318  -1.700  -1.126  0.00  0.00    -0.305 N 
ATOM     23  C   UNL     1      -1.829  -1.289  -2.329  0.00  0.00    +0.104 A 
ATOM     24  C   UNL     1      -1.843  -2.164  -3.377  0.00  0.00    +0.113 A 
ATOM     25  C   UNL     1      -1.331  -3.463  -3.186  0.00  0.00    +0.276 A 
ATOM     26  O   UNL     1      -1.333  -4.266  -4.109  0.00  0.00    -0.266 OA
ATOM     27  N   UNL     1      -0.842  -3.816  -1.987  0.00  0.00    -0.185 NA
ATOM     28  C   UNL     1      -0.828  -2.963  -0.984  0.00  0.00    +0.175 A 
BRANCH  23  29
ATOM     29  N   UNL     1      -2.320  -0.013  -2.480  0.00  0.00    -0.344 N 
ATOM     30  H   UNL     1      -2.307   0.603  -1.731  0.00  0.00    +0.144 HD
ATOM     31  H   UNL     1      -2.680   0.270  -3.334  0.00  0.00    +0.144 HD
ENDBRANCH  23  29
BRANCH  22  32
ATOM     32  C   UNL     1      -1.293  -0.775   0.010  0.00  0.00    +0.152 C 
BRANCH  32  34
ATOM     33  C   UNL     1      -0.016   1.306   0.009  0.00  0.00    +0.005 C 
ATOM     34  C   UNL     1       0.002  -0.004   0.002  0.00  0.00    -0.013 C 
ENDBRANCH  32  34
ENDBRANCH  22  32
ENDBRANCH  21  28
ENDBRANCH  20  21
ENDBRANCH   1  20
TORSDOF 7
