REMARK  Name = ZINC06580521
REMARK  9 active torsions:
REMARK  status: ('A' for Active; 'I' for Inactive)
REMARK    1  A    between atoms: C_1  and  C_2
REMARK    2  A    between atoms: C_2  and  C_3
REMARK    3  A    between atoms: C_3  and  N_51
REMARK    4  A    between atoms: C_4  and  C_5
REMARK    5  A    between atoms: C_4  and  N_51
REMARK    6  A    between atoms: C_11  and  C_16
REMARK    7  A    between atoms: C_17  and  C_18
REMARK    8  A    between atoms: C_17  and  N_51
REMARK    9  A    between atoms: N_20  and  C_21
REMARK                            x       y       z     vdW  Elec       q    Type
REMARK                         _______ _______ _______ _____ _____    ______ ____
ROOT
ATOM      1  N   UNL     1      -2.213   1.659  -1.145  0.00  0.00    +0.389 N 
ATOM      2  H   UNL     1      -1.804   1.808  -2.075  0.00  0.00    -0.081 HD
ENDROOT
BRANCH   1   3
ATOM      3  C   UNL     1      -2.414   0.210  -0.935  0.00  0.00    -0.078 C 
BRANCH   3   5
ATOM      4  C   UNL     1      -3.045  -1.573   0.698  0.00  0.00    +0.002 C 
ATOM      5  C   UNL     1      -2.893  -0.064   0.492  0.00  0.00    -0.022 C 
ENDBRANCH   3   5
ENDBRANCH   1   3
BRANCH   1   6
ATOM      6  C   UNL     1      -1.289   2.194  -0.123  0.00  0.00    -0.022 C 
BRANCH   6   7
ATOM      7  C   UNL     1       0.084   1.619  -0.360  0.00  0.00    +0.032 A 
ATOM      8  C   UNL     1       1.121   2.445  -0.747  0.00  0.00    +0.092 A 
ATOM      9  C   UNL     1       2.385   1.887  -0.967  0.00  0.00    +0.258 A 
ATOM     10  O   UNL     1       3.323   2.591  -1.308  0.00  0.00    -0.267 OA
ATOM     11  N   UNL     1       2.552   0.558  -0.795  0.00  0.00    -0.268 N 
ATOM     12  C   UNL     1       3.777   0.000  -1.005  0.00  0.00    +0.099 A 
ATOM     13  C   UNL     1       3.969  -1.328  -0.839  0.00  0.00    -0.034 A 
ATOM     14  C   UNL     1       2.902  -2.150  -0.447  0.00  0.00    +0.008 A 
ATOM     15  C   UNL     1       1.673  -1.601  -0.234  0.00  0.00    +0.047 A 
ATOM     16  C   UNL     1       1.494  -0.217  -0.412  0.00  0.00    +0.140 A 
ATOM     17  N   UNL     1       0.293   0.321  -0.204  0.00  0.00    -0.236 NA
ATOM     18  C   UNL     1       5.331  -1.926  -1.076  0.00  0.00    +0.045 C 
ENDBRANCH   6   7
ENDBRANCH   1   6
BRANCH   1  19
ATOM     19  C   UNL     1      -3.510   2.365  -1.072  0.00  0.00    +0.019 C 
BRANCH  19  20
ATOM     20  C   UNL     1      -4.287   2.081  -2.331  0.00  0.00    +0.201 C 
ATOM     21  O   UNL     1      -3.778   1.441  -3.227  0.00  0.00    -0.278 OA
ATOM     22  N   UNL     1      -5.548   2.538  -2.462  0.00  0.00    -0.285 N 
ATOM     23  H   UNL     1      -5.930   3.111  -1.779  0.00  0.00    +0.155 HD
BRANCH  22  24
ATOM     24  C   UNL     1      -6.309   2.184  -3.585  0.00  0.00    +0.072 A 
ATOM     25  C   UNL     1      -5.678   1.886  -4.785  0.00  0.00    +0.029 A 
ATOM     26  C   UNL     1      -6.428   1.533  -5.890  0.00  0.00    +0.043 A 
ATOM     27  C   UNL     1      -7.809   1.484  -5.806  0.00  0.00    +0.161 A 
ATOM     28  C   UNL     1      -8.444   1.786  -4.611  0.00  0.00    +0.195 A 
ATOM     29  C   UNL     1      -7.695   2.136  -3.499  0.00  0.00    +0.182 A 
ATOM     30  F   UNL     1      -8.312   2.430  -2.333  0.00  0.00    -0.200 F 
ATOM     31  F   UNL     1      -9.791   1.739  -4.530  0.00  0.00    -0.199 F 
ATOM     32  F   UNL     1      -8.540   1.143  -6.890  0.00  0.00    -0.202 F 
ENDBRANCH  22  24
ENDBRANCH  19  20
ENDBRANCH   1  19
TORSDOF 7
