REMARK  Name = ZINC35523534
REMARK  6 active torsions:
REMARK  status: ('A' for Active; 'I' for Inactive)
REMARK    1  A    between atoms: C_1  and  C_2
REMARK    2  A    between atoms: C_7  and  N_8
REMARK    3  A    between atoms: C_14  and  C_16
REMARK    4  A    between atoms: C_19  and  C_21
REMARK    5  A    between atoms: C_21  and  N_22
REMARK    6  A    between atoms: C_30  and  C_32
REMARK                            x       y       z     vdW  Elec       q    Type
REMARK                         _______ _______ _______ _____ _____    ______ ____
ROOT
ATOM      1  C   UNL     1       1.325   1.112   6.992  0.00  0.00    +0.190 A 
ATOM      2  C   UNL     1       1.464   1.683   8.225  0.00  0.00    +0.055 A 
ATOM      3  C   UNL     1       2.843   1.769   8.476  0.00  0.00    +0.043 A 
ATOM      4  C   UNL     1       3.476   1.252   7.400  0.00  0.00    +0.090 A 
ATOM      5  O   UNL     1       2.558   0.853   6.510  0.00  0.00    -0.457 OA
ENDROOT
BRANCH   1  12
ATOM      6  N   UNL     1      -0.150   0.737   2.332  0.00  0.00    -0.327 N 
ATOM      7  C   UNL     1      -1.396   0.764   3.111  0.00  0.00    +0.124 C 
ATOM      8  C   UNL     1      -1.189  -0.047   4.396  0.00  0.00    +0.127 C 
ATOM      9  N   UNL     1       0.057   0.398   5.036  0.00  0.00    -0.292 N 
ATOM     10  C   UNL     1       1.303   0.371   4.257  0.00  0.00    +0.127 C 
ATOM     11  C   UNL     1       1.096   1.177   2.974  0.00  0.00    +0.124 C 
ATOM     12  C   UNL     1       0.056   0.824   6.315  0.00  0.00    +0.282 C 
ATOM     13  O   UNL     1      -0.997   0.969   6.907  0.00  0.00    -0.267 OA
BRANCH   6  20
ATOM     14  C   UNL     1      -0.575   2.659   0.278  0.00  0.00    +0.045 C 
ATOM     15  C   UNL     1      -0.353   1.200  -0.028  0.00  0.00    -0.029 A 
ATOM     16  C   UNL     1      -0.346   0.761  -1.338  0.00  0.00    +0.005 A 
ATOM     17  C   UNL     1      -0.143  -0.577  -1.619  0.00  0.00    +0.000 A 
ATOM     18  C   UNL     1       0.054  -1.481  -0.591  0.00  0.00    +0.002 A 
ATOM     19  C   UNL     1       0.049  -1.049   0.721  0.00  0.00    +0.023 A 
ATOM     20  C   UNL     1      -0.150   0.296   1.007  0.00  0.00    +0.033 A 
ENDBRANCH   6  20
ENDBRANCH   1  12
BRANCH   4  21
ATOM     21  C   UNL     1       4.969   1.140   7.230  0.00  0.00    -0.002 C 
BRANCH  21  22
ATOM     22  N   UNL     1       5.426  -0.151   7.761  0.00  0.00    +0.394 N 
ATOM     23  C   UNL     1       4.851  -1.240   6.959  0.00  0.00    -0.055 C 
ATOM     24  C   UNL     1       5.055  -2.579   7.677  0.00  0.00    +0.103 C 
ATOM     25  N   UNL     1       6.473  -2.688   8.043  0.00  0.00    -0.353 N 
ATOM     26  C   UNL     1       7.162  -3.796   8.412  0.00  0.00    +0.086 A 
ATOM     27  C   UNL     1       8.442  -3.434   8.651  0.00  0.00    +0.019 A 
ATOM     28  C   UNL     1       8.540  -2.046   8.421  0.00  0.00    +0.021 A 
ATOM     29  C   UNL     1       7.325  -1.614   8.054  0.00  0.00    +0.009 A 
ATOM     30  C   UNL     1       6.897  -0.210   7.704  0.00  0.00    +0.014 C 
ATOM     31  H   UNL     1       5.124  -0.246   8.719  0.00  0.00    -0.080 HD
BRANCH  30  32
ATOM     32  C   UNL     1       7.483   0.762   8.695  0.00  0.00    -0.020 A 
ATOM     33  C   UNL     1       6.754   1.139   9.807  0.00  0.00    +0.008 A 
ATOM     34  C   UNL     1       7.290   2.030  10.717  0.00  0.00    +0.039 A 
ATOM     35  C   UNL     1       8.559   2.547  10.515  0.00  0.00    +0.126 A 
ATOM     36  C   UNL     1       9.291   2.170   9.403  0.00  0.00    +0.077 A 
ATOM     37  C   UNL     1       8.754   1.272   8.495  0.00  0.00    +0.128 A 
ATOM     38  F   UNL     1       9.469   0.899   7.411  0.00  0.00    -0.205 F 
ATOM     39  F   UNL     1       9.083   3.418  11.405  0.00  0.00    -0.205 F 
ENDBRANCH  30  32
ENDBRANCH  21  22
ENDBRANCH   4  21
TORSDOF 5
