REMARK  Name = ZINC01214156
REMARK  7 active torsions:
REMARK  status: ('A' for Active; 'I' for Inactive)
REMARK    1  A    between atoms: C_1  and  C_2
REMARK    2  A    between atoms: C_5  and  N_8
REMARK    3  A    between atoms: N_8  and  C_9
REMARK    4  A    between atoms: N_8  and  S_23
REMARK    5  A    between atoms: C_9  and  C_10
REMARK    6  A    between atoms: N_12  and  C_13
REMARK    7  A    between atoms: S_23  and  C_26
REMARK                            x       y       z     vdW  Elec       q    Type
REMARK                         _______ _______ _______ _____ _____    ______ ____
ROOT
ATOM      1  N   UNL     1       4.345  -1.096  -1.813  0.00  0.00    -0.194 N 
ENDROOT
BRANCH   1   6
ATOM      2  C   UNL     1       6.676   2.290  -5.719  0.00  0.00    +0.044 C 
ATOM      3  C   UNL     1       6.056   1.390  -4.681  0.00  0.00    -0.050 A 
ATOM      4  C   UNL     1       5.960   0.031  -4.915  0.00  0.00    +0.005 A 
ATOM      5  C   UNL     1       5.393  -0.797  -3.966  0.00  0.00    +0.025 A 
ATOM      6  C   UNL     1       4.919  -0.262  -2.775  0.00  0.00    +0.052 A 
ATOM      7  C   UNL     1       5.013   1.105  -2.544  0.00  0.00    +0.025 A 
ATOM      8  C   UNL     1       5.586   1.926  -3.496  0.00  0.00    +0.005 A 
ENDBRANCH   1   6
BRANCH   1   9
ATOM      9  S   UNL     1       5.040  -1.234  -0.316  0.00  0.00    +0.075 S 
ATOM     10  O   UNL     1       6.411  -0.897  -0.471  0.00  0.00    -0.150 OA
ATOM     11  O   UNL     1       4.617  -2.483   0.215  0.00  0.00    -0.150 OA
BRANCH   9  12
ATOM     12  C   UNL     1       4.328   0.013   0.706  0.00  0.00    +0.109 A 
ATOM     13  C   UNL     1       3.117  -0.215   1.333  0.00  0.00    +0.029 A 
ATOM     14  C   UNL     1       2.558   0.764   2.134  0.00  0.00    +0.002 A 
ATOM     15  C   UNL     1       3.211   1.970   2.307  0.00  0.00    +0.000 A 
ATOM     16  C   UNL     1       4.421   2.198   1.681  0.00  0.00    +0.002 A 
ATOM     17  C   UNL     1       4.980   1.219   0.879  0.00  0.00    +0.029 A 
ENDBRANCH   9  12
ENDBRANCH   1   9
BRANCH   1  18
ATOM     18  C   UNL     1       3.129  -1.849  -2.128  0.00  0.00    +0.227 C 
BRANCH  18  19
ATOM     19  C   UNL     1       1.922  -0.980  -1.885  0.00  0.00    +0.236 C 
ATOM     20  O   UNL     1       2.065   0.157  -1.487  0.00  0.00    -0.274 OA
ATOM     21  N   UNL     1       0.685  -1.465  -2.109  0.00  0.00    -0.284 N 
ATOM     22  H   UNL     1       0.573  -2.352  -2.486  0.00  0.00    +0.155 HD
BRANCH  21  23
ATOM     23  C   UNL     1      -0.435  -0.691  -1.800  0.00  0.00    +0.041 A 
ATOM     24  C   UNL     1      -0.371   0.684  -1.871  0.00  0.00    +0.024 A 
ATOM     25  C   UNL     1      -1.482   1.464  -1.565  0.00  0.00    +0.002 A 
ATOM     26  C   UNL     1      -2.660   0.894  -1.189  0.00  0.00    +0.008 A 
ATOM     27  C   UNL     1      -2.767  -0.505  -1.105  0.00  0.00    -0.016 A 
ATOM     28  C   UNL     1      -1.644  -1.310  -1.419  0.00  0.00    +0.003 A 
ATOM     29  C   UNL     1      -1.751  -2.707  -1.330  0.00  0.00    +0.010 A 
ATOM     30  C   UNL     1      -2.932  -3.270  -0.953  0.00  0.00    +0.001 A 
ATOM     31  C   UNL     1      -4.038  -2.479  -0.648  0.00  0.00    +0.001 A 
ATOM     32  C   UNL     1      -3.970  -1.122  -0.719  0.00  0.00    +0.008 A 
ENDBRANCH  21  23
ENDBRANCH  18  19
ENDBRANCH   1  18
TORSDOF 6
