REMARK  Name = ZINC36348447
REMARK  4 active torsions:
REMARK  status: ('A' for Active; 'I' for Inactive)
REMARK    1  A    between atoms: N_9  and  C_22
REMARK    2  A    between atoms: C_10  and  C_12
REMARK    3  A    between atoms: C_14  and  N_19
REMARK    4  A    between atoms: C_22  and  C_23
REMARK                            x       y       z     vdW  Elec       q    Type
REMARK                         _______ _______ _______ _____ _____    ______ ____
ROOT
ATOM      1  C   UNL     1       0.009   1.526   0.233  0.00  0.00    +0.019 A 
ATOM      2  C   UNL     1       1.362   1.899   0.106  0.00  0.00    +0.024 A 
ATOM      3  C   UNL     1       2.088   0.766   0.044  0.00  0.00    +0.041 A 
ATOM      4  N   UNL     1       1.232  -0.295   0.110  0.00  0.00    -0.349 N 
ATOM      5  C   UNL     1      -0.040   0.178   0.239  0.00  0.00    +0.086 A 
ATOM      6  C   UNL     1       1.625  -1.707   0.034  0.00  0.00    +0.123 C 
ATOM      7  C   UNL     1       2.816  -1.951   0.964  0.00  0.00    +0.037 C 
ATOM      8  C   UNL     1       4.117  -1.672   0.219  0.00  0.00    +0.087 C 
ATOM      9  N   UNL     1       3.947  -0.583  -0.745  0.00  0.00    -0.286 NA
ATOM     10  C   UNL     1       3.590   0.674  -0.072  0.00  0.00    +0.136 C 
ENDROOT
BRANCH  10  11
ATOM     11  C   UNL     1       4.105   1.840  -0.877  0.00  0.00    -0.004 A 
ATOM     12  C   UNL     1       3.718   1.994  -2.195  0.00  0.00    +0.039 A 
ATOM     13  C   UNL     1       4.191   3.063  -2.934  0.00  0.00    +0.127 A 
ATOM     14  C   UNL     1       5.050   3.978  -2.354  0.00  0.00    +0.034 A 
ATOM     15  C   UNL     1       5.437   3.825  -1.036  0.00  0.00    +0.022 A 
ATOM     16  C   UNL     1       4.959   2.758  -0.295  0.00  0.00    +0.046 A 
ATOM     17 CL   UNL     1       5.439   2.569   1.363  0.00  0.00    -0.083 Cl
BRANCH  13  18
ATOM     18  N   UNL     1       3.777   3.227  -4.345  0.00  0.00    +0.056 N 
ATOM     19  O   UNL     1       3.026   2.427  -4.852  0.00  0.00    -0.126 OA
ATOM     20  O   UNL     1       4.190   4.162  -4.991  0.00  0.00    -0.126 OA
ENDBRANCH  13  18
ENDBRANCH  10  11
BRANCH   9  21
ATOM     21  C   UNL     1       5.152  -0.415  -1.568  0.00  0.00    +0.120 C 
BRANCH  21  22
ATOM     22  C   UNL     1       5.367  -1.652  -2.402  0.00  0.00    -0.030 A 
ATOM     23  C   UNL     1       6.125  -2.696  -1.906  0.00  0.00    +0.008 A 
ATOM     24  C   UNL     1       6.323  -3.832  -2.669  0.00  0.00    +0.041 A 
ATOM     25  C   UNL     1       5.762  -3.924  -3.931  0.00  0.00    +0.158 A 
ATOM     26  C   UNL     1       5.002  -2.876  -4.428  0.00  0.00    +0.159 A 
ATOM     27  C   UNL     1       4.801  -1.743  -3.660  0.00  0.00    +0.046 A 
ATOM     28  F   UNL     1       4.454  -2.964  -5.660  0.00  0.00    -0.202 F 
ATOM     29  F   UNL     1       5.956  -5.033  -4.678  0.00  0.00    -0.202 F 
ENDBRANCH  21  22
ENDBRANCH   9  21
TORSDOF 4
