REMARK  Name = ZINC19789769
REMARK  9 active torsions:
REMARK  status: ('A' for Active; 'I' for Inactive)
REMARK    1  A    between atoms: C_1  and  C_2
REMARK    2  A    between atoms: C_2  and  C_3
REMARK    3  A    between atoms: N_9  and  C_10
REMARK    4  A    between atoms: C_10  and  C_11
REMARK    5  A    between atoms: C_18  and  C_31
REMARK    6  A    between atoms: C_19  and  O_22
REMARK    7  A    between atoms: O_22  and  C_23
REMARK    8  A    between atoms: C_26  and  O_29
REMARK    9  A    between atoms: O_29  and  C_30
REMARK                            x       y       z     vdW  Elec       q    Type
REMARK                         _______ _______ _______ _____ _____    ______ ____
ROOT
ATOM      1  C   UNL     1       1.418   2.049  -0.888  0.00  0.00    +0.026 A 
ATOM      2  C   UNL     1       0.619   1.796   0.214  0.00  0.00    +0.184 A 
ATOM      3  C   UNL     1       1.037   2.163   1.492  0.00  0.00    +0.052 A 
ATOM      4  C   UNL     1       2.248   2.768   1.675  0.00  0.00    +0.019 A 
ATOM      5  C   UNL     1       3.064   3.031   0.575  0.00  0.00    +0.068 A 
ATOM      6  C   UNL     1       2.648   2.669  -0.719  0.00  0.00    +0.144 A 
ATOM      7  O   UNL     1       3.446   2.927  -1.775  0.00  0.00    -0.447 OA
ATOM      8  C   UNL     1       4.638   3.524  -1.646  0.00  0.00    +0.254 A 
ATOM      9  C   UNL     1       5.133   3.912  -0.454  0.00  0.00    +0.222 A 
ATOM     10  C   UNL     1       4.373   3.688   0.729  0.00  0.00    +0.235 A 
ATOM     11  O   UNL     1       4.789   4.025   1.825  0.00  0.00    -0.283 OA
ATOM     12  O   UNL     1      -0.584   1.190   0.048  0.00  0.00    -0.288 OA
ENDROOT
BRANCH   8  13
ATOM     13  C   UNL     1       5.460   3.772  -2.884  0.00  0.00    +0.454 C 
ATOM     14  F   UNL     1       6.288   2.670  -3.123  0.00  0.00    -0.163 F 
ATOM     15  F   UNL     1       4.609   3.961  -3.979  0.00  0.00    -0.163 F 
ATOM     16  F   UNL     1       6.245   4.915  -2.702  0.00  0.00    -0.163 F 
ENDBRANCH   8  13
BRANCH   1  17
ATOM     17  C   UNL     1       0.953   1.654  -2.266  0.00  0.00    -0.035 C 
BRANCH  17  23
ATOM     18  C   UNL     1      -0.446   2.345  -4.117  0.00  0.00    -0.068 C 
ATOM     19  C   UNL     1      -1.336   3.477  -4.636  0.00  0.00    -0.015 C 
ATOM     20  C   UNL     1      -0.481   4.725  -4.873  0.00  0.00    -0.003 C 
ATOM     21  C   UNL     1       0.218   5.111  -3.566  0.00  0.00    -0.019 C 
ATOM     22  C   UNL     1       1.063   3.932  -3.078  0.00  0.00    -0.078 C 
ATOM     23  N   UNL     1       0.200   2.763  -2.866  0.00  0.00    +0.384 N 
ATOM     24  H   UNL     1      -0.593   3.056  -2.161  0.00  0.00    -0.081 HD
BRANCH  18  26
ATOM     25  C   UNL     1      -1.931   0.637  -5.173  0.00  0.00    +0.002 C 
ATOM     26  C   UNL     1      -1.299   1.102  -3.860  0.00  0.00    -0.019 C 
ENDBRANCH  18  26
ENDBRANCH  17  23
ENDBRANCH   1  17
BRANCH   9  27
ATOM     27  O   UNL     1       6.352   4.514  -0.382  0.00  0.00    -0.448 OA
BRANCH  27  28
ATOM     28  C   UNL     1       7.445   3.724  -0.216  0.00  0.00    +0.129 A 
ATOM     29  C   UNL     1       7.298   2.348  -0.120  0.00  0.00    +0.050 A 
ATOM     30  C   UNL     1       8.410   1.544   0.044  0.00  0.00    +0.049 A 
ATOM     31  C   UNL     1       9.672   2.114   0.123  0.00  0.00    +0.120 A 
ATOM     32  C   UNL     1       9.819   3.490   0.032  0.00  0.00    +0.049 A 
ATOM     33  C   UNL     1       8.708   4.294  -0.137  0.00  0.00    +0.050 A 
BRANCH  31  34
ATOM     34  O   UNL     1      10.766   1.323   0.289  0.00  0.00    -0.495 OA
ATOM     35  C   UNL     1      10.541  -0.085   0.375  0.00  0.00    +0.277 C 
ENDBRANCH  31  34
ENDBRANCH  27  28
ENDBRANCH   9  27
TORSDOF 7
