REMARK  Name = ZINC45447298
REMARK  9 active torsions:
REMARK  status: ('A' for Active; 'I' for Inactive)
REMARK    1  A    between atoms: C_1  and  C_2
REMARK    2  A    between atoms: C_5  and  C_8
REMARK    3  A    between atoms: C_10  and  C_13
REMARK    4  A    between atoms: C_13  and  O_15
REMARK    5  A    between atoms: O_15  and  C_16
REMARK    6  A    between atoms: C_16  and  C_17
REMARK    7  A    between atoms: N_19  and  C_20
REMARK    8  A    between atoms: C_20  and  C_22
REMARK    9  A    between atoms: C_20  and  C_23
REMARK                            x       y       z     vdW  Elec       q    Type
REMARK                         _______ _______ _______ _____ _____    ______ ____
ROOT
ATOM      1  C   UNL     1       1.723  -8.391   4.627  0.00  0.00    +0.328 C 
ENDROOT
BRANCH   1   2
ATOM      2  C   UNL     1       1.509  -7.810   6.001  0.00  0.00    +0.251 C 
ATOM      3  O   UNL     1       2.413  -7.228   6.561  0.00  0.00    -0.272 OA
ATOM      4  N   UNL     1       0.312  -7.937   6.607  0.00  0.00    -0.306 N 
ATOM      5  H   UNL     1      -0.412  -8.403   6.159  0.00  0.00    +0.149 HD
BRANCH   4   6
ATOM      6  C   UNL     1       0.103  -7.372   7.942  0.00  0.00    +0.101 C 
ATOM      7  C   UNL     1      -1.389  -7.115   8.160  0.00  0.00    +0.033 C 
BRANCH   6   8
ATOM      8  C   UNL     1       0.603  -8.342   8.982  0.00  0.00    -0.020 A 
ATOM      9  C   UNL     1       0.684  -9.671   8.695  0.00  0.00    +0.006 A 
ATOM     10  C   UNL     1       1.143 -10.583   9.643  0.00  0.00    +0.001 A 
ATOM     11  C   UNL     1       1.523 -10.172  10.884  0.00  0.00    +0.008 A 
ATOM     12  C   UNL     1       1.453  -8.809  11.217  0.00  0.00    -0.018 A 
ATOM     13  C   UNL     1       0.992  -7.880  10.250  0.00  0.00    -0.013 A 
ATOM     14  C   UNL     1       0.927  -6.516  10.582  0.00  0.00    +0.009 A 
ATOM     15  C   UNL     1       1.313  -6.105  11.820  0.00  0.00    +0.001 A 
ATOM     16  C   UNL     1       1.772  -7.017  12.768  0.00  0.00    +0.001 A 
ATOM     17  C   UNL     1       1.836  -8.348  12.488  0.00  0.00    +0.008 A 
ENDBRANCH   6   8
ENDBRANCH   4   6
ENDBRANCH   1   2
BRANCH   1  18
ATOM     18  O   UNL     1       3.062  -8.128   4.202  0.00  0.00    -0.451 OA
BRANCH  18  19
ATOM     19  C   UNL     1       3.419  -8.584   2.985  0.00  0.00    +0.359 C 
ATOM     20  O   UNL     1       2.615  -9.190   2.303  0.00  0.00    -0.243 OA
BRANCH  19  23
ATOM     21  C   UNL     1       6.880  -7.505   2.725  0.00  0.00    +0.109 A 
ATOM     22  N   UNL     1       5.669  -7.692   3.215  0.00  0.00    -0.232 NA
ATOM     23  C   UNL     1       4.782  -8.350   2.482  0.00  0.00    +0.155 A 
ATOM     24  C   UNL     1       5.160  -8.812   1.237  0.00  0.00    +0.082 A 
ATOM     25  S   UNL     1       6.760  -8.299   1.132  0.00  0.00    -0.075 S 
BRANCH  21  30
ATOM     26  C   UNL     1      11.374  -4.805   5.099  0.00  0.00    +0.044 C 
ATOM     27  C   UNL     1      10.197  -5.512   4.477  0.00  0.00    -0.050 A 
ATOM     28  C   UNL     1      10.315  -6.067   3.216  0.00  0.00    +0.004 A 
ATOM     29  C   UNL     1       9.241  -6.716   2.641  0.00  0.00    +0.011 A 
ATOM     30  C   UNL     1       8.035  -6.811   3.335  0.00  0.00    +0.007 A 
ATOM     31  C   UNL     1       7.922  -6.250   4.607  0.00  0.00    +0.011 A 
ATOM     32  C   UNL     1       9.005  -5.608   5.173  0.00  0.00    +0.004 A 
ENDBRANCH  21  30
ENDBRANCH  19  23
ENDBRANCH  18  19
ENDBRANCH   1  18
TORSDOF 7
