REMARK  Name = ZINC15015858
REMARK  10 active torsions:
REMARK  status: ('A' for Active; 'I' for Inactive)
REMARK    1  A    between atoms: C_1  and  C_2
REMARK    2  A    between atoms: C_2  and  C_3
REMARK    3  A    between atoms: C_3  and  C_4
REMARK    4  A    between atoms: C_4  and  S_5
REMARK    5  A    between atoms: S_5  and  C_6
REMARK    6  A    between atoms: C_19  and  C_22
REMARK    7  A    between atoms: C_25  and  O_29
REMARK    8  A    between atoms: C_26  and  C_28
REMARK    9  A    between atoms: O_29  and  C_30
REMARK   10  A    between atoms: C_30  and  C_31
REMARK                            x       y       z     vdW  Elec       q    Type
REMARK                         _______ _______ _______ _____ _____    ______ ____
ROOT
ATOM      1  C   UNL     1      -2.352   5.675   4.091  0.00  0.00    +0.212 A 
ATOM      2  N   UNL     1      -2.575   6.925   4.485  0.00  0.00    -0.184 NA
ATOM      3  C   UNL     1      -3.239   7.140   5.608  0.00  0.00    +0.248 A 
ATOM      4  C   UNL     1      -3.687   6.028   6.356  0.00  0.00    +0.156 A 
ATOM      5  N   UNL     1      -3.425   4.809   5.912  0.00  0.00    -0.141 NA
ATOM      6  N   UNL     1      -2.776   4.644   4.811  0.00  0.00    -0.122 NA
ATOM      7  C   UNL     1      -4.437   6.247   7.610  0.00  0.00    +0.029 A 
ATOM      8  C   UNL     1      -4.115   5.566   8.778  0.00  0.00    +0.027 A 
ATOM      9  C   UNL     1      -4.850   5.789   9.927  0.00  0.00    +0.019 A 
ATOM     10  C   UNL     1      -5.905   6.686   9.921  0.00  0.00    +0.017 A 
ATOM     11  C   UNL     1      -6.233   7.373   8.767  0.00  0.00    +0.025 A 
ATOM     12  C   UNL     1      -5.502   7.166   7.612  0.00  0.00    +0.040 A 
ATOM     13  N   UNL     1      -5.783   7.871   6.436  0.00  0.00    -0.305 N 
ATOM     14  C   UNL     1      -4.825   8.868   5.969  0.00  0.00    +0.294 C 
ATOM     15  O   UNL     1      -3.486   8.395   6.053  0.00  0.00    -0.449 OA
ATOM     16 BR   UNL     1      -4.411   4.865  11.518  0.00  0.00    -0.050 Br
ATOM     17  H   UNL     1      -6.599   7.700   5.941  0.00  0.00    +0.150 HD
ENDROOT
BRANCH  14  18
ATOM     18  C   UNL     1      -4.961  10.111   6.810  0.00  0.00    +0.012 A 
ATOM     19  C   UNL     1      -6.213  10.543   7.207  0.00  0.00    +0.012 A 
ATOM     20  C   UNL     1      -6.340  11.679   7.983  0.00  0.00    +0.046 A 
ATOM     21  C   UNL     1      -5.210  12.393   8.355  0.00  0.00    +0.123 A 
ATOM     22  C   UNL     1      -3.955  11.961   7.951  0.00  0.00    -0.008 A 
ATOM     23  C   UNL     1      -3.833  10.821   7.179  0.00  0.00    +0.016 A 
ATOM     24  C   UNL     1      -2.725  12.734   8.353  0.00  0.00    +0.047 C 
BRANCH  21  25
ATOM     25  O   UNL     1      -5.332  13.513   9.114  0.00  0.00    -0.492 OA
BRANCH  25  26
ATOM     26  C   UNL     1      -6.654  13.899   9.493  0.00  0.00    +0.225 C 
ATOM     27  C   UNL     1      -6.592  15.173  10.337  0.00  0.00    +0.048 C 
ENDBRANCH  25  26
ENDBRANCH  21  25
ENDBRANCH  14  18
BRANCH   1  28
ATOM     28  S   UNL     1      -1.473   5.382   2.592  0.00  0.00    -0.084 S 
BRANCH  28  29
ATOM     29  C   UNL     1      -1.468   3.572   2.579  0.00  0.00    +0.077 C 
BRANCH  29  30
ATOM     30  C   UNL     1      -0.737   3.072   1.331  0.00  0.00    +0.011 C 
BRANCH  30  32
ATOM     31  C   UNL     1      -0.002   1.043   0.072  0.00  0.00    +0.004 C 
ATOM     32  C   UNL     1      -0.733   1.543   1.320  0.00  0.00    -0.003 C 
ENDBRANCH  30  32
ENDBRANCH  29  30
ENDBRANCH  28  29
ENDBRANCH   1  28
TORSDOF 7
