REMARK  Name = ZINC30506312
REMARK  9 active torsions:
REMARK  status: ('A' for Active; 'I' for Inactive)
REMARK    1  A    between atoms: C_1  and  C_2
REMARK    2  A    between atoms: C_2  and  C_4
REMARK    3  A    between atoms: C_2  and  S_17
REMARK    4  A    between atoms: N_6  and  C_7
REMARK    5  A    between atoms: S_17  and  C_18
REMARK    6  A    between atoms: C_21  and  C_24
REMARK    7  A    between atoms: N_22  and  N_23
REMARK    8  A    between atoms: C_29  and  O_30
REMARK    9  A    between atoms: O_30  and  C_31
REMARK                            x       y       z     vdW  Elec       q    Type
REMARK                         _______ _______ _______ _____ _____    ______ ____
ROOT
ATOM      1  S   UNL     1      -0.262  -5.765  -0.027  0.00  0.00    -0.072 S 
ENDROOT
BRANCH   1   2
ATOM      2  C   UNL     1       0.665  -4.266  -0.028  0.00  0.00    +0.209 A 
ATOM      3  N   UNL     1       1.975  -4.160  -0.039  0.00  0.00    -0.121 NA
ATOM      4  N   UNL     1       2.317  -2.922  -0.036  0.00  0.00    -0.127 NA
ATOM      5  C   UNL     1       1.248  -2.161  -0.022  0.00  0.00    +0.185 A 
ATOM      6  N   UNL     1       0.157  -2.999  -0.011  0.00  0.00    -0.224 N 
BRANCH   5   7
ATOM      7  C   UNL     1       1.221  -0.683  -0.013  0.00  0.00    +0.062 A 
ATOM      8  C   UNL     1       0.002  -0.004   0.002  0.00  0.00    +0.015 A 
ATOM      9  C   UNL     1      -0.017   1.375   0.010  0.00  0.00    +0.001 A 
ATOM     10  C   UNL     1       1.169   2.089   0.002  0.00  0.00    +0.004 A 
ATOM     11  C   UNL     1       2.383   1.427  -0.013  0.00  0.00    +0.046 A 
ATOM     12  C   UNL     1       2.418   0.042  -0.021  0.00  0.00    +0.131 A 
BRANCH  12  13
ATOM     13  O   UNL     1       3.610  -0.609  -0.035  0.00  0.00    -0.494 OA
ATOM     14  C   UNL     1       4.790   0.197  -0.042  0.00  0.00    +0.277 C 
ENDBRANCH  12  13
ENDBRANCH   5   7
BRANCH   6  15
ATOM     15  N   UNL     1      -1.161  -2.638   0.009  0.00  0.00    -0.295 N 
ATOM     16  H   UNL     1      -1.440  -1.574   0.021  0.00  0.00    +0.163 HD
ATOM     17  H   UNL     1      -1.943  -3.412   0.014  0.00  0.00    +0.163 HD
ENDBRANCH   6  15
ENDBRANCH   1   2
BRANCH   1  19
ATOM     18  C   UNL     1       1.862  -6.848  -1.360  0.00  0.00    +0.029 C 
ATOM     19  C   UNL     1       1.089  -6.970  -0.046  0.00  0.00    +0.137 C 
BRANCH  19  20
ATOM     20  C   UNL     1       0.522  -8.361   0.076  0.00  0.00    +0.227 C 
ATOM     21  O   UNL     1      -0.616  -8.586  -0.279  0.00  0.00    -0.275 OA
ATOM     22  N   UNL     1       1.280  -9.356   0.579  0.00  0.00    -0.309 N 
ATOM     23  H   UNL     1       2.312  -9.152   0.901  0.00  0.00    +0.149 HD
BRANCH  22  24
ATOM     24  C   UNL     1       0.729 -10.708   0.697  0.00  0.00    +0.035 C 
ATOM     25  C   UNL     1       0.324 -11.217  -0.688  0.00  0.00    +0.029 C 
ATOM     26  C   UNL     1      -0.251 -12.629  -0.564  0.00  0.00    -0.008 C 
ATOM     27  C   UNL     1       0.807 -13.560   0.032  0.00  0.00    +0.007 C 
ATOM     28  C   UNL     1       1.212 -13.052   1.417  0.00  0.00    -0.008 C 
ATOM     29  C   UNL     1       1.787 -11.639   1.293  0.00  0.00    +0.029 C 
ATOM     30  C   UNL     1      -0.016 -13.024   2.329  0.00  0.00    +0.007 C 
ATOM     31  C   UNL     1      -1.074 -12.093   1.733  0.00  0.00    -0.008 C 
ATOM     32  C   UNL     1      -1.479 -12.602   0.348  0.00  0.00    +0.007 C 
ATOM     33  C   UNL     1      -0.499 -10.681   1.610  0.00  0.00    +0.029 C 
ENDBRANCH  22  24
ENDBRANCH  19  20
ENDBRANCH   1  19
TORSDOF 7
