REMARK  Name = ZINC37641340
REMARK  5 active torsions:
REMARK  status: ('A' for Active; 'I' for Inactive)
REMARK    1  A    between atoms: C_1  and  C_2
REMARK    2  A    between atoms: C_3  and  N_19
REMARK    3  A    between atoms: C_5  and  C_9
REMARK    4  A    between atoms: N_11  and  C_12
REMARK    5  A    between atoms: C_15  and  O_18
REMARK                            x       y       z     vdW  Elec       q    Type
REMARK                         _______ _______ _______ _____ _____    ______ ____
ROOT
ATOM      1  C   UNL     1       0.059  -4.258  -0.016  0.00  0.00    +0.244 C 
ATOM      2  O   UNL     1       0.062  -4.863  -1.071  0.00  0.00    -0.270 OA
ATOM      3  N   UNL     1       0.074  -4.935   1.149  0.00  0.00    -0.308 N 
ATOM      4  H   UNL     1       0.072  -4.452   1.990  0.00  0.00    +0.149 HD
ENDROOT
BRANCH   1   9
ATOM      5  C   UNL     1      -0.018   1.503   0.010  0.00  0.00    +0.048 C 
ATOM      6  C   UNL     1       0.002  -0.004   0.002  0.00  0.00    +0.005 A 
ATOM      7  C   UNL     1       0.006  -0.690  -1.206  0.00  0.00    +0.031 A 
ATOM      8  C   UNL     1       0.025  -2.077  -1.217  0.00  0.00    +0.036 A 
ATOM      9  C   UNL     1       0.040  -2.779  -0.012  0.00  0.00    +0.041 A 
ATOM     10  C   UNL     1       0.036  -2.083   1.197  0.00  0.00    +0.051 A 
ATOM     11  C   UNL     1       0.023  -0.700   1.198  0.00  0.00    +0.129 A 
ATOM     12  F   UNL     1       0.025  -0.028   2.369  0.00  0.00    -0.205 F 
BRANCH   7  13
ATOM     13  N   UNL     1      -0.010   0.017  -2.411  0.00  0.00    -0.358 N 
ATOM     14  H   UNL     1      -0.024   0.987  -2.404  0.00  0.00    +0.142 HD
ATOM     15  H   UNL     1      -0.007  -0.462  -3.255  0.00  0.00    +0.142 HD
ENDBRANCH   7  13
ENDBRANCH   1   9
BRANCH   3  16
ATOM     16  C   UNL     1       0.093  -6.400   1.145  0.00  0.00    +0.073 C 
ATOM     17  C   UNL     1      -1.337  -6.928   1.025  0.00  0.00    +0.025 C 
ATOM     18  C   UNL     1      -1.317  -8.458   1.020  0.00  0.00    +0.033 C 
ATOM     19  C   UNL     1      -0.694  -8.964   2.323  0.00  0.00    +0.115 C 
ATOM     20  C   UNL     1       0.736  -8.435   2.443  0.00  0.00    +0.033 C 
ATOM     21  C   UNL     1       0.716  -6.905   2.448  0.00  0.00    +0.025 C 
BRANCH  19  22
ATOM     22  O   UNL     1      -0.675 -10.393   2.319  0.00  0.00    -0.392 OA
ATOM     23  H   UNL     1      -0.293 -10.783   3.117  0.00  0.00    +0.210 HD
ENDBRANCH  19  22
ENDBRANCH   3  16
TORSDOF 4
