REMARK  Name = ZINC08772691
REMARK  10 active torsions:
REMARK  status: ('A' for Active; 'I' for Inactive)
REMARK    1  A    between atoms: C_1  and  C_2
REMARK    2  A    between atoms: C_5  and  C_33
REMARK    3  A    between atoms: C_9  and  C_13
REMARK    4  A    between atoms: C_10  and  O_12
REMARK    5  A    between atoms: C_13  and  N_67
REMARK    6  A    between atoms: C_14  and  C_15
REMARK    7  A    between atoms: C_14  and  N_67
REMARK    8  A    between atoms: N_19  and  C_20
REMARK    9  A    between atoms: C_26  and  C_27
REMARK   10  A    between atoms: C_26  and  N_67
REMARK                            x       y       z     vdW  Elec       q    Type
REMARK                         _______ _______ _______ _____ _____    ______ ____
ROOT
ATOM      1  N   UNL     1       1.236   0.380  -0.018  0.00  0.00    +0.389 N 
ATOM      2  H   UNL     1       1.661  -0.135   0.761  0.00  0.00    -0.081 HD
ENDROOT
BRANCH   1   3
ATOM      3  C   UNL     1       1.702  -0.206  -1.292  0.00  0.00    -0.037 C 
BRANCH   3  12
ATOM      4  C   UNL     1       0.994  -4.573  -4.012  0.00  0.00    +0.044 C 
ATOM      5  C   UNL     1       1.655  -4.938  -2.708  0.00  0.00    -0.041 A 
ATOM      6  C   UNL     1       1.954  -6.238  -2.432  0.00  0.00    +0.004 A 
ATOM      7  C   UNL     1       2.565  -6.590  -1.231  0.00  0.00    +0.006 A 
ATOM      8  C   UNL     1       2.880  -5.648  -0.300  0.00  0.00    -0.024 A 
ATOM      9  C   UNL     1       2.585  -4.297  -0.548  0.00  0.00    +0.078 A 
ATOM     10  C   UNL     1       1.964  -3.940  -1.771  0.00  0.00    +0.004 A 
ATOM     11  C   UNL     1       1.670  -2.584  -2.020  0.00  0.00    +0.017 A 
ATOM     12  C   UNL     1       1.998  -1.667  -1.067  0.00  0.00    -0.002 A 
ATOM     13  C   UNL     1       2.616  -2.083   0.119  0.00  0.00    +0.214 A 
ATOM     14  N   UNL     1       2.884  -3.350   0.349  0.00  0.00    -0.213 NA
ATOM     15  C   UNL     1       3.540  -6.053   0.993  0.00  0.00    +0.046 C 
BRANCH  13  16
ATOM     16  O   UNL     1       2.942  -1.157   1.054  0.00  0.00    -0.492 OA
ATOM     17  H   UNL     1       2.244  -0.992   1.703  0.00  0.00    +0.294 HD
ENDBRANCH  13  16
ENDBRANCH   3  12
ENDBRANCH   1   3
BRANCH   1  18
ATOM     18  C   UNL     1       1.646   1.798   0.064  0.00  0.00    +0.001 C 
BRANCH  18  19
ATOM     19  C   UNL     1       1.538   2.250   1.498  0.00  0.00    +0.135 A 
ATOM     20  N   UNL     1       2.455   2.129   2.427  0.00  0.00    -0.115 NA
ATOM     21  N   UNL     1       1.986   2.634   3.516  0.00  0.00    -0.023 NA
ATOM     22  N   UNL     1       0.795   3.074   3.305  0.00  0.00    -0.044 NA
ATOM     23  N   UNL     1       0.485   2.860   2.071  0.00  0.00    -0.228 N 
BRANCH  23  24
ATOM     24  C   UNL     1      -0.778   3.212   1.418  0.00  0.00    +0.111 C 
ATOM     25  C   UNL     1      -0.905   4.735   1.340  0.00  0.00    +0.027 C 
ATOM     26  C   UNL     1      -2.224   5.103   0.657  0.00  0.00    +0.002 C 
ATOM     27  C   UNL     1      -3.392   4.535   1.466  0.00  0.00    +0.000 C 
ATOM     28  C   UNL     1      -3.266   3.012   1.545  0.00  0.00    +0.002 C 
ATOM     29  C   UNL     1      -1.946   2.644   2.227  0.00  0.00    +0.027 C 
ENDBRANCH  23  24
ENDBRANCH  18  19
ENDBRANCH   1  18
BRANCH   1  30
ATOM     30  C   UNL     1      -0.235   0.273   0.079  0.00  0.00    -0.046 C 
BRANCH  30  31
ATOM     31  C   UNL     1      -0.603  -1.183   0.371  0.00  0.00    +0.102 C 
ATOM     32  C   UNL     1      -2.090  -1.278   0.765  0.00  0.00    +0.032 C 
ATOM     33  C   UNL     1      -2.698  -2.244  -0.281  0.00  0.00    +0.030 C 
ATOM     34  C   UNL     1      -1.445  -2.998  -0.794  0.00  0.00    +0.160 C 
ATOM     35  O   UNL     1      -0.422  -1.979  -0.812  0.00  0.00    -0.378 OA
ENDBRANCH  30  31
ENDBRANCH   1  30
TORSDOF 8
