REMARK  Name = ZINC13498912
REMARK  12 active torsions:
REMARK  status: ('A' for Active; 'I' for Inactive)
REMARK    1  A    between atoms: C_1  and  C_2
REMARK    2  A    between atoms: C_6  and  C_15
REMARK    3  A    between atoms: C_13  and  C_14
REMARK    4  A    between atoms: C_15  and  N_72
REMARK    5  A    between atoms: C_16  and  N_72
REMARK    6  A    between atoms: C_21  and  C_23
REMARK    7  A    between atoms: C_21  and  C_35
REMARK    8  A    between atoms: C_21  and  N_72
REMARK    9  A    between atoms: N_27  and  C_28
REMARK   10  A    between atoms: C_28  and  C_29
REMARK   11  A    between atoms: C_35  and  C_36
REMARK   12  A    between atoms: C_35  and  C_37
REMARK                            x       y       z     vdW  Elec       q    Type
REMARK                         _______ _______ _______ _____ _____    ______ ____
ROOT
ATOM      1  N   UNL     1      -5.513   3.721  -0.324  0.00  0.00    +0.391 N 
ATOM      2  H   UNL     1      -4.888   3.974  -1.098  0.00  0.00    -0.080 HD
ENDROOT
BRANCH   1   3
ATOM      3  C   UNL     1      -5.894   2.299  -0.460  0.00  0.00    -0.067 C 
ATOM      4  C   UNL     1      -4.649   1.473  -0.843  0.00  0.00    -0.015 C 
ATOM      5  C   UNL     1      -5.187   0.419  -1.843  0.00  0.00    -0.002 C 
ATOM      6  C   UNL     1      -6.233   1.220  -2.656  0.00  0.00    -0.002 C 
ATOM      7  C   UNL     1      -6.901   2.139  -1.612  0.00  0.00    -0.015 C 
ENDBRANCH   1   3
BRANCH   1   8
ATOM      8  C   UNL     1      -4.804   3.934   0.955  0.00  0.00    -0.036 C 
BRANCH   8  14
ATOM      9  C   UNL     1       2.080   4.667  -1.818  0.00  0.00    +0.044 C 
ATOM     10  C   UNL     1       1.073   3.923  -0.979  0.00  0.00    -0.047 A 
ATOM     11  C   UNL     1      -0.205   4.394  -0.878  0.00  0.00    +0.013 A 
ATOM     12  C   UNL     1      -1.139   3.704  -0.099  0.00  0.00    -0.001 A 
ATOM     13  C   UNL     1      -2.517   4.181   0.031  0.00  0.00    +0.017 A 
ATOM     14  C   UNL     1      -3.379   3.470   0.800  0.00  0.00    +0.001 A 
ATOM     15  C   UNL     1      -2.945   2.298   1.456  0.00  0.00    +0.251 A 
ATOM     16  O   UNL     1      -3.736   1.674   2.142  0.00  0.00    -0.268 OA
ATOM     17  N   UNL     1      -1.682   1.852   1.343  0.00  0.00    -0.322 N 
ATOM     18  H   UNL     1      -1.417   1.043   1.807  0.00  0.00    +0.169 HD
ATOM     19  C   UNL     1      -0.759   2.526   0.571  0.00  0.00    +0.049 A 
ATOM     20  C   UNL     1       0.550   2.068   0.459  0.00  0.00    +0.030 A 
ATOM     21  C   UNL     1       1.454   2.765  -0.315  0.00  0.00    -0.046 A 
ATOM     22  C   UNL     1       2.869   2.264  -0.441  0.00  0.00    +0.044 C 
ENDBRANCH   8  14
ENDBRANCH   1   8
BRANCH   1  23
ATOM     23  C   UNL     1      -6.718   4.575  -0.382  0.00  0.00    +0.006 C 
BRANCH  23  24
ATOM     24  C   UNL     1      -7.323   4.724   0.990  0.00  0.00    +0.139 A 
ATOM     25  N   UNL     1      -6.694   4.639   2.136  0.00  0.00    -0.115 NA
ATOM     26  N   UNL     1      -7.554   4.826   3.077  0.00  0.00    -0.023 NA
ATOM     27  N   UNL     1      -8.717   5.020   2.561  0.00  0.00    -0.044 NA
ATOM     28  N   UNL     1      -8.616   4.965   1.276  0.00  0.00    -0.226 N 
BRANCH  28  29
ATOM     29  C   UNL     1      -9.705   5.132   0.309  0.00  0.00    +0.182 C 
BRANCH  29  30
ATOM     30  C   UNL     1     -10.296   3.785  -0.019  0.00  0.00    -0.026 A 
ATOM     31  C   UNL     1      -9.900   3.118  -1.163  0.00  0.00    +0.005 A 
ATOM     32  C   UNL     1     -10.439   1.880  -1.462  0.00  0.00    +0.000 A 
ATOM     33  C   UNL     1     -11.381   1.315  -0.623  0.00  0.00    +0.000 A 
ATOM     34  C   UNL     1     -11.781   1.986   0.518  0.00  0.00    +0.000 A 
ATOM     35  C   UNL     1     -11.238   3.221   0.820  0.00  0.00    +0.005 A 
ENDBRANCH  29  30
ENDBRANCH  28  29
ENDBRANCH  23  24
BRANCH  23  36
ATOM     36  C   UNL     1      -6.315   5.951  -0.915  0.00  0.00    -0.024 C 
ATOM     37  C   UNL     1      -5.337   6.609   0.060  0.00  0.00    +0.006 C 
ATOM     38  C   UNL     1      -5.645   5.794  -2.281  0.00  0.00    +0.006 C 
ENDBRANCH  23  36
ENDBRANCH   1  23
TORSDOF 8
