REMARK  Name = ZINC63119284
REMARK  5 active torsions:
REMARK  status: ('A' for Active; 'I' for Inactive)
REMARK    1  A    between atoms: C_6  and  N_7
REMARK    2  A    between atoms: C_8  and  C_10
REMARK    3  A    between atoms: C_10  and  S_11
REMARK    4  A    between atoms: S_11  and  C_12
REMARK    5  A    between atoms: C_18  and  N_22
REMARK                            x       y       z     vdW  Elec       q    Type
REMARK                         _______ _______ _______ _____ _____    ______ ____
ROOT
ATOM      1  C   UNL     1      -3.661  -0.845   0.242  0.00  0.00    +0.169 C 
ENDROOT
BRANCH   1   3
ATOM      2  N   UNL     1      -1.201  -0.721   0.008  0.00  0.00    -0.285 N 
ATOM      3  C   UNL     1      -2.375  -0.068   0.122  0.00  0.00    +0.227 C 
ATOM      4  O   UNL     1      -2.396   1.145   0.129  0.00  0.00    -0.275 OA
ATOM      5  H   UNL     1      -1.190  -1.688  -0.075  0.00  0.00    +0.155 HD
BRANCH   2  11
ATOM      6  C   UNL     1       0.120   1.155   0.762  0.00  0.00    +0.027 A 
ATOM      7  C   UNL     1       1.307   1.863   0.761  0.00  0.00    +0.051 A 
ATOM      8  C   UNL     1       2.383   1.419   0.007  0.00  0.00    +0.162 A 
ATOM      9  C   UNL     1       2.268   0.257  -0.747  0.00  0.00    +0.164 A 
ATOM     10  C   UNL     1       1.077  -0.453  -0.747  0.00  0.00    +0.072 A 
ATOM     11  C   UNL     1       0.002  -0.004   0.008  0.00  0.00    +0.037 A 
ATOM     12  O   UNL     1       3.316  -0.199  -1.487  0.00  0.00    -0.485 OA
ATOM     13  C   UNL     1       4.367   0.734  -1.758  0.00  0.00    +0.270 C 
ATOM     14  C   UNL     1       4.716   1.458  -0.451  0.00  0.00    +0.270 C 
ATOM     15  O   UNL     1       3.542   2.132   0.016  0.00  0.00    -0.485 OA
ENDBRANCH   2  11
ENDBRANCH   1   3
BRANCH   1  16
ATOM     16  S   UNL     1      -5.053   0.310   0.379  0.00  0.00    -0.106 S 
BRANCH  16  17
ATOM     17  C   UNL     1      -6.506  -0.769   0.514  0.00  0.00    +0.236 C 
ATOM     18  N   UNL     1      -6.585  -1.655  -0.655  0.00  0.00    -0.355 N 
ATOM     19  C   UNL     1      -6.514  -2.880  -0.221  0.00  0.00    +0.061 A 
ATOM     20  C   UNL     1      -6.539  -4.183  -0.900  0.00  0.00    +0.029 A 
ATOM     21  C   UNL     1      -6.444  -5.314  -0.173  0.00  0.00    +0.035 A 
ATOM     22  C   UNL     1      -6.321  -5.306   1.228  0.00  0.00    +0.128 A 
ATOM     23  C   UNL     1      -6.288  -4.167   1.948  0.00  0.00    +0.060 A 
ATOM     24  C   UNL     1      -6.383  -2.872   1.261  0.00  0.00    +0.063 A 
ATOM     25  N   UNL     1      -6.379  -1.641   1.688  0.00  0.00    -0.355 N 
ATOM     26  H   UNL     1      -6.305  -1.353   2.611  0.00  0.00    +0.162 HD
ATOM     27  H   UNL     1      -6.675  -1.377  -1.580  0.00  0.00    +0.162 HD
BRANCH  22  28
ATOM     28  N   UNL     1      -6.223  -6.600   1.939  0.00  0.00    +0.056 N 
ATOM     29  O   UNL     1      -6.250  -7.636   1.317  0.00  0.00    -0.126 OA
ATOM     30  O   UNL     1      -6.116  -6.621   3.143  0.00  0.00    -0.126 OA
ENDBRANCH  22  28
ENDBRANCH  16  17
ENDBRANCH   1  16
TORSDOF 5
