REMARK  Name = ZINC65549516
REMARK  14 active torsions:
REMARK  status: ('A' for Active; 'I' for Inactive)
REMARK    1  A    between atoms: C_1  and  C_2
REMARK    2  A    between atoms: C_2  and  C_3
REMARK    3  A    between atoms: C_2  and  N_4
REMARK    4  A    between atoms: N_4  and  C_5
REMARK    5  A    between atoms: C_5  and  C_6
REMARK    6  A    between atoms: N_15  and  C_16
REMARK    7  A    between atoms: C_16  and  C_17
REMARK    8  A    between atoms: C_17  and  C_19
REMARK    9  A    between atoms: C_17  and  N_24
REMARK   10  A    between atoms: C_29  and  O_31
REMARK   11  A    between atoms: O_31  and  C_32
REMARK   12  A    between atoms: C_32  and  C_33
REMARK   13  A    between atoms: C_32  and  C_34
REMARK   14  A    between atoms: C_32  and  C_35
REMARK                            x       y       z     vdW  Elec       q    Type
REMARK                         _______ _______ _______ _____ _____    ______ ____
ROOT
ATOM      1  C   UNL     1      -1.900  -2.850  -0.765  0.00  0.00    +0.024 C 
ATOM      2  C   UNL     1      -2.374  -3.729  -1.925  0.00  0.00    +0.008 C 
ATOM      3  C   UNL     1      -2.045  -5.194  -1.624  0.00  0.00    +0.019 C 
ATOM      4  C   UNL     1      -2.784  -5.628  -0.355  0.00  0.00    +0.109 C 
ATOM      5  N   UNL     1      -2.445  -4.699   0.732  0.00  0.00    -0.285 N 
ATOM      6  C   UNL     1      -2.637  -3.258   0.515  0.00  0.00    +0.114 C 
ATOM      7  C   UNL     1      -1.968  -5.159   1.905  0.00  0.00    +0.302 C 
ATOM      8  O   UNL     1      -1.605  -4.376   2.762  0.00  0.00    -0.253 OA
ATOM      9  N   UNL     1      -1.893  -6.486   2.129  0.00  0.00    -0.300 N 
ATOM     10  H   UNL     1      -2.115  -7.110   1.421  0.00  0.00    +0.150 HD
ENDROOT
BRANCH   1  11
ATOM     11  C   UNL     1      -2.200  -1.383  -1.081  0.00  0.00    +0.116 C 
BRANCH  11  12
ATOM     12  N   UNL     1      -1.642  -0.533  -0.026  0.00  0.00    -0.265 N 
ATOM     13  C   UNL     1      -2.387  -0.219   1.051  0.00  0.00    +0.404 C 
ATOM     14  O   UNL     1      -3.523  -0.641   1.148  0.00  0.00    -0.226 OA
BRANCH  12  16
ATOM     15  C   UNL     1      -0.296   1.506  -0.143  0.00  0.00    +0.028 C 
ATOM     16  C   UNL     1      -0.273  -0.024  -0.144  0.00  0.00    +0.073 C 
ATOM     17  C   UNL     1       0.559  -0.522   1.040  0.00  0.00    +0.028 C 
ENDBRANCH  12  16
BRANCH  13  18
ATOM     18  O   UNL     1      -1.875   0.563   2.020  0.00  0.00    -0.445 OA
BRANCH  18  19
ATOM     19  C   UNL     1      -2.721   0.855   3.134  0.00  0.00    +0.107 C 
ATOM     20  C   UNL     1      -3.122  -0.449   3.826  0.00  0.00    +0.055 C 
ATOM     21  C   UNL     1      -1.971   1.749   4.123  0.00  0.00    +0.055 C 
ATOM     22  C   UNL     1      -3.977   1.579   2.643  0.00  0.00    +0.055 C 
ENDBRANCH  18  19
ENDBRANCH  13  18
ENDBRANCH  11  12
ENDBRANCH   1  11
BRANCH   9  23
ATOM     23  C   UNL     1      -1.477  -6.985   3.442  0.00  0.00    +0.098 C 
BRANCH  23  24
ATOM     24  C   UNL     1      -1.354  -8.509   3.392  0.00  0.00    +0.016 C 
BRANCH  24  25
ATOM     25  N   UNL     1      -1.039  -9.019   4.733  0.00  0.00    +0.387 N 
ATOM     26  C   UNL     1      -0.820 -10.479   4.672  0.00  0.00    -0.078 C 
ATOM     27  C   UNL     1      -1.409 -11.024   5.997  0.00  0.00    -0.020 C 
ATOM     28  C   UNL     1      -2.650 -10.113   6.186  0.00  0.00    -0.020 C 
ATOM     29  C   UNL     1      -2.168  -8.751   5.644  0.00  0.00    -0.078 C 
ATOM     30  H   UNL     1      -0.207  -8.567   5.082  0.00  0.00    -0.081 HD
ENDBRANCH  24  25
BRANCH  24  31
ATOM     31  C   UNL     1      -0.253  -8.893   2.438  0.00  0.00    +0.093 A 
ATOM     32  C   UNL     1      -0.420  -9.303   1.167  0.00  0.00    +0.043 A 
ATOM     33  C   UNL     1       0.869  -9.555   0.645  0.00  0.00    +0.041 A 
ATOM     34  C   UNL     1       1.748  -9.285   1.627  0.00  0.00    +0.195 A 
ATOM     35  O   UNL     1       1.063  -8.879   2.709  0.00  0.00    -0.469 OA
ENDBRANCH  24  31
ENDBRANCH  23  24
ENDBRANCH   9  23
TORSDOF 9
