REMARK  Name = ZINC27274150
REMARK  12 active torsions:
REMARK  status: ('A' for Active; 'I' for Inactive)
REMARK    1  A    between atoms: C_1  and  C_2
REMARK    2  A    between atoms: C_2  and  N_3
REMARK    3  A    between atoms: N_3  and  C_4
REMARK    4  A    between atoms: C_4  and  C_5
REMARK    5  A    between atoms: N_7  and  C_8
REMARK    6  A    between atoms: C_8  and  C_9
REMARK    7  A    between atoms: C_14  and  C_16
REMARK    8  A    between atoms: C_16  and  O_17
REMARK    9  A    between atoms: O_17  and  C_18
REMARK   10  A    between atoms: C_18  and  C_20
REMARK   11  A    between atoms: C_22  and  N_32
REMARK   12  A    between atoms: C_25  and  N_26
REMARK                            x       y       z     vdW  Elec       q    Type
REMARK                         _______ _______ _______ _____ _____    ______ ____
ROOT
ATOM      1  O   UNL     1       9.459   1.503  -3.127  0.00  0.00    -0.452 OA
ENDROOT
BRANCH   1   2
ATOM      2  C   UNL     1      10.776   1.219  -3.141  0.00  0.00    +0.342 C 
ATOM      3  O   UNL     1      11.149   0.062  -3.150  0.00  0.00    -0.245 OA
BRANCH   2   4
ATOM      4  C   UNL     1      11.765   2.311  -3.145  0.00  0.00    +0.082 A 
ATOM      5  C   UNL     1      11.342   3.643  -3.134  0.00  0.00    +0.049 A 
ATOM      6  C   UNL     1      12.272   4.659  -3.138  0.00  0.00    +0.127 A 
ATOM      7  C   UNL     1      13.627   4.369  -3.152  0.00  0.00    +0.034 A 
ATOM      8  C   UNL     1      14.061   3.059  -3.163  0.00  0.00    +0.026 A 
ATOM      9  C   UNL     1      13.139   2.020  -3.153  0.00  0.00    +0.044 A 
BRANCH   9  10
ATOM     10  N   UNL     1      13.573   0.701  -3.158  0.00  0.00    -0.329 N 
ATOM     11  C   UNL     1      14.311   0.386  -1.928  0.00  0.00    +0.105 C 
ATOM     12  C   UNL     1      14.647  -1.107  -1.902  0.00  0.00    +0.019 C 
ATOM     13  C   UNL     1      15.491  -1.457  -3.130  0.00  0.00    +0.003 C 
ATOM     14  C   UNL     1      14.720  -1.074  -4.396  0.00  0.00    +0.019 C 
ATOM     15  C   UNL     1      14.382   0.418  -4.350  0.00  0.00    +0.105 C 
ENDBRANCH   9  10
BRANCH   6  16
ATOM     16  N   UNL     1      11.821   6.069  -3.126  0.00  0.00    +0.056 N 
ATOM     17  O   UNL     1      10.631   6.328  -3.113  0.00  0.00    -0.126 OA
ATOM     18  O   UNL     1      12.640   6.970  -3.129  0.00  0.00    -0.126 OA
ENDBRANCH   6  16
ENDBRANCH   2   4
ENDBRANCH   1   2
BRANCH   1  19
ATOM     19  C   UNL     1       8.542   0.377  -3.124  0.00  0.00    +0.328 C 
BRANCH  19  21
ATOM     20  N   UNL     1       6.096   0.013  -3.103  0.00  0.00    -0.290 N 
ATOM     21  C   UNL     1       7.123   0.885  -3.108  0.00  0.00    +0.254 C 
ATOM     22  O   UNL     1       6.906   2.078  -3.100  0.00  0.00    -0.272 OA
BRANCH  20  24
ATOM     23  C   UNL     1       6.435  -1.923  -4.559  0.00  0.00    +0.024 C 
ATOM     24  C   UNL     1       6.357  -1.428  -3.113  0.00  0.00    +0.105 C 
ENDBRANCH  20  24
BRANCH  20  25
ATOM     25  C   UNL     1       4.716   0.507  -3.088  0.00  0.00    +0.203 C 
BRANCH  25  26
ATOM     26  C   UNL     1       4.257   0.669  -1.662  0.00  0.00    +0.231 C 
ATOM     27  O   UNL     1       5.007   0.399  -0.748  0.00  0.00    -0.274 OA
ATOM     28  N   UNL     1       3.011   1.114  -1.401  0.00  0.00    -0.309 N 
ATOM     29  H   UNL     1       2.331   1.359  -2.230  0.00  0.00    +0.149 HD
BRANCH  28  30
ATOM     30  C   UNL     1       2.565   1.272  -0.015  0.00  0.00    +0.146 C 
BRANCH  30  31
ATOM     31  C   UNL     1       1.146   1.780   0.001  0.00  0.00    +0.007 A 
ATOM     32  C   UNL     1      -0.013   1.076   0.008  0.00  0.00    +0.013 A 
ATOM     33  C   UNL     1      -1.213   1.761   0.017  0.00  0.00    +0.008 A 
ATOM     34  C   UNL     1      -1.196   3.116   0.030  0.00  0.00    +0.045 A 
ATOM     35  S   UNL     1       0.555   3.464   0.015  0.00  0.00    -0.100 S 
ENDBRANCH  30  31
ENDBRANCH  28  30
ENDBRANCH  25  26
ENDBRANCH  20  25
ENDBRANCH  19  21
ENDBRANCH   1  19
TORSDOF 11
