REMARK  Name = ZINC01990577
REMARK  12 active torsions:
REMARK  status: ('A' for Active; 'I' for Inactive)
REMARK    1  A    between atoms: C_1  and  C_2
REMARK    2  A    between atoms: C_2  and  C_3
REMARK    3  A    between atoms: C_6  and  O_10
REMARK    4  A    between atoms: O_10  and  C_11
REMARK    5  A    between atoms: C_11  and  C_12
REMARK    6  A    between atoms: N_14  and  C_15
REMARK    7  A    between atoms: C_16  and  C_27
REMARK    8  A    between atoms: C_17  and  C_20
REMARK    9  A    between atoms: C_23  and  C_26
REMARK   10  A    between atoms: C_27  and  O_29
REMARK   11  A    between atoms: O_29  and  C_30
REMARK   12  A    between atoms: C_30  and  C_31
REMARK                            x       y       z     vdW  Elec       q    Type
REMARK                         _______ _______ _______ _____ _____    ______ ____
ROOT
ATOM      1  C   UNL     1      -3.567   5.923   8.208  0.00  0.00    +0.086 A 
ATOM      2  C   UNL     1      -3.484   7.042   9.025  0.00  0.00    +0.095 A 
ATOM      3  C   UNL     1      -4.394   7.095  10.153  0.00  0.00    +0.005 A 
ATOM      4  C   UNL     1      -5.242   6.045  10.304  0.00  0.00    +0.056 A 
ATOM      5  S   UNL     1      -4.829   4.986   8.933  0.00  0.00    -0.080 S 
ENDROOT
BRANCH   3   6
ATOM      6  C   UNL     1      -4.399   8.239  11.096  0.00  0.00    -0.017 A 
ATOM      7  C   UNL     1      -3.206   8.680  11.667  0.00  0.00    +0.009 A 
ATOM      8  C   UNL     1      -3.216   9.748  12.541  0.00  0.00    +0.004 A 
ATOM      9  C   UNL     1      -4.408  10.375  12.858  0.00  0.00    -0.050 A 
ATOM     10  C   UNL     1      -5.596   9.938  12.299  0.00  0.00    +0.004 A 
ATOM     11  C   UNL     1      -5.598   8.874  11.420  0.00  0.00    +0.009 A 
ATOM     12  C   UNL     1      -4.413  11.537  13.817  0.00  0.00    +0.044 C 
ENDBRANCH   3   6
BRANCH   1  15
ATOM     13  C   UNL     1      -3.042   4.483   6.404  0.00  0.00    +0.255 C 
ATOM     14  O   UNL     1      -3.894   3.709   6.786  0.00  0.00    -0.272 OA
ATOM     15  N   UNL     1      -2.821   5.629   7.078  0.00  0.00    -0.277 N 
ATOM     16  H   UNL     1      -2.048   6.331   6.731  0.00  0.00    +0.155 HD
BRANCH  13  17
ATOM     17  C   UNL     1      -2.231   4.163   5.175  0.00  0.00    +0.325 C 
BRANCH  17  18
ATOM     18  O   UNL     1      -2.649   2.904   4.642  0.00  0.00    -0.482 OA
BRANCH  18  22
ATOM     19  C   UNL     1      -0.718   1.572   1.248  0.00  0.00    -0.046 A 
ATOM     20  C   UNL     1      -0.359   2.779   1.818  0.00  0.00    +0.007 A 
ATOM     21  C   UNL     1      -1.008   3.230   2.951  0.00  0.00    +0.047 A 
ATOM     22  C   UNL     1      -2.013   2.465   3.524  0.00  0.00    +0.135 A 
ATOM     23  C   UNL     1      -2.368   1.251   2.954  0.00  0.00    +0.060 A 
ATOM     24  C   UNL     1      -1.719   0.807   1.817  0.00  0.00    +0.022 A 
ATOM     25 BR   UNL     1      -3.737   0.204   3.732  0.00  0.00    -0.047 Br
BRANCH  19  27
ATOM     26  C   UNL     1      -0.753   1.593  -1.232  0.00  0.00    +0.009 C 
ATOM     27  C   UNL     1      -0.013   1.086   0.008  0.00  0.00    +0.032 C 
ENDBRANCH  19  27
ENDBRANCH  18  22
ENDBRANCH  17  18
ENDBRANCH  13  17
ENDBRANCH   1  15
BRANCH   2  28
ATOM     28  C   UNL     1      -2.525   8.116   8.762  0.00  0.00    +0.342 C 
ATOM     29  O   UNL     1      -2.841   9.053   8.054  0.00  0.00    -0.245 OA
BRANCH  28  30
ATOM     30  O   UNL     1      -1.292   8.066   9.305  0.00  0.00    -0.461 OA
BRANCH  30  31
ATOM     31  C   UNL     1      -0.393   9.165   9.001  0.00  0.00    +0.229 C 
ATOM     32  C   UNL     1       0.949   8.936   9.700  0.00  0.00    +0.048 C 
ENDBRANCH  30  31
ENDBRANCH  28  30
ENDBRANCH   2  28
TORSDOF 9
