REMARK  Name = ZINC12038999
REMARK  9 active torsions:
REMARK  status: ('A' for Active; 'I' for Inactive)
REMARK    1  A    between atoms: C_1  and  O_2
REMARK    2  A    between atoms: O_2  and  C_3
REMARK    3  A    between atoms: C_3  and  C_5
REMARK    4  A    between atoms: C_6  and  O_27
REMARK    5  A    between atoms: C_16  and  C_17
REMARK    6  A    between atoms: C_16  and  N_64
REMARK    7  A    between atoms: O_27  and  C_28
REMARK    8  A    between atoms: C_28  and  C_29
REMARK    9  A    between atoms: C_29  and  C_30
REMARK                            x       y       z     vdW  Elec       q    Type
REMARK                         _______ _______ _______ _____ _____    ______ ____
ROOT
ATOM      1  C   UNL     1       1.265   3.517   0.009  0.00  0.00    +0.120 A 
ATOM      2  C   UNL     1       1.179   2.056  -0.026  0.00  0.00    +0.141 A 
ATOM      3  C   UNL     1       2.361   1.342  -0.035  0.00  0.00    +0.116 A 
ATOM      4  C   UNL     1       3.571   2.037  -0.040  0.00  0.00    +0.255 A 
ATOM      5  O   UNL     1       4.614   1.405  -0.033  0.00  0.00    -0.268 OA
ATOM      6  N   UNL     1       3.626   3.390  -0.047  0.00  0.00    -0.313 N 
ATOM      7  C   UNL     1       2.511   4.129   0.006  0.00  0.00    +0.038 A 
ATOM      8  C   UNL     1       2.525   5.636   0.075  0.00  0.00    +0.036 C 
ATOM      9  C   UNL     1       3.754   6.215  -0.624  0.00  0.00    -0.072 C 
ATOM     10  C   UNL     1       5.165   5.047   0.949  0.00  0.00    -0.056 C 
ATOM     11  C   UNL     1       4.963   3.986  -0.135  0.00  0.00    +0.106 C 
ATOM     12  N   UNL     1       4.818   6.366   0.389  0.00  0.00    +0.385 N 
ATOM     13  H   UNL     1       4.476   6.971   1.146  0.00  0.00    -0.081 HD
ENDROOT
BRANCH   1  14
ATOM     14  C   UNL     1       0.039   4.330   0.047  0.00  0.00    +0.344 C 
ATOM     15  O   UNL     1      -0.596   4.520  -0.972  0.00  0.00    -0.245 OA
BRANCH  14  17
ATOM     16  C   UNL     1      -1.596   5.656   1.174  0.00  0.00    +0.280 C 
ATOM     17  O   UNL     1      -0.379   4.865   1.211  0.00  0.00    -0.464 OA
ENDBRANCH  14  17
ENDBRANCH   1  14
BRANCH  12  18
ATOM     18  C   UNL     1       6.013   6.988  -0.220  0.00  0.00    -0.025 C 
BRANCH  18  19
ATOM     19  C   UNL     1       6.993   7.335   0.871  0.00  0.00    +0.000 A 
ATOM     20  C   UNL     1       7.087   8.532   1.471  0.00  0.00    +0.029 A 
ATOM     21  C   UNL     1       8.159   8.430   2.464  0.00  0.00    -0.000 A 
ATOM     22  C   UNL     1       8.715   9.319   3.386  0.00  0.00    +0.010 A 
ATOM     23  C   UNL     1       9.739   8.908   4.191  0.00  0.00    +0.001 A 
ATOM     24  C   UNL     1      10.231   7.613   4.101  0.00  0.00    +0.002 A 
ATOM     25  C   UNL     1       9.697   6.720   3.200  0.00  0.00    +0.026 A 
ATOM     26  C   UNL     1       8.653   7.117   2.369  0.00  0.00    +0.047 A 
ATOM     27  N   UNL     1       7.923   6.478   1.392  0.00  0.00    -0.360 N 
ATOM     28  H   UNL     1       8.050   5.557   1.115  0.00  0.00    +0.166 HD
ENDBRANCH  18  19
ENDBRANCH  12  18
BRANCH   2  29
ATOM     29  O   UNL     1      -0.018   1.426  -0.045  0.00  0.00    -0.491 OA
BRANCH  29  30
ATOM     30  C   UNL     1       0.001  -0.003  -0.079  0.00  0.00    +0.234 C 
BRANCH  30  31
ATOM     31  C   UNL     1      -1.435  -0.531  -0.096  0.00  0.00    +0.079 C 
BRANCH  31  32
ATOM     32  C   UNL     1      -1.415  -2.038  -0.132  0.00  0.00    -0.009 A 
ATOM     33  C   UNL     1      -1.513  -2.701  -1.340  0.00  0.00    +0.006 A 
ATOM     34  C   UNL     1      -1.489  -4.083  -1.374  0.00  0.00    +0.000 A 
ATOM     35  C   UNL     1      -1.379  -4.803  -0.199  0.00  0.00    +0.003 A 
ATOM     36  C   UNL     1      -1.287  -4.141   1.011  0.00  0.00    +0.038 A 
ATOM     37  C   UNL     1      -1.305  -2.757   1.046  0.00  0.00    +0.127 A 
ATOM     38  F   UNL     1      -1.216  -2.109   2.228  0.00  0.00    -0.205 F 
ENDBRANCH  31  32
ENDBRANCH  30  31
ENDBRANCH  29  30
ENDBRANCH   2  29
TORSDOF 8
