REMARK  Name = ZINC39737021
REMARK  7 active torsions:
REMARK  status: ('A' for Active; 'I' for Inactive)
REMARK    1  A    between atoms: C_1  and  C_2
REMARK    2  A    between atoms: C_2  and  O_3
REMARK    3  A    between atoms: O_3  and  C_4
REMARK    4  A    between atoms: C_4  and  C_6
REMARK    5  A    between atoms: C_7  and  C_34
REMARK    6  A    between atoms: C_14  and  C_15
REMARK    7  A    between atoms: C_25  and  C_27
REMARK                            x       y       z     vdW  Elec       q    Type
REMARK                         _______ _______ _______ _____ _____    ______ ____
ROOT
ATOM      1  C   UNL     1      -2.793  -2.429   0.232  0.00  0.00    +0.085 C 
ATOM      2  C   UNL     1      -2.976  -3.744  -0.086  0.00  0.00    +0.053 C 
ATOM      3  N   UNL     1      -4.197  -4.227  -0.287  0.00  0.00    -0.228 NA
ATOM      4  C   UNL     1      -5.299  -3.529  -0.205  0.00  0.00    +0.178 A 
ATOM      5  N   UNL     1      -5.340  -2.188   0.103  0.00  0.00    -0.275 N 
ATOM      6  C   UNL     1      -6.530  -1.576   0.157  0.00  0.00    +0.268 A 
ATOM      7  O   UNL     1      -6.616  -0.393   0.424  0.00  0.00    -0.266 OA
ATOM      8  C   UNL     1      -7.734  -2.386  -0.120  0.00  0.00    +0.080 A 
ATOM      9  C   UNL     1      -9.063  -2.009  -0.130  0.00  0.00    +0.026 C 
ATOM     10  S   UNL     1      -7.006  -3.986  -0.437  0.00  0.00    -0.046 S 
ATOM     11  C   UNL     1      -4.016  -1.550   0.354  0.00  0.00    +0.162 C 
ATOM     12  C   UNL     1      -1.782  -4.655  -0.211  0.00  0.00    +0.066 C 
ENDROOT
BRANCH   9  13
ATOM     13  C   UNL     1     -10.053  -2.949  -0.422  0.00  0.00    -0.018 C 
ATOM     14  C   UNL     1     -11.430  -2.734  -0.479  0.00  0.00    +0.003 A 
ATOM     15  C   UNL     1     -12.226  -1.586  -0.278  0.00  0.00    +0.010 A 
ATOM     16  C   UNL     1     -13.574  -1.672  -0.401  0.00  0.00    +0.001 A 
ATOM     17  C   UNL     1     -14.207  -2.877  -0.725  0.00  0.00    +0.002 A 
ATOM     18  C   UNL     1     -13.508  -4.018  -0.932  0.00  0.00    +0.026 A 
ATOM     19  C   UNL     1     -12.090  -4.008  -0.821  0.00  0.00    +0.043 A 
ATOM     20  N   UNL     1     -11.199  -4.962  -0.970  0.00  0.00    -0.380 N 
ATOM     21  C   UNL     1      -9.858  -4.413  -0.748  0.00  0.00    +0.149 C 
ATOM     22  H   UNL     1     -11.397  -5.884  -1.196  0.00  0.00    +0.160 HD
ENDBRANCH   9  13
BRANCH  11  23
ATOM     23  C   UNL     1      -4.033  -0.968   1.744  0.00  0.00    -0.020 A 
ATOM     24  C   UNL     1      -4.486  -1.729   2.806  0.00  0.00    +0.007 A 
ATOM     25  C   UNL     1      -4.502  -1.196   4.081  0.00  0.00    +0.020 A 
ATOM     26  C   UNL     1      -4.064   0.099   4.294  0.00  0.00    +0.041 A 
ATOM     27  C   UNL     1      -3.611   0.860   3.231  0.00  0.00    +0.020 A 
ATOM     28  C   UNL     1      -3.591   0.324   1.957  0.00  0.00    +0.007 A 
ATOM     29 CL   UNL     1      -4.084   0.770   5.895  0.00  0.00    -0.084 Cl
ENDBRANCH  11  23
BRANCH   1  30
ATOM     30  C   UNL     1      -1.504  -1.909   0.447  0.00  0.00    +0.339 C 
ATOM     31  O   UNL     1      -0.542  -2.655   0.473  0.00  0.00    -0.245 OA
BRANCH  30  32
ATOM     32  O   UNL     1      -1.332  -0.581   0.624  0.00  0.00    -0.462 OA
BRANCH  32  34
ATOM     33  C   UNL     1      -0.001   1.398   1.016  0.00  0.00    +0.048 C 
ATOM     34  C   UNL     1       0.004  -0.122   0.837  0.00  0.00    +0.229 C 
ENDBRANCH  32  34
ENDBRANCH  30  32
ENDBRANCH   1  30
TORSDOF 5
