REMARK  Name = ZINC24510573
REMARK  13 active torsions:
REMARK  status: ('A' for Active; 'I' for Inactive)
REMARK    1  A    between atoms: C_1  and  C_2
REMARK    2  A    between atoms: C_2  and  O_3
REMARK    3  A    between atoms: O_3  and  C_4
REMARK    4  A    between atoms: C_7  and  C_10
REMARK    5  A    between atoms: C_13  and  S_16
REMARK    6  A    between atoms: N_14  and  N_15
REMARK    7  A    between atoms: S_16  and  C_17
REMARK    8  A    between atoms: C_17  and  C_18
REMARK    9  A    between atoms: N_20  and  C_21
REMARK   10  A    between atoms: C_22  and  C_34
REMARK   11  A    between atoms: C_23  and  C_33
REMARK   12  A    between atoms: C_24  and  C_32
REMARK   13  A    between atoms: N_25  and  C_26
REMARK                            x       y       z     vdW  Elec       q    Type
REMARK                         _______ _______ _______ _____ _____    ______ ____
ROOT
ATOM      1  C   UNL     1       1.592 -10.816  -2.747  0.00  0.00    +0.173 C 
ENDROOT
BRANCH   1   2
ATOM      2  C   UNL     1       1.852 -12.049  -3.572  0.00  0.00    +0.229 C 
ATOM      3  O   UNL     1       2.061 -11.950  -4.763  0.00  0.00    -0.275 OA
ATOM      4  N   UNL     1       1.854 -13.264  -2.987  0.00  0.00    -0.270 N 
ATOM      5  H   UNL     1       1.603 -13.353  -2.055  0.00  0.00    +0.156 HD
BRANCH   4   6
ATOM      6  C   UNL     1       2.214 -14.386  -3.719  0.00  0.00    +0.124 A 
ATOM      7  C   UNL     1       3.108 -14.416  -4.780  0.00  0.00    +0.095 A 
ATOM      8  C   UNL     1       3.160 -15.815  -5.224  0.00  0.00    -0.011 A 
ATOM      9  C   UNL     1       2.324 -16.503  -4.430  0.00  0.00    +0.022 A 
ATOM     10  N   UNL     1       1.758 -15.649  -3.521  0.00  0.00    -0.329 N 
ATOM     11  C   UNL     1       2.055 -17.983  -4.521  0.00  0.00    +0.064 C 
ATOM     12  C   UNL     1       3.990 -16.370  -6.353  0.00  0.00    +0.047 C 
BRANCH  10  13
ATOM     13  C   UNL     1       0.797 -16.042  -2.487  0.00  0.00    +0.089 C 
ATOM     14  C   UNL     1      -0.467 -15.190  -2.616  0.00  0.00    +0.025 C 
ATOM     15  C   UNL     1      -1.471 -15.600  -1.536  0.00  0.00    +0.002 C 
ATOM     16  C   UNL     1      -0.849 -15.385  -0.154  0.00  0.00    +0.000 C 
ATOM     17  C   UNL     1       0.415 -16.237  -0.026  0.00  0.00    +0.002 C 
ATOM     18  C   UNL     1       1.418 -15.827  -1.106  0.00  0.00    +0.025 C 
ENDBRANCH  10  13
BRANCH   7  19
ATOM     19  C   UNL     1       3.833 -13.310  -5.330  0.00  0.00    +0.103 C 
ATOM     20  N   UNL     1       4.407 -12.432  -5.765  0.00  0.00    -0.191 NA
ENDBRANCH   7  19
ENDBRANCH   4   6
ENDBRANCH   1   2
BRANCH   1  21
ATOM     21  S   UNL     1       1.801  -9.341  -3.782  0.00  0.00    -0.075 S 
BRANCH  21  25
ATOM     22  C   UNL     1       1.171  -6.009  -1.839  0.00  0.00    +0.182 A 
ATOM     23  N   UNL     1       0.970  -6.923  -0.919  0.00  0.00    -0.127 NA
ATOM     24  N   UNL     1       1.144  -8.094  -1.417  0.00  0.00    -0.121 NA
ATOM     25  C   UNL     1       1.467  -8.001  -2.687  0.00  0.00    +0.209 A 
ATOM     26  N   UNL     1       1.490  -6.672  -3.002  0.00  0.00    -0.224 N 
BRANCH  22  30
ATOM     27  C   UNL     1       0.876  -1.801  -1.329  0.00  0.00    +0.121 A 
ATOM     28  C   UNL     1       0.346  -2.654  -0.370  0.00  0.00    +0.046 A 
ATOM     29  C   UNL     1       0.440  -4.020  -0.532  0.00  0.00    +0.015 A 
ATOM     30  C   UNL     1       1.068  -4.545  -1.662  0.00  0.00    +0.021 A 
ATOM     31  C   UNL     1       1.599  -3.685  -2.625  0.00  0.00    +0.015 A 
ATOM     32  C   UNL     1       1.497  -2.320  -2.458  0.00  0.00    +0.046 A 
BRANCH  27  33
ATOM     33  O   UNL     1       0.782  -0.456  -1.166  0.00  0.00    -0.492 OA
BRANCH  33  35
ATOM     34  C   UNL     1       0.121   1.540   0.026  0.00  0.00    +0.048 C 
ATOM     35  C   UNL     1       0.131   0.010   0.018  0.00  0.00    +0.225 C 
ENDBRANCH  33  35
ENDBRANCH  27  33
ENDBRANCH  22  30
BRANCH  26  36
ATOM     36  N   UNL     1       1.774  -6.116  -4.218  0.00  0.00    -0.295 N 
ATOM     37  H   UNL     1       2.762  -5.933  -4.310  0.00  0.00    +0.163 HD
ATOM     38  H   UNL     1       1.443  -6.703  -4.969  0.00  0.00    +0.163 HD
ENDBRANCH  26  36
ENDBRANCH  21  25
ENDBRANCH   1  21
TORSDOF 10
