REMARK  Name = ZINC10051943
REMARK  14 active torsions:
REMARK  status: ('A' for Active; 'I' for Inactive)
REMARK    1  A    between atoms: C_1  and  C_2
REMARK    2  A    between atoms: C_2  and  C_3
REMARK    3  A    between atoms: C_3  and  C_4
REMARK    4  A    between atoms: C_4  and  N_5
REMARK    5  A    between atoms: C_18  and  S_19
REMARK    6  A    between atoms: S_19  and  C_20
REMARK    7  A    between atoms: C_20  and  C_21
REMARK    8  A    between atoms: C_21  and  C_23
REMARK    9  A    between atoms: C_24  and  C_35
REMARK   10  A    between atoms: C_25  and  C_30
REMARK   11  A    between atoms: C_26  and  C_29
REMARK   12  A    between atoms: C_30  and  O_32
REMARK   13  A    between atoms: O_32  and  C_33
REMARK   14  A    between atoms: C_33  and  C_34
REMARK                            x       y       z     vdW  Elec       q    Type
REMARK                         _______ _______ _______ _____ _____    ______ ____
ROOT
ATOM      1  N   UNL     1      -0.675   1.545   3.712  0.00  0.00    -0.277 N 
ATOM      2  C   UNL     1      -0.317   2.724   4.260  0.00  0.00    +0.263 A 
ATOM      3  O   UNL     1       0.568   3.395   3.762  0.00  0.00    -0.267 OA
ATOM      4  C   UNL     1      -1.020   3.189   5.469  0.00  0.00    +0.064 A 
ATOM      5  C   UNL     1      -0.696   4.402   6.074  0.00  0.00    +0.015 A 
ATOM      6  C   UNL     1      -1.373   4.801   7.207  0.00  0.00    +0.001 A 
ATOM      7  C   UNL     1      -2.371   4.002   7.745  0.00  0.00    +0.002 A 
ATOM      8  C   UNL     1      -2.701   2.798   7.154  0.00  0.00    +0.027 A 
ATOM      9  C   UNL     1      -2.030   2.382   6.014  0.00  0.00    +0.064 A 
ATOM     10  N   UNL     1      -2.344   1.172   5.399  0.00  0.00    -0.256 N 
ATOM     11  C   UNL     1      -1.677   0.770   4.274  0.00  0.00    +0.240 A 
ATOM     12  N   UNL     1      -2.170  -0.393   3.910  0.00  0.00    -0.109 NA
ATOM     13  N   UNL     1      -3.174  -0.745   4.820  0.00  0.00    -0.120 NA
ATOM     14  C   UNL     1      -3.266   0.210   5.712  0.00  0.00    +0.198 A 
ENDROOT
BRANCH   1  15
ATOM     15  C   UNL     1       0.011   1.072   2.506  0.00  0.00    +0.128 C 
BRANCH  15  16
ATOM     16  C   UNL     1      -0.729   1.579   1.267  0.00  0.00    +0.021 C 
BRANCH  16  18
ATOM     17  C   UNL     1      -0.753   1.593  -1.232  0.00  0.00    +0.004 C 
ATOM     18  C   UNL     1      -0.013   1.086   0.008  0.00  0.00    -0.002 C 
ENDBRANCH  16  18
ENDBRANCH  15  16
ENDBRANCH   1  15
BRANCH  14  19
ATOM     19  S   UNL     1      -4.381   0.249   7.076  0.00  0.00    -0.078 S 
BRANCH  19  20
ATOM     20  C   UNL     1      -5.315  -1.299   6.923  0.00  0.00    +0.158 C 
BRANCH  20  21
ATOM     21  C   UNL     1      -6.318  -1.393   8.044  0.00  0.00    +0.190 C 
ATOM     22  O   UNL     1      -6.396  -0.503   8.866  0.00  0.00    -0.290 OA
BRANCH  21  23
ATOM     23  C   UNL     1      -7.170  -2.520   8.139  0.00  0.00    +0.087 A 
ATOM     24  C   UNL     1      -8.123  -2.735   9.111  0.00  0.00    -0.008 A 
ATOM     25  C   UNL     1      -8.734  -3.973   8.818  0.00  0.00    +0.083 A 
ATOM     26  C   UNL     1      -8.123  -4.471   7.680  0.00  0.00    +0.028 A 
ATOM     27  N   UNL     1      -7.188  -3.598   7.277  0.00  0.00    -0.355 N 
ATOM     28  H   UNL     1      -6.614  -3.707   6.503  0.00  0.00    +0.166 HD
ATOM     29  C   UNL     1      -8.453  -5.777   7.006  0.00  0.00    +0.064 C 
ATOM     30  C   UNL     1      -8.452  -1.822  10.264  0.00  0.00    +0.047 C 
BRANCH  25  31
ATOM     31  C   UNL     1      -9.815  -4.617   9.582  0.00  0.00    +0.341 C 
ATOM     32  O   UNL     1      -9.547  -5.372  10.496  0.00  0.00    -0.245 OA
BRANCH  31  33
ATOM     33  O   UNL     1     -11.102  -4.370   9.269  0.00  0.00    -0.461 OA
BRANCH  33  34
ATOM     34  C   UNL     1     -12.115  -5.039  10.065  0.00  0.00    +0.229 C 
ATOM     35  C   UNL     1     -13.504  -4.638   9.565  0.00  0.00    +0.048 C 
ENDBRANCH  33  34
ENDBRANCH  31  33
ENDBRANCH  25  31
ENDBRANCH  21  23
ENDBRANCH  20  21
ENDBRANCH  19  20
ENDBRANCH  14  19
TORSDOF 10
