REMARK  Name = ZINC49776818
REMARK  5 active torsions:
REMARK  status: ('A' for Active; 'I' for Inactive)
REMARK    1  A    between atoms: C_1  and  C_2
REMARK    2  A    between atoms: C_5  and  N_9
REMARK    3  A    between atoms: N_9  and  C_10
REMARK    4  A    between atoms: N_9  and  C_11
REMARK    5  A    between atoms: C_14  and  C_17
REMARK                            x       y       z     vdW  Elec       q    Type
REMARK                         _______ _______ _______ _____ _____    ______ ____
ROOT
ATOM      1  C   UNL     1      -0.013   1.086   0.008  0.00  0.00    +0.085 C 
ATOM      2  C   UNL     1      -0.742   1.585  -1.213  0.00  0.00    +0.102 C 
ATOM      3  N   UNL     1      -1.256   0.800  -2.106  0.00  0.00    -0.245 NA
ATOM      4  C   UNL     1      -1.871   1.672  -3.123  0.00  0.00    +0.238 C 
ATOM      5  C   UNL     1      -1.584   3.066  -2.598  0.00  0.00    +0.111 C 
ATOM      6  N   UNL     1      -0.927   2.882  -1.480  0.00  0.00    -0.333 N 
ATOM      7  N   UNL     1      -1.938   4.250  -3.163  0.00  0.00    -0.345 N 
ATOM      8  H   UNL     1      -2.431   4.261  -3.998  0.00  0.00    +0.143 HD
ATOM      9  H   UNL     1      -1.696   5.085  -2.731  0.00  0.00    +0.143 HD
ATOM     10  H   UNL     1      -0.609   3.602  -0.913  0.00  0.00    +0.168 HD
ENDROOT
BRANCH   4  11
ATOM     11  N   UNL     1      -1.240   1.467  -4.434  0.00  0.00    -0.275 NA
ATOM     12  C   UNL     1       0.206   1.716  -4.366  0.00  0.00    +0.107 C 
BRANCH  11  13
ATOM     13  C   UNL     1      -1.519   0.119  -4.947  0.00  0.00    +0.059 C 
ATOM     14  C   UNL     1      -3.030  -0.067  -5.096  0.00  0.00    +0.019 C 
ATOM     15  C   UNL     1      -3.321  -1.470  -5.631  0.00  0.00    +0.005 C 
ATOM     16  C   UNL     1      -2.649  -1.646  -6.995  0.00  0.00    -0.014 C 
ATOM     17  C   UNL     1      -1.138  -1.460  -6.846  0.00  0.00    +0.005 C 
ATOM     18  C   UNL     1      -0.847  -0.056  -6.311  0.00  0.00    +0.019 C 
ATOM     19  C   UNL     1      -3.197  -0.604  -7.972  0.00  0.00    +0.007 C 
ENDBRANCH  11  13
ENDBRANCH   4  11
TORSDOF 2
