REMARK  Name = ZINC20132061
REMARK  9 active torsions:
REMARK  status: ('A' for Active; 'I' for Inactive)
REMARK    1  A    between atoms: C_1  and  C_2
REMARK    2  A    between atoms: C_2  and  O_3
REMARK    3  A    between atoms: O_3  and  C_4
REMARK    4  A    between atoms: C_7  and  N_10
REMARK    5  A    between atoms: C_12  and  C_24
REMARK    6  A    between atoms: C_15  and  C_22
REMARK    7  A    between atoms: C_18  and  C_21
REMARK    8  A    between atoms: C_22  and  O_23
REMARK    9  A    between atoms: C_24  and  N_26
REMARK                            x       y       z     vdW  Elec       q    Type
REMARK                         _______ _______ _______ _____ _____    ______ ____
ROOT
ATOM      1  N   UNL     1       5.098   6.369   1.284  0.00  0.00    -0.325 N 
ATOM      2  C   UNL     1       4.317   5.609   0.549  0.00  0.00    +0.209 A 
ATOM      3  C   UNL     1       4.670   4.201   0.274  0.00  0.00    +0.064 A 
ATOM      4  C   UNL     1       3.634   3.331   0.012  0.00  0.00    +0.027 A 
ATOM      5  C   UNL     1       2.276   3.878   0.029  0.00  0.00    +0.027 A 
ATOM      6  C   UNL     1       1.147   3.050   0.038  0.00  0.00    +0.007 A 
ATOM      7  C   UNL     1      -0.100   3.638   0.066  0.00  0.00    +0.117 A 
ATOM      8  N   UNL     1      -0.237   4.952   0.078  0.00  0.00    -0.256 NA
ATOM      9  C   UNL     1       0.794   5.773   0.062  0.00  0.00    +0.081 A 
ATOM     10  C   UNL     1       2.088   5.274   0.033  0.00  0.00    +0.159 A 
ATOM     11  O   UNL     1       3.163   6.097   0.012  0.00  0.00    -0.437 OA
ATOM     12  C   UNL     1       0.566   7.262   0.077  0.00  0.00    +0.069 C 
ATOM     13  H   UNL     1       5.982   5.937   1.775  0.00  0.00    +0.169 HD
ENDROOT
BRANCH   1  17
ATOM     14  C   UNL     1       4.228  10.389   1.752  0.00  0.00    +0.121 A 
ATOM     15  C   UNL     1       3.791   9.472   2.698  0.00  0.00    +0.047 A 
ATOM     16  C   UNL     1       4.078   8.132   2.546  0.00  0.00    +0.029 A 
ATOM     17  C   UNL     1       4.810   7.698   1.439  0.00  0.00    +0.042 A 
ATOM     18  C   UNL     1       5.253   8.625   0.493  0.00  0.00    +0.029 A 
ATOM     19  C   UNL     1       4.957   9.963   0.650  0.00  0.00    +0.047 A 
BRANCH  14  20
ATOM     20  O   UNL     1       3.942  11.710   1.905  0.00  0.00    -0.492 OA
BRANCH  20  22
ATOM     21  C   UNL     1       4.007  14.031   1.237  0.00  0.00    +0.048 C 
ATOM     22  C   UNL     1       4.423  12.599   0.895  0.00  0.00    +0.225 C 
ENDBRANCH  20  22
ENDBRANCH  14  20
ENDBRANCH   1  17
BRANCH   3  23
ATOM     23  C   UNL     1       6.070   3.747   0.278  0.00  0.00    +0.082 C 
ATOM     24  S   UNL     1       6.439   2.107  -0.046  0.00  0.00    -0.035 S 
BRANCH  23  25
ATOM     25  N   UNL     1       7.062   4.622   0.537  0.00  0.00    -0.352 N 
ATOM     26  H   UNL     1       8.108   4.282   0.540  0.00  0.00    +0.143 HD
ATOM     27  H   UNL     1       6.825   5.676   0.745  0.00  0.00    +0.143 HD
ENDBRANCH  23  25
ENDBRANCH   3  23
BRANCH   6  28
ATOM     28  C   UNL     1       1.292   1.550   0.025  0.00  0.00    +0.193 C 
BRANCH  28  29
ATOM     29  O   UNL     1      -0.003   0.946   0.045  0.00  0.00    -0.390 OA
ATOM     30  H   UNL     1      -0.099  -0.149   0.039  0.00  0.00    +0.210 HD
ENDBRANCH  28  29
ENDBRANCH   6  28
TORSDOF 7
