REMARK  Name = ZINC63929345
REMARK  7 active torsions:
REMARK  status: ('A' for Active; 'I' for Inactive)
REMARK    1  A    between atoms: C_1  and  C_2
REMARK    2  A    between atoms: C_5  and  C_9
REMARK    3  A    between atoms: C_6  and  C_8
REMARK    4  A    between atoms: C_11  and  C_14
REMARK    5  A    between atoms: C_14  and  O_16
REMARK    6  A    between atoms: O_16  and  C_17
REMARK    7  A    between atoms: C_21  and  C_23
REMARK                            x       y       z     vdW  Elec       q    Type
REMARK                         _______ _______ _______ _____ _____    ______ ____
ROOT
ATOM      1  C   UNL     1       0.058  -7.393  -1.935  0.00  0.00    +0.363 C 
ATOM      2  O   UNL     1       0.171  -8.585  -1.723  0.00  0.00    -0.243 OA
ENDROOT
BRANCH   1   5
ATOM      3  C   UNL     1       0.102  -4.312  -0.006  0.00  0.00    +0.109 A 
ATOM      4  N   UNL     1       0.020  -5.134  -1.036  0.00  0.00    -0.232 NA
ATOM      5  C   UNL     1       0.142  -6.437  -0.819  0.00  0.00    +0.156 A 
ATOM      6  C   UNL     1       0.348  -6.879   0.472  0.00  0.00    +0.082 A 
ATOM      7  S   UNL     1       0.372  -5.442   1.348  0.00  0.00    -0.075 S 
BRANCH   3  12
ATOM      8  C   UNL     1      -0.288   1.429   0.089  0.00  0.00    +0.044 C 
ATOM      9  C   UNL     1      -0.186  -0.074   0.064  0.00  0.00    -0.050 A 
ATOM     10  C   UNL     1      -0.857  -0.826   1.012  0.00  0.00    +0.004 A 
ATOM     11  C   UNL     1      -0.768  -2.203   0.994  0.00  0.00    +0.011 A 
ATOM     12  C   UNL     1       0.001  -2.837   0.018  0.00  0.00    +0.010 A 
ATOM     13  C   UNL     1       0.675  -2.073  -0.935  0.00  0.00    -0.041 A 
ATOM     14  C   UNL     1       0.574  -0.697  -0.910  0.00  0.00    +0.007 A 
ATOM     15  C   UNL     1       1.509  -2.749  -1.993  0.00  0.00    +0.044 C 
ENDBRANCH   3  12
ENDBRANCH   1   5
BRANCH   1  16
ATOM     16  O   UNL     1      -0.144  -6.947  -3.191  0.00  0.00    -0.421 OA
BRANCH  16  17
ATOM     17  C   UNL     1      -0.296  -7.869  -4.178  0.00  0.00    +0.133 A 
ATOM     18  C   UNL     1      -1.461  -8.621  -4.252  0.00  0.00    +0.046 A 
ATOM     19  C   UNL     1      -1.622  -9.560  -5.253  0.00  0.00    +0.004 A 
ATOM     20  C   UNL     1      -0.625  -9.756  -6.187  0.00  0.00    +0.013 A 
ATOM     21  C   UNL     1       0.549  -9.005  -6.122  0.00  0.00    +0.040 A 
ATOM     22  C   UNL     1       0.708  -8.053  -5.114  0.00  0.00    +0.059 A 
BRANCH  21  23
ATOM     23  C   UNL     1       1.620  -9.212  -7.121  0.00  0.00    +0.242 C 
ATOM     24  O   UNL     1       2.642  -8.556  -7.062  0.00  0.00    -0.270 OA
ATOM     25  N   UNL     1       1.462 -10.128  -8.097  0.00  0.00    -0.325 N 
ATOM     26  H   UNL     1       0.647 -10.652  -8.144  0.00  0.00    +0.145 HD
ATOM     27  H   UNL     1       2.164 -10.264  -8.752  0.00  0.00    +0.145 HD
ENDBRANCH  21  23
ENDBRANCH  16  17
ENDBRANCH   1  16
TORSDOF 5
