REMARK  Name = ZINC07345018
REMARK  9 active torsions:
REMARK  status: ('A' for Active; 'I' for Inactive)
REMARK    1  A    between atoms: C_1  and  C_2
REMARK    2  A    between atoms: C_2  and  C_3
REMARK    3  A    between atoms: C_3  and  C_4
REMARK    4  A    between atoms: C_4  and  N_5
REMARK    5  A    between atoms: C_11  and  S_12
REMARK    6  A    between atoms: S_12  and  C_13
REMARK    7  A    between atoms: C_13  and  C_14
REMARK    8  A    between atoms: N_16  and  C_17
REMARK    9  A    between atoms: C_18  and  C_26
REMARK                            x       y       z     vdW  Elec       q    Type
REMARK                         _______ _______ _______ _____ _____    ______ ____
ROOT
ATOM      1  C   UNL     1       1.480   6.298   2.541  0.00  0.00    +0.228 C 
ATOM      2  O   UNL     1       2.257   6.290   1.611  0.00  0.00    -0.275 OA
ATOM      3  N   UNL     1       1.472   7.333   3.404  0.00  0.00    -0.279 N 
ATOM      4  H   UNL     1       0.850   7.340   4.148  0.00  0.00    +0.155 HD
ENDROOT
BRANCH   3   5
ATOM      5  C   UNL     1       2.355   8.389   3.228  0.00  0.00    +0.084 A 
ATOM      6  C   UNL     1       2.494   9.534   3.999  0.00  0.00    +0.068 A 
ATOM      7  C   UNL     1       3.507  10.495   3.598  0.00  0.00    -0.023 A 
ATOM      8  C   UNL     1       4.208  10.164   2.491  0.00  0.00    -0.004 A 
ATOM      9  S   UNL     1       3.546   8.601   1.988  0.00  0.00    -0.077 S 
ATOM     10  C   UNL     1       5.301  10.956   1.844  0.00  0.00    +0.043 C 
ATOM     11  C   UNL     1       5.261  12.385   2.405  0.00  0.00    +0.005 C 
ATOM     12  C   UNL     1       5.164  12.312   3.932  0.00  0.00    +0.005 C 
ATOM     13  C   UNL     1       3.784  11.795   4.342  0.00  0.00    +0.037 C 
BRANCH   6  14
ATOM     14  C   UNL     1       1.651   9.764   5.177  0.00  0.00    +0.244 C 
ATOM     15  O   UNL     1       2.012   9.368   6.270  0.00  0.00    -0.270 OA
ATOM     16  N   UNL     1       0.478  10.415   5.050  0.00  0.00    -0.325 N 
ATOM     17  H   UNL     1       0.190  10.731   4.179  0.00  0.00    +0.145 HD
ATOM     18  H   UNL     1      -0.079  10.567   5.829  0.00  0.00    +0.145 HD
ENDBRANCH   6  14
ENDBRANCH   3   5
BRANCH   1  19
ATOM     19  C   UNL     1       0.521   5.151   2.732  0.00  0.00    +0.173 C 
BRANCH  19  20
ATOM     20  S   UNL     1       0.774   3.928   1.422  0.00  0.00    -0.077 S 
BRANCH  20  27
ATOM     21  N   UNL     1      -0.698   1.558   1.213  0.00  0.00    -0.271 N 
ATOM     22  C   UNL     1      -1.686   0.912   1.864  0.00  0.00    +0.345 A 
ATOM     23  O   UNL     1      -2.166  -0.165   1.556  0.00  0.00    -0.245 OA
ATOM     24  N   UNL     1      -2.047   1.673   2.917  0.00  0.00    -0.226 N 
ATOM     25  H   UNL     1      -2.735   1.464   3.568  0.00  0.00    +0.194 HD
ATOM     26  N   UNL     1      -1.244   2.822   2.899  0.00  0.00    -0.145 NA
ATOM     27  C   UNL     1      -0.440   2.736   1.878  0.00  0.00    +0.192 A 
BRANCH  21  28
ATOM     28  C   UNL     1      -0.013   1.086   0.008  0.00  0.00    +0.129 C 
BRANCH  28  29
ATOM     29  C   UNL     1      -0.753   1.593  -1.232  0.00  0.00    +0.021 C 
BRANCH  29  31
ATOM     30  C   UNL     1      -0.777   1.606  -3.730  0.00  0.00    +0.004 C 
ATOM     31  C   UNL     1      -0.037   1.099  -2.490  0.00  0.00    -0.002 C 
ENDBRANCH  29  31
ENDBRANCH  28  29
ENDBRANCH  21  28
ENDBRANCH  20  27
ENDBRANCH  19  20
ENDBRANCH   1  19
TORSDOF 8
