REMARK  Name = ZINC57530866
REMARK  9 active torsions:
REMARK  status: ('A' for Active; 'I' for Inactive)
REMARK    1  A    between atoms: C_1  and  C_2
REMARK    2  A    between atoms: C_12  and  C_14
REMARK    3  A    between atoms: C_14  and  C_16
REMARK    4  A    between atoms: C_14  and  N_27
REMARK    5  A    between atoms: N_20  and  C_21
REMARK    6  A    between atoms: N_27  and  C_28
REMARK    7  A    between atoms: N_27  and  C_34
REMARK    8  A    between atoms: C_28  and  C_29
REMARK    9  A    between atoms: C_34  and  C_35
REMARK                            x       y       z     vdW  Elec       q    Type
REMARK                         _______ _______ _______ _____ _____    ______ ____
ROOT
ATOM      1  C   UNL     1       0.588  -2.489   5.777  0.00  0.00    +0.163 C 
ENDROOT
BRANCH   1  13
ATOM      2  C   UNL     1      -2.842   1.987   2.399  0.00  0.00    +0.046 C 
ATOM      3  C   UNL     1      -2.279   0.649   1.993  0.00  0.00    -0.026 A 
ATOM      4  C   UNL     1      -2.454   0.188   0.706  0.00  0.00    +0.005 A 
ATOM      5  C   UNL     1      -1.941  -1.043   0.319  0.00  0.00    +0.001 A 
ATOM      6  C   UNL     1      -1.253  -1.820   1.207  0.00  0.00    +0.010 A 
ATOM      7  C   UNL     1      -1.063  -1.372   2.518  0.00  0.00    -0.001 A 
ATOM      8  C   UNL     1      -1.577  -0.122   2.913  0.00  0.00    +0.052 A 
ATOM      9  N   UNL     1      -1.383   0.317   4.205  0.00  0.00    -0.322 N 
ATOM     10  H   UNL     1      -1.741   1.177   4.477  0.00  0.00    +0.169 HD
ATOM     11  C   UNL     1      -0.705  -0.429   5.095  0.00  0.00    +0.254 A 
ATOM     12  O   UNL     1      -0.553  -0.009   6.229  0.00  0.00    -0.268 OA
ATOM     13  C   UNL     1      -0.165  -1.686   4.748  0.00  0.00    +0.042 A 
ATOM     14  C   UNL     1      -0.331  -2.179   3.496  0.00  0.00    +0.021 A 
ENDBRANCH   1  13
BRANCH   1  15
ATOM     15  C   UNL     1      -0.305  -2.751   6.962  0.00  0.00    +0.173 A 
ATOM     16  N   UNL     1      -0.632  -1.897   7.900  0.00  0.00    -0.111 NA
ATOM     17  N   UNL     1      -1.410  -2.498   8.733  0.00  0.00    -0.023 NA
ATOM     18  N   UNL     1      -1.588  -3.714   8.350  0.00  0.00    -0.044 NA
ATOM     19  N   UNL     1      -0.927  -3.907   7.259  0.00  0.00    -0.224 N 
BRANCH  19  20
ATOM     20  C   UNL     1      -0.863  -5.152   6.489  0.00  0.00    +0.111 C 
ATOM     21  C   UNL     1      -2.277  -5.575   6.084  0.00  0.00    +0.027 C 
ATOM     22  C   UNL     1      -2.210  -6.875   5.280  0.00  0.00    +0.002 C 
ATOM     23  C   UNL     1      -1.576  -7.972   6.137  0.00  0.00    +0.000 C 
ATOM     24  C   UNL     1      -0.162  -7.550   6.543  0.00  0.00    +0.002 C 
ATOM     25  C   UNL     1      -0.229  -6.250   7.346  0.00  0.00    +0.027 C 
ENDBRANCH  19  20
ENDBRANCH   1  15
BRANCH   1  26
ATOM     26  N   UNL     1       1.772  -1.737   6.214  0.00  0.00    -0.279 NA
BRANCH  26  27
ATOM     27  C   UNL     1       2.561  -2.512   7.181  0.00  0.00    +0.159 C 
BRANCH  27  28
ATOM     28  C   UNL     1       1.918  -2.421   8.541  0.00  0.00    +0.119 A 
ATOM     29  C   UNL     1       1.278  -3.420   9.177  0.00  0.00    +0.046 A 
ATOM     30  C   UNL     1       0.836  -2.899  10.415  0.00  0.00    +0.041 A 
ATOM     31  C   UNL     1       1.231  -1.614  10.462  0.00  0.00    +0.195 A 
ATOM     32  O   UNL     1       1.891  -1.332   9.326  0.00  0.00    -0.467 OA
ENDBRANCH  27  28
ENDBRANCH  26  27
BRANCH  26  33
ATOM     33  C   UNL     1       2.595  -1.336   5.065  0.00  0.00    +0.117 C 
BRANCH  33  34
ATOM     34  C   UNL     1       2.076  -0.010   4.504  0.00  0.00    +0.132 C 
ATOM     35  C   UNL     1       3.037   0.508   3.412  0.00  0.00    +0.035 C 
ATOM     36  C   UNL     1       3.052   2.037   3.685  0.00  0.00    +0.031 C 
ATOM     37  C   UNL     1       2.915   2.061   5.229  0.00  0.00    +0.160 C 
ATOM     38  O   UNL     1       2.030   0.973   5.545  0.00  0.00    -0.375 OA
ENDBRANCH  33  34
ENDBRANCH  26  33
ENDBRANCH   1  26
TORSDOF 8
