REMARK  Name = ZINC02150550
REMARK  12 active torsions:
REMARK  status: ('A' for Active; 'I' for Inactive)
REMARK    1  A    between atoms: C_1  and  C_2
REMARK    2  A    between atoms: C_2  and  C_3
REMARK    3  A    between atoms: C_3  and  C_4
REMARK    4  A    between atoms: C_11  and  O_16
REMARK    5  A    between atoms: C_13  and  C_15
REMARK    6  A    between atoms: O_16  and  C_17
REMARK    7  A    between atoms: C_17  and  C_19
REMARK    8  A    between atoms: C_19  and  C_21
REMARK    9  A    between atoms: C_19  and  N_27
REMARK   10  A    between atoms: N_27  and  S_28
REMARK   11  A    between atoms: S_28  and  C_31
REMARK   12  A    between atoms: C_34  and  C_37
REMARK                            x       y       z     vdW  Elec       q    Type
REMARK                         _______ _______ _______ _____ _____    ______ ____
ROOT
ATOM      1  C   UNL     1      -0.084   0.896   1.425  0.00  0.00    +0.215 C 
ENDROOT
BRANCH   1   2
ATOM      2  C   UNL     1      -0.226   0.960   2.924  0.00  0.00    -0.018 A 
ATOM      3  C   UNL     1      -1.359   0.454   3.534  0.00  0.00    +0.006 A 
ATOM      4  C   UNL     1      -1.487   0.509   4.909  0.00  0.00    +0.000 A 
ATOM      5  C   UNL     1      -0.486   1.077   5.674  0.00  0.00    +0.000 A 
ATOM      6  C   UNL     1       0.645   1.587   5.065  0.00  0.00    +0.000 A 
ATOM      7  C   UNL     1       0.775   1.529   3.690  0.00  0.00    +0.006 A 
ENDBRANCH   1   2
BRANCH   1   8
ATOM      8  C   UNL     1       0.259  -0.512   1.012  0.00  0.00    +0.336 C 
ATOM      9  O   UNL     1      -0.556  -1.186   0.428  0.00  0.00    -0.248 OA
BRANCH   8  10
ATOM     10  O   UNL     1       1.471  -1.017   1.294  0.00  0.00    -0.424 OA
BRANCH  10  18
ATOM     11  C   UNL     1       2.863  -1.647  -1.104  0.00  0.00    -0.026 A 
ATOM     12  C   UNL     1       3.515  -2.051  -2.226  0.00  0.00    +0.096 A 
ATOM     13  C   UNL     1       3.694  -3.427  -2.475  0.00  0.00    +0.337 A 
ATOM     14  O   UNL     1       4.281  -3.776  -3.483  0.00  0.00    -0.245 OA
ATOM     15  O   UNL     1       3.234  -4.362  -1.629  0.00  0.00    -0.422 OA
ATOM     16  C   UNL     1       2.577  -4.028  -0.498  0.00  0.00    +0.143 A 
ATOM     17  C   UNL     1       2.364  -2.673  -0.187  0.00  0.00    +0.063 A 
ATOM     18  C   UNL     1       1.681  -2.323   0.987  0.00  0.00    +0.143 A 
ATOM     19  C   UNL     1       1.227  -3.320   1.833  0.00  0.00    +0.050 A 
ATOM     20  C   UNL     1       1.437  -4.652   1.518  0.00  0.00    -0.043 A 
ATOM     21  C   UNL     1       2.108  -5.008   0.366  0.00  0.00    +0.050 A 
ATOM     22  C   UNL     1       0.931  -5.725   2.448  0.00  0.00    +0.044 C 
BRANCH  11  23
ATOM     23  C   UNL     1       2.658  -0.182  -0.813  0.00  0.00    +0.036 C 
BRANCH  23  25
ATOM     24  C   UNL     1       3.541   1.786   0.446  0.00  0.00    +0.004 C 
ATOM     25  C   UNL     1       3.673   0.276   0.235  0.00  0.00    +0.001 C 
ENDBRANCH  23  25
ENDBRANCH  11  23
ENDBRANCH  10  18
ENDBRANCH   8  10
ENDBRANCH   1   8
BRANCH   1  26
ATOM     26  N   UNL     1      -1.347   1.295   0.798  0.00  0.00    -0.172 NA
ATOM     27  H   UNL     1      -2.050   0.641   0.666  0.00  0.00    +0.149 HD
BRANCH  26  28
ATOM     28  S   UNL     1      -1.572   2.863   0.314  0.00  0.00    +0.059 S 
ATOM     29  O   UNL     1      -2.865   2.925  -0.272  0.00  0.00    -0.153 OA
ATOM     30  O   UNL     1      -1.192   3.684   1.410  0.00  0.00    -0.153 OA
BRANCH  28  31
ATOM     31  C   UNL     1      -0.417   3.180  -0.978  0.00  0.00    +0.105 A 
ATOM     32  C   UNL     1       0.838   3.675  -0.677  0.00  0.00    +0.029 A 
ATOM     33  C   UNL     1       1.745   3.921  -1.690  0.00  0.00    +0.005 A 
ATOM     34  C   UNL     1       1.394   3.680  -3.006  0.00  0.00    -0.050 A 
ATOM     35  C   UNL     1       0.138   3.189  -3.307  0.00  0.00    +0.005 A 
ATOM     36  C   UNL     1      -0.768   2.940  -2.293  0.00  0.00    +0.029 A 
ATOM     37  C   UNL     1       2.382   3.951  -4.111  0.00  0.00    +0.044 C 
ENDBRANCH  28  31
ENDBRANCH  26  28
ENDBRANCH   1  26
TORSDOF 9
