REMARK  Name = ZINC45943433
REMARK  14 active torsions:
REMARK  status: ('A' for Active; 'I' for Inactive)
REMARK    1  A    between atoms: C_1  and  C_2
REMARK    2  A    between atoms: C_2  and  C_3
REMARK    3  A    between atoms: C_6  and  N_9
REMARK    4  A    between atoms: C_10  and  C_12
REMARK    5  A    between atoms: C_12  and  N_13
REMARK    6  A    between atoms: C_19  and  C_32
REMARK    7  A    between atoms: N_25  and  C_28
REMARK    8  A    between atoms: C_28  and  C_29
REMARK    9  A    between atoms: C_29  and  C_30
REMARK   10  A    between atoms: C_29  and  C_31
REMARK   11  A    between atoms: N_34  and  C_35
REMARK   12  A    between atoms: C_35  and  C_36
REMARK   13  A    between atoms: C_36  and  C_37
REMARK   14  A    between atoms: C_36  and  C_38
REMARK                            x       y       z     vdW  Elec       q    Type
REMARK                         _______ _______ _______ _____ _____    ______ ____
ROOT
ATOM      1  N   UNL     1       1.900  -2.519   8.133  0.00  0.00    -0.202 N 
ATOM      2  C   UNL     1       1.228  -3.622   8.520  0.00  0.00    +0.353 A 
ATOM      3  O   UNL     1       1.288  -4.721   7.998  0.00  0.00    -0.244 OA
ATOM      4  N   UNL     1       0.477  -3.288   9.590  0.00  0.00    -0.229 N 
ATOM      5  C   UNL     1      -0.398  -4.046  10.369  0.00  0.00    +0.067 A 
ATOM      6  C   UNL     1      -0.614  -5.387  10.092  0.00  0.00    +0.040 A 
ATOM      7  C   UNL     1      -1.492  -6.123  10.885  0.00  0.00    +0.039 A 
ATOM      8  C   UNL     1      -2.153  -5.514  11.955  0.00  0.00    +0.014 A 
ATOM      9  C   UNL     1      -1.941  -4.182  12.233  0.00  0.00    +0.016 A 
ATOM     10  C   UNL     1      -1.064  -3.440  11.444  0.00  0.00    +0.064 A 
ATOM     11  C   UNL     1      -0.816  -2.010  11.718  0.00  0.00    +0.263 A 
ATOM     12  O   UNL     1      -1.377  -1.452  12.642  0.00  0.00    -0.267 OA
ATOM     13  N   UNL     1       0.041  -1.332  10.929  0.00  0.00    -0.276 N 
ATOM     14  C   UNL     1       0.687  -1.956   9.871  0.00  0.00    +0.240 A 
ATOM     15  N   UNL     1       1.544  -1.484   9.007  0.00  0.00    -0.129 NA
ENDROOT
BRANCH   7  16
ATOM     16  C   UNL     1      -1.725  -7.555  10.592  0.00  0.00    +0.244 C 
ATOM     17  O   UNL     1      -1.152  -8.087   9.662  0.00  0.00    -0.270 OA
ATOM     18  N   UNL     1      -2.574  -8.270  11.357  0.00  0.00    -0.311 N 
ATOM     19  H   UNL     1      -3.032  -7.845  12.100  0.00  0.00    +0.149 HD
BRANCH  18  20
ATOM     20  C   UNL     1      -2.805  -9.687  11.068  0.00  0.00    +0.107 C 
BRANCH  20  21
ATOM     21  C   UNL     1      -3.803 -10.258  12.077  0.00  0.00    -0.000 C 
ATOM     22  C   UNL     1      -4.140 -11.702  11.701  0.00  0.00    +0.009 C 
ATOM     23  C   UNL     1      -3.187 -10.226  13.477  0.00  0.00    +0.009 C 
ENDBRANCH  20  21
ENDBRANCH  18  20
ENDBRANCH   7  16
BRANCH   1  24
ATOM     24  C   UNL     1       2.836  -2.423   7.010  0.00  0.00    +0.245 C 
BRANCH  24  26
ATOM     25  N   UNL     1       2.746  -1.883   4.598  0.00  0.00    -0.284 N 
ATOM     26  C   UNL     1       2.085  -2.032   5.763  0.00  0.00    +0.239 C 
ATOM     27  O   UNL     1       0.887  -1.852   5.809  0.00  0.00    -0.273 OA
ATOM     28  H   UNL     1       3.689  -2.102   4.544  0.00  0.00    +0.155 HD
BRANCH  25  32
ATOM     29  C   UNL     1       0.736  -0.485   1.228  0.00  0.00    -0.048 A 
ATOM     30  C   UNL     1       0.375  -0.033   2.483  0.00  0.00    +0.005 A 
ATOM     31  C   UNL     1       1.039  -0.494   3.603  0.00  0.00    +0.023 A 
ATOM     32  C   UNL     1       2.071  -1.414   3.466  0.00  0.00    +0.033 A 
ATOM     33  C   UNL     1       2.431  -1.866   2.204  0.00  0.00    +0.023 A 
ATOM     34  C   UNL     1       1.759  -1.404   1.089  0.00  0.00    +0.005 A 
BRANCH  29  36
ATOM     35  C   UNL     1      -1.189  -0.885  -0.284  0.00  0.00    +0.009 C 
ATOM     36  C   UNL     1       0.009   0.021   0.008  0.00  0.00    +0.032 C 
ENDBRANCH  29  36
ENDBRANCH  25  32
ENDBRANCH  24  26
ENDBRANCH   1  24
BRANCH  13  37
ATOM     37  C   UNL     1       0.294   0.087  11.191  0.00  0.00    +0.131 C 
BRANCH  37  38
ATOM     38  C   UNL     1       1.471   0.225  12.159  0.00  0.00    +0.003 C 
ATOM     39  C   UNL     1       2.744  -0.297  11.491  0.00  0.00    +0.009 C 
ATOM     40  C   UNL     1       1.656   1.697  12.531  0.00  0.00    +0.009 C 
ENDBRANCH  37  38
ENDBRANCH  13  37
TORSDOF 9
