REMARK  Name = ZINC09587925
REMARK  7 active torsions:
REMARK  status: ('A' for Active; 'I' for Inactive)
REMARK    1  A    between atoms: C_1  and  C_2
REMARK    2  A    between atoms: C_2  and  C_3
REMARK    3  A    between atoms: C_3  and  N_4
REMARK    4  A    between atoms: C_12  and  S_13
REMARK    5  A    between atoms: S_13  and  C_14
REMARK    6  A    between atoms: C_14  and  C_15
REMARK    7  A    between atoms: N_17  and  C_18
REMARK                            x       y       z     vdW  Elec       q    Type
REMARK                         _______ _______ _______ _____ _____    ______ ____
ROOT
ATOM      1  C   UNL     1       5.132   8.012  -0.007  0.00  0.00    +0.228 C 
ATOM      2  O   UNL     1       4.715   9.151   0.009  0.00  0.00    -0.275 OA
ATOM      3  N   UNL     1       6.460   7.781  -0.017  0.00  0.00    -0.284 N 
ATOM      4  H   UNL     1       6.795   6.873   0.051  0.00  0.00    +0.155 HD
ENDROOT
BRANCH   3   5
ATOM      5  C   UNL     1       7.357   8.852  -0.126  0.00  0.00    +0.050 A 
ATOM      6  C   UNL     1       6.951  10.037  -0.722  0.00  0.00    +0.052 A 
ATOM      7  C   UNL     1       7.840  11.095  -0.828  0.00  0.00    +0.069 A 
ATOM      8  C   UNL     1       9.140  10.965  -0.335  0.00  0.00    +0.068 A 
ATOM      9  C   UNL     1       9.540   9.778   0.260  0.00  0.00    +0.045 A 
ATOM     10  C   UNL     1       8.650   8.727   0.370  0.00  0.00    +0.041 A 
ATOM     11 BR   UNL     1       9.194   7.112   1.189  0.00  0.00    -0.048 Br
ATOM     12  N   UNL     1       9.787  12.175  -0.583  0.00  0.00    -0.306 N 
ATOM     13  H   UNL     1      10.705  12.386  -0.351  0.00  0.00    +0.170 HD
ATOM     14  C   UNL     1       8.920  13.001  -1.198  0.00  0.00    +0.325 A 
ATOM     15  O   UNL     1       9.168  14.139  -1.552  0.00  0.00    -0.247 OA
ATOM     16  N   UNL     1       7.737  12.378  -1.360  0.00  0.00    -0.306 N 
ATOM     17  H   UNL     1       6.948  12.759  -1.776  0.00  0.00    +0.170 HD
ENDBRANCH   3   5
BRANCH   1  18
ATOM     18  C   UNL     1       4.166   6.856  -0.016  0.00  0.00    +0.173 C 
BRANCH  18  19
ATOM     19  S   UNL     1       2.470   7.487   0.001  0.00  0.00    -0.078 S 
BRANCH  19  28
ATOM     20  N   UNL     1       0.216   5.856  -0.006  0.00  0.00    -0.319 N 
ATOM     21  C   UNL     1      -0.085   4.503  -0.021  0.00  0.00    +0.070 A 
ATOM     22  C   UNL     1      -1.270   3.783  -0.022  0.00  0.00    +0.029 A 
ATOM     23  C   UNL     1      -1.235   2.403  -0.045  0.00  0.00    +0.022 A 
ATOM     24  C   UNL     1      -0.021   1.731  -0.056  0.00  0.00    +0.043 A 
ATOM     25  C   UNL     1       1.166   2.431  -0.054  0.00  0.00    +0.050 A 
ATOM     26  C   UNL     1       1.147   3.829  -0.036  0.00  0.00    +0.092 A 
ATOM     27  N   UNL     1       2.122   4.775  -0.030  0.00  0.00    -0.222 NA
ATOM     28  C   UNL     1       1.578   5.967  -0.012  0.00  0.00    +0.170 A 
ATOM     29 CL   UNL     1       0.003  -0.005  -0.078  0.00  0.00    -0.083 Cl
BRANCH  20  30
ATOM     30  C   UNL     1      -0.746   6.960   0.013  0.00  0.00    +0.124 C 
BRANCH  30  32
ATOM     31  C   UNL     1      -2.094   8.516  -1.403  0.00  0.00    +0.005 C 
ATOM     32  C   UNL     1      -1.089   7.362  -1.423  0.00  0.00    +0.018 C 
ENDBRANCH  30  32
ENDBRANCH  20  30
ENDBRANCH  19  28
ENDBRANCH  18  19
ENDBRANCH   1  18
TORSDOF 6
