REMARK  Name = ZINC36207586
REMARK  13 active torsions:
REMARK  status: ('A' for Active; 'I' for Inactive)
REMARK    1  A    between atoms: C_1  and  C_2
REMARK    2  A    between atoms: C_5  and  C_9
REMARK    3  A    between atoms: C_7  and  C_8
REMARK    4  A    between atoms: C_18  and  C_20
REMARK    5  A    between atoms: C_20  and  N_21
REMARK    6  A    between atoms: N_21  and  C_22
REMARK    7  A    between atoms: N_21  and  C_31
REMARK    8  A    between atoms: C_22  and  C_23
REMARK    9  A    between atoms: C_23  and  C_25
REMARK   10  A    between atoms: C_23  and  O_30
REMARK   11  A    between atoms: C_25  and  O_26
REMARK   12  A    between atoms: O_26  and  C_27
REMARK   13  A    between atoms: C_27  and  C_28
REMARK                            x       y       z     vdW  Elec       q    Type
REMARK                         _______ _______ _______ _____ _____    ______ ____
ROOT
ATOM      1  C   UNL     1       1.409  -5.060  -0.610  0.00  0.00    +0.004 A 
ATOM      2  C   UNL     1       2.317  -5.942  -0.126  0.00  0.00    +0.056 A 
ATOM      3  S   UNL     1       1.592  -7.527  -0.499  0.00  0.00    -0.076 S 
ATOM      4  C   UNL     1       0.102  -6.974  -1.289  0.00  0.00    +0.116 A 
ATOM      5  C   UNL     1       0.199  -5.574  -1.239  0.00  0.00    +0.080 A 
ATOM      6  C   UNL     1      -0.898  -4.856  -1.815  0.00  0.00    +0.260 A 
ATOM      7  O   UNL     1      -0.903  -3.637  -1.824  0.00  0.00    -0.267 OA
ATOM      8  N   UNL     1      -1.923  -5.548  -2.347  0.00  0.00    -0.312 N 
ATOM      9  H   UNL     1      -2.668  -5.067  -2.739  0.00  0.00    +0.170 HD
ATOM     10  C   UNL     1      -1.933  -6.905  -2.346  0.00  0.00    +0.094 A 
ATOM     11  N   UNL     1      -0.943  -7.588  -1.838  0.00  0.00    -0.229 NA
ENDROOT
BRANCH   1  16
ATOM     12  C   UNL     1       2.304   0.611  -0.169  0.00  0.00    +0.044 C 
ATOM     13  C   UNL     1       2.070  -0.873  -0.284  0.00  0.00    -0.048 A 
ATOM     14  C   UNL     1       1.715  -1.422  -1.504  0.00  0.00    +0.004 A 
ATOM     15  C   UNL     1       1.500  -2.780  -1.616  0.00  0.00    +0.009 A 
ATOM     16  C   UNL     1       1.640  -3.600  -0.496  0.00  0.00    -0.016 A 
ATOM     17  C   UNL     1       1.998  -3.041   0.730  0.00  0.00    +0.012 A 
ATOM     18  C   UNL     1       2.216  -1.682   0.828  0.00  0.00    -0.047 A 
ATOM     19  C   UNL     1       2.609  -1.077   2.151  0.00  0.00    +0.044 C 
ENDBRANCH   1  16
BRANCH  10  20
ATOM     20  C   UNL     1      -3.102  -7.637  -2.954  0.00  0.00    -0.003 C 
BRANCH  20  21
ATOM     21  N   UNL     1      -2.966  -9.077  -2.697  0.00  0.00    +0.388 N 
ATOM     22  H   UNL     1      -1.992  -9.337  -2.749  0.00  0.00    -0.081 HD
BRANCH  21  23
ATOM     23  C   UNL     1      -3.484  -9.386  -1.357  0.00  0.00    -0.068 C 
ATOM     24  C   UNL     1      -4.979  -9.069  -1.303  0.00  0.00    -0.015 C 
ATOM     25  C   UNL     1      -5.519  -9.391   0.092  0.00  0.00    -0.002 C 
ATOM     26  C   UNL     1      -4.780  -8.546   1.132  0.00  0.00    -0.000 C 
ATOM     27  C   UNL     1      -3.285  -8.864   1.078  0.00  0.00    -0.002 C 
ATOM     28  C   UNL     1      -2.745  -8.542  -0.317  0.00  0.00    -0.015 C 
ENDBRANCH  21  23
BRANCH  21  29
ATOM     29  C   UNL     1      -3.728  -9.829  -3.702  0.00  0.00    -0.044 C 
BRANCH  29  30
ATOM     30  C   UNL     1      -3.444 -11.324  -3.546  0.00  0.00    +0.124 C 
BRANCH  30  31
ATOM     31  O   UNL     1      -3.989 -11.785  -2.308  0.00  0.00    -0.391 OA
ATOM     32  H   UNL     1      -4.954 -11.740  -2.262  0.00  0.00    +0.210 HD
ENDBRANCH  30  31
BRANCH  30  33
ATOM     33  C   UNL     1      -4.088 -12.089  -4.703  0.00  0.00    +0.189 C 
BRANCH  33  34
ATOM     34  O   UNL     1      -3.726 -13.469  -4.622  0.00  0.00    -0.373 OA
BRANCH  34  35
ATOM     35  C   UNL     1      -4.278 -14.278  -5.662  0.00  0.00    +0.186 C 
BRANCH  35  36
ATOM     36  C   UNL     1      -3.833 -15.706  -5.479  0.00  0.00    -0.007 C 
ATOM     37  C   UNL     1      -4.699 -16.682  -5.600  0.00  0.00    +0.006 C 
ENDBRANCH  35  36
ENDBRANCH  34  35
ENDBRANCH  33  34
ENDBRANCH  30  33
ENDBRANCH  29  30
ENDBRANCH  21  29
ENDBRANCH  20  21
ENDBRANCH  10  20
TORSDOF 11
