REMARK  Name = ZINC12326230
REMARK  5 active torsions:
REMARK  status: ('A' for Active; 'I' for Inactive)
REMARK    1  A    between atoms: C_4  and  C_7
REMARK    2  A    between atoms: C_7  and  C_8
REMARK    3  A    between atoms: C_8  and  C_15
REMARK    4  A    between atoms: C_20  and  C_21
REMARK    5  A    between atoms: C_20  and  N_57
REMARK                            x       y       z     vdW  Elec       q    Type
REMARK                         _______ _______ _______ _____ _____    ______ ____
ROOT
ATOM      1  C   UNL     1      -0.950   2.833   3.797  0.00  0.00    +0.018 C 
ATOM      2  C   UNL     1      -0.998   1.311   3.635  0.00  0.00    -0.013 C 
ATOM      3  C   UNL     1      -0.165   0.905   2.417  0.00  0.00    -0.078 C 
ATOM      4  C   UNL     1      -0.620   3.022   1.329  0.00  0.00    -0.078 C 
ATOM      5  C   UNL     1      -1.466   3.491   2.514  0.00  0.00    -0.013 C 
ATOM      6  N   UNL     1      -0.729   1.552   1.213  0.00  0.00    +0.383 N 
ATOM      7  H   UNL     1      -1.720   1.296   1.131  0.00  0.00    -0.081 HD
ENDROOT
BRANCH   1   8
ATOM      8  C   UNL     1      -1.829   3.250   4.976  0.00  0.00    +0.119 C 
ATOM      9  C   UNL     1      -3.235   2.707   4.812  0.00  0.00    +0.244 C 
ATOM     10  O   UNL     1      -4.015   2.953   3.917  0.00  0.00    -0.273 OA
ATOM     11  N   UNL     1      -3.437   1.894   5.867  0.00  0.00    -0.238 N 
ATOM     12  C   UNL     1      -2.366   1.848   6.668  0.00  0.00    +0.307 C 
ATOM     13  O   UNL     1      -2.309   1.183   7.683  0.00  0.00    -0.252 OA
ATOM     14  N   UNL     1      -1.359   2.621   6.222  0.00  0.00    -0.284 N 
ATOM     15  H   UNL     1      -4.258   1.402   6.027  0.00  0.00    +0.159 HD
ATOM     16  H   UNL     1      -0.491   2.740   6.640  0.00  0.00    +0.151 HD
BRANCH   8  17
ATOM     17  C   UNL     1      -1.854   4.774   5.115  0.00  0.00    +0.070 C 
BRANCH  17  21
ATOM     18  C   UNL     1      -4.039   5.850   8.624  0.00  0.00    +0.000 A 
ATOM     19  C   UNL     1      -2.675   5.634   8.698  0.00  0.00    +0.000 A 
ATOM     20  C   UNL     1      -1.968   5.285   7.562  0.00  0.00    +0.004 A 
ATOM     21  C   UNL     1      -2.625   5.153   6.353  0.00  0.00    -0.045 A 
ATOM     22  C   UNL     1      -3.987   5.375   6.278  0.00  0.00    +0.004 A 
ATOM     23  C   UNL     1      -4.695   5.719   7.415  0.00  0.00    +0.000 A 
ENDBRANCH  17  21
ENDBRANCH   8  17
ENDBRANCH   1   8
BRANCH   6  24
ATOM     24  C   UNL     1      -0.013   1.086   0.008  0.00  0.00    -0.036 C 
BRANCH  24  25
ATOM     25  C   UNL     1      -0.742   1.585  -1.213  0.00  0.00    +0.018 A 
ATOM     26  C   UNL     1      -1.578   0.771  -1.882  0.00  0.00    +0.201 A 
ATOM     27  O   UNL     1      -2.256   1.160  -2.967  0.00  0.00    -0.462 OA
ATOM     28  C   UNL     1      -2.143   2.401  -3.483  0.00  0.00    +0.138 A 
ATOM     29  C   UNL     1      -2.857   2.772  -4.616  0.00  0.00    +0.047 A 
ATOM     30  C   UNL     1      -2.724   4.047  -5.125  0.00  0.00    +0.004 A 
ATOM     31  C   UNL     1      -1.883   4.968  -4.518  0.00  0.00    +0.001 A 
ATOM     32  C   UNL     1      -1.166   4.620  -3.394  0.00  0.00    +0.015 A 
ATOM     33  C   UNL     1      -1.292   3.335  -2.870  0.00  0.00    +0.064 A 
ATOM     34  C   UNL     1      -0.545   2.916  -1.668  0.00  0.00    +0.194 A 
ATOM     35  O   UNL     1       0.209   3.680  -1.090  0.00  0.00    -0.287 OA
ENDBRANCH  24  25
ENDBRANCH   6  24
TORSDOF 5
