REMARK  Name = ZINC22681451
REMARK  10 active torsions:
REMARK  status: ('A' for Active; 'I' for Inactive)
REMARK    1  A    between atoms: C_1  and  C_2
REMARK    2  A    between atoms: N_5  and  C_8
REMARK    3  A    between atoms: C_8  and  C_10
REMARK    4  A    between atoms: C_8  and  C_27
REMARK    5  A    between atoms: C_10  and  N_11
REMARK    6  A    between atoms: C_12  and  C_14
REMARK    7  A    between atoms: C_14  and  C_15
REMARK    8  A    between atoms: C_15  and  C_17
REMARK    9  A    between atoms: C_15  and  N_18
REMARK   10  A    between atoms: C_19  and  C_21
REMARK                            x       y       z     vdW  Elec       q    Type
REMARK                         _______ _______ _______ _____ _____    ______ ____
ROOT
ATOM      1  N   UNL     1      -0.713   1.924   1.317  0.00  0.00    -0.316 N 
ATOM      2  C   UNL     1      -0.996   3.222   1.547  0.00  0.00    +0.215 C 
ATOM      3  O   UNL     1      -0.737   4.057   0.707  0.00  0.00    -0.276 OA
ATOM      4  H   UNL     1      -0.949   1.166   2.079  0.00  0.00    +0.149 HD
ENDROOT
BRANCH   1   5
ATOM      5  C   UNL     1      -0.092   1.523   0.052  0.00  0.00    +0.094 C 
BRANCH   5   6
ATOM      6  C   UNL     1       0.010  -0.003  -0.005  0.00  0.00    -0.013 C 
BRANCH   6  11
ATOM      7  C   UNL     1       3.484  -2.120   4.010  0.00  0.00    +0.007 C 
ATOM      8  C   UNL     1       2.901  -1.666   2.670  0.00  0.00    -0.018 C 
ATOM      9  C   UNL     1       2.598  -0.166   2.725  0.00  0.00    -0.015 C 
ATOM     10  C   UNL     1       1.959   0.269   1.404  0.00  0.00    -0.078 C 
ATOM     11  N   UNL     1       0.722  -0.491   1.183  0.00  0.00    +0.386 N 
ATOM     12  C   UNL     1       0.995  -1.930   1.079  0.00  0.00    -0.078 C 
ATOM     13  C   UNL     1       1.605  -2.431   2.390  0.00  0.00    -0.015 C 
ATOM     14  H   UNL     1       0.072  -0.335   2.057  0.00  0.00    -0.081 HD
ENDBRANCH   6  11
BRANCH   6  15
ATOM     15  C   UNL     1       0.763  -0.410  -1.245  0.00  0.00    -0.022 A 
ATOM     16  C   UNL     1       0.279  -0.861  -2.428  0.00  0.00    +0.009 A 
ATOM     17  C   UNL     1       1.167  -1.175  -3.440  0.00  0.00    +0.008 A 
ATOM     18  C   UNL     1       2.497  -1.032  -3.215  0.00  0.00    +0.045 A 
ATOM     19  S   UNL     1       2.525  -0.430  -1.534  0.00  0.00    -0.103 S 
ENDBRANCH   6  15
ENDBRANCH   5   6
ENDBRANCH   1   5
BRANCH   2  20
ATOM     20  C   UNL     1      -1.635   3.634   2.848  0.00  0.00    +0.117 C 
BRANCH  20  21
ATOM     21  C   UNL     1      -1.848   5.149   2.854  0.00  0.00    +0.079 C 
ATOM     22  C   UNL     1      -2.381   5.584   4.220  0.00  0.00    +0.028 C 
BRANCH  21  23
ATOM     23  N   UNL     1      -2.816   5.510   1.815  0.00  0.00    -0.308 N 
ATOM     24  C   UNL     1      -2.802   6.748   1.282  0.00  0.00    +0.244 C 
ATOM     25  O   UNL     1      -1.987   7.565   1.663  0.00  0.00    -0.270 OA
ATOM     26  H   UNL     1      -3.554   4.771   1.469  0.00  0.00    +0.149 HD
BRANCH  24  27
ATOM     27  C   UNL     1      -3.779   7.113   0.234  0.00  0.00    +0.037 A 
ATOM     28  C   UNL     1      -4.713   6.175  -0.211  0.00  0.00    +0.013 A 
ATOM     29  C   UNL     1      -5.625   6.523  -1.186  0.00  0.00    +0.001 A 
ATOM     30  C   UNL     1      -5.608   7.795  -1.730  0.00  0.00    +0.000 A 
ATOM     31  C   UNL     1      -4.681   8.727  -1.299  0.00  0.00    +0.001 A 
ATOM     32  C   UNL     1      -3.768   8.394  -0.320  0.00  0.00    +0.013 A 
ENDBRANCH  24  27
ENDBRANCH  21  23
ENDBRANCH  20  21
ENDBRANCH   2  20
TORSDOF 8
