REMARK  Name = ZINC34787285
REMARK  12 active torsions:
REMARK  status: ('A' for Active; 'I' for Inactive)
REMARK    1  A    between atoms: C_1  and  C_2
REMARK    2  A    between atoms: C_2  and  C_3
REMARK    3  A    between atoms: C_4  and  C_36
REMARK    4  A    between atoms: C_8  and  N_19
REMARK    5  A    between atoms: C_13  and  C_18
REMARK    6  A    between atoms: C_15  and  C_17
REMARK    7  A    between atoms: N_19  and  N_20
REMARK    8  A    between atoms: N_19  and  N_28
REMARK    9  A    between atoms: N_20  and  C_21
REMARK   10  A    between atoms: C_21  and  C_22
REMARK   11  A    between atoms: N_28  and  C_29
REMARK   12  A    between atoms: C_32  and  C_35
REMARK                            x       y       z     vdW  Elec       q    Type
REMARK                         _______ _______ _______ _____ _____    ______ ____
ROOT
ATOM      1  C   UNL     1      -0.251   0.272   0.210  0.00  0.00    -0.025 A 
ATOM      2  C   UNL     1      -0.419   0.488   1.523  0.00  0.00    -0.007 A 
ATOM      3  S   UNL     1      -2.109  -0.000   1.813  0.00  0.00    -0.073 S 
ATOM      4  C   UNL     1      -2.544  -0.481   0.162  0.00  0.00    +0.116 A 
ATOM      5  C   UNL     1      -1.362  -0.243  -0.572  0.00  0.00    +0.054 A 
ATOM      6  C   UNL     1      -1.432  -0.545  -1.960  0.00  0.00    +0.167 A 
ATOM      7  N   UNL     1      -2.563  -1.010  -2.464  0.00  0.00    -0.192 NA
ATOM      8  C   UNL     1      -3.640  -1.206  -1.716  0.00  0.00    +0.254 A 
ATOM      9  N   UNL     1      -3.631  -0.952  -0.417  0.00  0.00    -0.203 NA
ATOM     10  N   UNL     1      -4.803  -1.699  -2.308  0.00  0.00    -0.202 N 
ATOM     11  C   UNL     1      -5.981  -1.945  -1.677  0.00  0.00    +0.045 A 
ATOM     12  C   UNL     1      -6.851  -2.413  -2.601  0.00  0.00    +0.048 A 
ATOM     13  C   UNL     1      -6.189  -2.456  -3.834  0.00  0.00    +0.061 A 
ATOM     14  N   UNL     1      -4.967  -2.024  -3.662  0.00  0.00    -0.169 NA
ATOM     15  C   UNL     1      -6.786  -2.916  -5.139  0.00  0.00    +0.067 C 
ATOM     16  C   UNL     1      -6.266  -1.736  -0.212  0.00  0.00    +0.066 C 
ATOM     17  C   UNL     1       0.583   1.016   2.518  0.00  0.00    +0.052 C 
ENDROOT
BRANCH   1  19
ATOM     18  C   UNL     1       1.461   2.022  -0.183  0.00  0.00    +0.009 C 
ATOM     19  C   UNL     1       1.073   0.566  -0.447  0.00  0.00    +0.033 C 
ENDBRANCH   1  19
BRANCH   6  20
ATOM     20  N   UNL     1      -0.330  -0.354  -2.774  0.00  0.00    -0.166 N 
BRANCH  20  21
ATOM     21  N   UNL     1       0.854  -0.964  -2.474  0.00  0.00    -0.217 NA
ATOM     22  H   UNL     1       1.632  -0.462  -2.877  0.00  0.00    +0.146 HD
BRANCH  21  23
ATOM     23  C   UNL     1       0.850  -2.366  -2.912  0.00  0.00    +0.139 C 
BRANCH  23  24
ATOM     24  C   UNL     1       2.169  -3.006  -2.566  0.00  0.00    -0.032 A 
ATOM     25  C   UNL     1       3.216  -2.963  -3.468  0.00  0.00    +0.005 A 
ATOM     26  C   UNL     1       4.427  -3.550  -3.150  0.00  0.00    +0.000 A 
ATOM     27  C   UNL     1       4.591  -4.178  -1.929  0.00  0.00    +0.000 A 
ATOM     28  C   UNL     1       3.545  -4.219  -1.027  0.00  0.00    +0.000 A 
ATOM     29  C   UNL     1       2.336  -3.629  -1.343  0.00  0.00    +0.005 A 
ENDBRANCH  23  24
ENDBRANCH  21  23
ENDBRANCH  20  21
BRANCH  20  30
ATOM     30  N   UNL     1      -0.429   0.466  -3.906  0.00  0.00    -0.249 N 
ATOM     31  H   UNL     1      -0.443   0.071  -4.791  0.00  0.00    +0.172 HD
BRANCH  30  32
ATOM     32  C   UNL     1      -0.508   1.853  -3.759  0.00  0.00    +0.046 A 
ATOM     33  C   UNL     1      -0.602   2.414  -2.492  0.00  0.00    +0.025 A 
ATOM     34  C   UNL     1      -0.679   3.786  -2.350  0.00  0.00    +0.005 A 
ATOM     35  C   UNL     1      -0.663   4.600  -3.468  0.00  0.00    -0.050 A 
ATOM     36  C   UNL     1      -0.570   4.045  -4.731  0.00  0.00    +0.005 A 
ATOM     37  C   UNL     1      -0.486   2.674  -4.879  0.00  0.00    +0.025 A 
ATOM     38  C   UNL     1      -0.748   6.096  -3.309  0.00  0.00    +0.044 C 
ENDBRANCH  30  32
ENDBRANCH  20  30
ENDBRANCH   6  20
TORSDOF 7
