REMARK  Name = ZINC39469801
REMARK  8 active torsions:
REMARK  status: ('A' for Active; 'I' for Inactive)
REMARK    1  A    between atoms: C_1  and  C_2
REMARK    2  A    between atoms: C_2  and  C_3
REMARK    3  A    between atoms: C_2  and  S_4
REMARK    4  A    between atoms: S_4  and  C_7
REMARK    5  A    between atoms: P_16  and  S_26
REMARK    6  A    between atoms: C_24  and  O_25
REMARK    7  A    between atoms: S_26  and  O_29
REMARK    8  A    between atoms: O_29  and  C_30
REMARK                            x       y       z     vdW  Elec       q    Type
REMARK                         _______ _______ _______ _____ _____    ______ ____
ROOT
ATOM      1  C   UNL     1      -2.252  -0.079  -1.422  0.00  0.00    +0.126 C 
ATOM      2  C   UNL     1      -2.745  -0.883  -2.363  0.00  0.00    +0.008 C 
ATOM      3  C   UNL     1      -3.255  -0.279  -3.642  0.00  0.00    +0.023 C 
ATOM      4  C   UNL     1      -4.257  -1.199  -4.333  0.00  0.00    +0.031 C 
ATOM      5  C   UNL     1      -4.766  -0.532  -5.618  0.00  0.00    +0.100 C 
ATOM      6  C   UNL     1      -5.801  -1.476  -6.242  0.00  0.00    +0.191 C 
ATOM      7  O   UNL     1      -6.263  -0.926  -7.489  0.00  0.00    -0.297 OA
ATOM      8  P   UNL     1      -6.774   0.619  -7.495  0.00  0.00    +0.458 P 
ATOM      9  O   UNL     1      -8.157   0.704  -6.975  0.00  0.00    -0.243 OA
ATOM     10  N   UNL     1      -5.736   1.424  -6.494  0.00  0.00    -0.159 NA
ATOM     11  N   UNL     1      -5.361   0.775  -5.334  0.00  0.00    -0.228 NA
ATOM     12  C   UNL     1      -4.438   1.677  -4.620  0.00  0.00    +0.111 C 
ATOM     13  C   UNL     1      -3.969   1.040  -3.319  0.00  0.00    +0.038 C 
ATOM     14  C   UNL     1      -3.026   1.931  -2.558  0.00  0.00    +0.026 C 
ATOM     15  C   UNL     1      -2.210   1.379  -1.653  0.00  0.00    +0.138 C 
ATOM     16  H   UNL     1      -5.416   2.313  -6.712  0.00  0.00    +0.152 HD
ENDROOT
BRANCH   1  17
ATOM     17  S   UNL     1      -1.660  -0.751   0.095  0.00  0.00    +0.002 S 
ATOM     18  O   UNL     1      -0.363  -0.194   0.257  0.00  0.00    -0.169 OA
ATOM     19  O   UNL     1      -1.833  -2.155  -0.038  0.00  0.00    -0.169 OA
BRANCH  17  21
ATOM     20  C   UNL     1      -4.208  -0.574   1.074  0.00  0.00    +0.032 C 
ATOM     21  C   UNL     1      -2.782  -0.100   1.363  0.00  0.00    +0.130 C 
ATOM     22  C   UNL     1      -2.345  -0.607   2.739  0.00  0.00    +0.032 C 
ENDBRANCH  17  21
ENDBRANCH   1  17
BRANCH   8  23
ATOM     23  S   UNL     1      -6.677   1.417  -9.456  0.00  0.00    +0.211 S 
ATOM     24  O   UNL     1      -7.271   2.707  -9.400  0.00  0.00    -0.126 OA
ATOM     25  O   UNL     1      -5.348   1.210  -9.914  0.00  0.00    -0.126 OA
BRANCH  23  26
ATOM     26  O   UNL     1      -7.579   0.561 -10.335  0.00  0.00    -0.339 OA
BRANCH  26  27
ATOM     27  C   UNL     1      -8.906   0.789 -10.152  0.00  0.00    +0.157 A 
ATOM     28  C   UNL     1      -9.611   0.064  -9.203  0.00  0.00    +0.048 A 
ATOM     29  C   UNL     1     -10.960   0.298  -9.019  0.00  0.00    +0.004 A 
ATOM     30  C   UNL     1     -11.608   1.253  -9.781  0.00  0.00    +0.000 A 
ATOM     31  C   UNL     1     -10.907   1.977 -10.728  0.00  0.00    +0.004 A 
ATOM     32  C   UNL     1      -9.556   1.751 -10.911  0.00  0.00    +0.048 A 
ENDBRANCH  26  27
ENDBRANCH  23  26
ENDBRANCH   8  23
BRANCH  15  33
ATOM     33  O   UNL     1      -1.343   2.157  -0.954  0.00  0.00    -0.505 OA
ATOM     34  H   UNL     1      -1.391   3.097  -1.177  0.00  0.00    +0.292 HD
ENDBRANCH  15  33
TORSDOF 6
