REMARK  Name = ZINC36346300
REMARK  15 active torsions:
REMARK  status: ('A' for Active; 'I' for Inactive)
REMARK    1  A    between atoms: C_1  and  C_2
REMARK    2  A    between atoms: C_3  and  C_21
REMARK    3  A    between atoms: C_4  and  O_13
REMARK    4  A    between atoms: N_5  and  C_7
REMARK    5  A    between atoms: O_13  and  C_14
REMARK    6  A    between atoms: C_21  and  N_22
REMARK    7  A    between atoms: N_22  and  C_23
REMARK    8  A    between atoms: N_22  and  C_31
REMARK    9  A    between atoms: C_23  and  C_24
REMARK   10  A    between atoms: C_24  and  C_26
REMARK   11  A    between atoms: C_24  and  O_30
REMARK   12  A    between atoms: C_26  and  C_27
REMARK   13  A    between atoms: C_27  and  C_28
REMARK   14  A    between atoms: C_31  and  C_32
REMARK   15  A    between atoms: C_31  and  C_33
REMARK                            x       y       z     vdW  Elec       q    Type
REMARK                         _______ _______ _______ _____ _____    ______ ____
ROOT
ATOM      1  C   UNL     1       2.504   2.910  -0.687  0.00  0.00    +0.068 C 
ATOM      2  C   UNL     1       1.647   1.754  -0.238  0.00  0.00    +0.065 A 
ATOM      3  C   UNL     1       0.963   0.870  -1.077  0.00  0.00    +0.021 A 
ATOM      4  C   UNL     1       0.308  -0.028  -0.293  0.00  0.00    +0.225 A 
ATOM      5  N   UNL     1       0.577   0.289   1.002  0.00  0.00    -0.200 N 
ATOM      6  N   UNL     1       1.423   1.406   1.003  0.00  0.00    -0.168 NA
ENDROOT
BRANCH   5   7
ATOM      7  C   UNL     1       0.098  -0.385   2.134  0.00  0.00    +0.069 A 
ATOM      8  C   UNL     1      -1.218  -0.825   2.176  0.00  0.00    +0.028 A 
ATOM      9  C   UNL     1      -1.687  -1.489   3.293  0.00  0.00    +0.002 A 
ATOM     10  C   UNL     1      -0.848  -1.716   4.368  0.00  0.00    +0.000 A 
ATOM     11  C   UNL     1       0.464  -1.278   4.329  0.00  0.00    +0.002 A 
ATOM     12  C   UNL     1       0.940  -0.619   3.213  0.00  0.00    +0.028 A 
ENDBRANCH   5   7
BRANCH   4  13
ATOM     13  O   UNL     1      -0.472  -1.051  -0.724  0.00  0.00    -0.438 OA
BRANCH  13  14
ATOM     14  C   UNL     1      -1.778  -0.789  -0.992  0.00  0.00    +0.133 A 
ATOM     15  C   UNL     1      -2.294   0.478  -0.759  0.00  0.00    +0.046 A 
ATOM     16  C   UNL     1      -3.622   0.743  -1.033  0.00  0.00    +0.006 A 
ATOM     17  C   UNL     1      -4.438  -0.252  -1.538  0.00  0.00    +0.038 A 
ATOM     18  C   UNL     1      -3.926  -1.518  -1.771  0.00  0.00    +0.127 A 
ATOM     19  C   UNL     1      -2.595  -1.786  -1.504  0.00  0.00    +0.084 A 
ATOM     20  F   UNL     1      -4.725  -2.489  -2.264  0.00  0.00    -0.205 F 
ENDBRANCH  13  14
ENDBRANCH   4  13
BRANCH   3  21
ATOM     21  C   UNL     1       0.953   0.905  -2.584  0.00  0.00    -0.035 C 
BRANCH  21  22
ATOM     22  N   UNL     1       2.316   0.693  -3.088  0.00  0.00    +0.386 N 
ATOM     23  H   UNL     1       2.951   1.316  -2.611  0.00  0.00    -0.081 HD
BRANCH  22  24
ATOM     24  C   UNL     1       2.718  -0.698  -2.842  0.00  0.00    -0.074 C 
ATOM     25  C   UNL     1       2.869  -0.928  -1.337  0.00  0.00    -0.014 C 
ATOM     26  C   UNL     1       1.651  -1.643  -3.398  0.00  0.00    -0.014 C 
ENDBRANCH  22  24
BRANCH  22  27
ATOM     27  C   UNL     1       2.352   0.966  -4.531  0.00  0.00    -0.046 C 
BRANCH  27  28
ATOM     28  C   UNL     1       3.802   0.938  -5.019  0.00  0.00    +0.098 C 
BRANCH  28  29
ATOM     29  O   UNL     1       4.307  -0.396  -4.936  0.00  0.00    -0.394 OA
ATOM     30  H   UNL     1       3.867  -1.021  -5.528  0.00  0.00    +0.210 HD
ENDBRANCH  28  29
BRANCH  28  31
ATOM     31  C   UNL     1       3.861   1.416  -6.471  0.00  0.00    +0.033 C 
BRANCH  31  32
ATOM     32  C   UNL     1       5.321   1.507  -6.919  0.00  0.00    +0.029 C 
BRANCH  32  33
ATOM     33  C   UNL     1       5.379   1.978  -8.350  0.00  0.00    -0.034 C 
ATOM     34  C   UNL     1       6.088   3.033  -8.664  0.00  0.00    +0.004 C 
ENDBRANCH  32  33
ENDBRANCH  31  32
ENDBRANCH  28  31
ENDBRANCH  27  28
ENDBRANCH  22  27
ENDBRANCH  21  22
ENDBRANCH   3  21
TORSDOF 12
