REMARK  Name = ZINC13063946
REMARK  11 active torsions:
REMARK  status: ('A' for Active; 'I' for Inactive)
REMARK    1  A    between atoms: C_1  and  C_2
REMARK    2  A    between atoms: C_2  and  C_3
REMARK    3  A    between atoms: C_3  and  C_5
REMARK    4  A    between atoms: C_3  and  N_63
REMARK    5  A    between atoms: N_9  and  C_10
REMARK    6  A    between atoms: C_10  and  C_11
REMARK    7  A    between atoms: C_16  and  C_17
REMARK    8  A    between atoms: C_16  and  N_63
REMARK    9  A    between atoms: C_23  and  C_24
REMARK   10  A    between atoms: C_23  and  N_63
REMARK   11  A    between atoms: C_29  and  C_36
REMARK                            x       y       z     vdW  Elec       q    Type
REMARK                         _______ _______ _______ _____ _____    ______ ____
ROOT
ATOM      1  N   UNL     1       4.069  -0.764  -1.335  0.00  0.00    +0.392 N 
ATOM      2  H   UNL     1       4.188   0.054  -1.944  0.00  0.00    -0.080 HD
ENDROOT
BRANCH   1   3
ATOM      3  C   UNL     1       5.304  -1.574  -1.371  0.00  0.00    +0.003 C 
BRANCH   3   4
ATOM      4  C   UNL     1       6.401  -0.833  -0.649  0.00  0.00    +0.139 A 
ATOM      5  N   UNL     1       6.688   0.441  -0.758  0.00  0.00    -0.115 NA
ATOM      6  N   UNL     1       7.685   0.692   0.019  0.00  0.00    -0.023 NA
ATOM      7  N   UNL     1       8.046  -0.391   0.615  0.00  0.00    -0.044 NA
ATOM      8  N   UNL     1       7.278  -1.353   0.230  0.00  0.00    -0.223 N 
BRANCH   8   9
ATOM      9  C   UNL     1       7.349  -2.750   0.665  0.00  0.00    +0.221 C 
BRANCH   9  10
ATOM     10  C   UNL     1       8.268  -3.517  -0.250  0.00  0.00    +0.126 A 
ATOM     11  C   UNL     1       9.595  -3.668  -0.086  0.00  0.00    +0.046 A 
ATOM     12  C   UNL     1      10.054  -4.455  -1.167  0.00  0.00    +0.041 A 
ATOM     13  C   UNL     1       8.982  -4.730  -1.932  0.00  0.00    +0.195 A 
ATOM     14  O   UNL     1       7.903  -4.159  -1.371  0.00  0.00    -0.466 OA
ENDBRANCH   9  10
ENDBRANCH   8   9
ENDBRANCH   3   4
BRANCH   3  16
ATOM     15  C   UNL     1       5.997  -0.437  -3.485  0.00  0.00    +0.002 C 
ATOM     16  C   UNL     1       5.710  -1.789  -2.830  0.00  0.00    -0.011 C 
ENDBRANCH   3  16
ENDBRANCH   1   3
BRANCH   1  17
ATOM     17  C   UNL     1       3.807  -0.302   0.044  0.00  0.00    -0.042 C 
BRANCH  17  18
ATOM     18  C   UNL     1       2.841   0.855  -0.009  0.00  0.00    -0.064 A 
ATOM     19  C   UNL     1       1.480   0.617  -0.052  0.00  0.00    +0.002 A 
ATOM     20  C   UNL     1       0.595   1.677  -0.102  0.00  0.00    +0.000 A 
ATOM     21  C   UNL     1       1.071   2.975  -0.107  0.00  0.00    +0.000 A 
ATOM     22  C   UNL     1       2.432   3.213  -0.064  0.00  0.00    +0.000 A 
ATOM     23  C   UNL     1       3.317   2.152  -0.015  0.00  0.00    +0.002 A 
ENDBRANCH  17  18
ENDBRANCH   1  17
BRANCH   1  24
ATOM     24  C   UNL     1       2.926  -1.563  -1.826  0.00  0.00    -0.036 C 
BRANCH  24  25
ATOM     25  C   UNL     1       2.746  -2.800  -0.983  0.00  0.00    +0.001 A 
ATOM     26  C   UNL     1       1.883  -2.785   0.063  0.00  0.00    +0.017 A 
ATOM     27  C   UNL     1       1.731  -4.002   0.862  0.00  0.00    -0.001 A 
ATOM     28  C   UNL     1       0.856  -4.047   1.952  0.00  0.00    +0.010 A 
ATOM     29  C   UNL     1       0.737  -5.199   2.677  0.00  0.00    +0.004 A 
ATOM     30  C   UNL     1       1.477  -6.325   2.342  0.00  0.00    -0.048 A 
ATOM     31  C   UNL     1       2.345  -6.303   1.272  0.00  0.00    +0.029 A 
ATOM     32  C   UNL     1       2.483  -5.141   0.519  0.00  0.00    +0.049 A 
ATOM     33  N   UNL     1       3.344  -5.092  -0.557  0.00  0.00    -0.322 N 
ATOM     34  H   UNL     1       3.861  -5.878  -0.792  0.00  0.00    +0.169 HD
ATOM     35  C   UNL     1       3.473  -3.971  -1.288  0.00  0.00    +0.251 A 
ATOM     36  O   UNL     1       4.239  -3.964  -2.236  0.00  0.00    -0.268 OA
ATOM     37  C   UNL     1       1.329  -7.584   3.157  0.00  0.00    +0.044 C 
ENDBRANCH  24  25
ENDBRANCH   1  24
TORSDOF 9
