REMARK  Name = ZINC18033808
REMARK  6 active torsions:
REMARK  status: ('A' for Active; 'I' for Inactive)
REMARK    1  A    between atoms: C_4  and  S_7
REMARK    2  A    between atoms: S_7  and  N_10
REMARK    3  A    between atoms: C_13  and  N_22
REMARK    4  A    between atoms: N_22  and  N_23
REMARK    5  A    between atoms: C_24  and  C_26
REMARK    6  A    between atoms: C_29  and  N_32
REMARK                            x       y       z     vdW  Elec       q    Type
REMARK                         _______ _______ _______ _____ _____    ______ ____
ROOT
ATOM      1  N   UNL     1       2.408   5.072  -0.261  0.00  0.00    -0.128 NA
ATOM      2  C   UNL     1       2.421   3.796   0.018  0.00  0.00    +0.095 C 
ATOM      3  C   UNL     1       1.181   3.009  -0.042  0.00  0.00    +0.058 C 
ATOM      4  C   UNL     1       1.228   1.657  -0.027  0.00  0.00    +0.094 C 
ATOM      5  C   UNL     1       2.526   0.956   0.054  0.00  0.00    +0.209 C 
ATOM      6  O   UNL     1       2.598  -0.236  -0.175  0.00  0.00    -0.285 OA
ATOM      7  C   UNL     1       3.737   1.719   0.412  0.00  0.00    +0.033 A 
ATOM      8  C   UNL     1       3.688   3.125   0.398  0.00  0.00    +0.013 A 
ATOM      9  C   UNL     1       4.815   3.859   0.737  0.00  0.00    +0.011 A 
ATOM     10  C   UNL     1       5.983   3.201   1.087  0.00  0.00    +0.001 A 
ATOM     11  C   UNL     1       6.033   1.819   1.102  0.00  0.00    +0.001 A 
ATOM     12  C   UNL     1       4.918   1.073   0.766  0.00  0.00    +0.012 A 
ENDROOT
BRANCH   1  13
ATOM     13  S   UNL     1       3.763   5.800  -0.873  0.00  0.00    +0.099 S 
ATOM     14  O   UNL     1       4.211   6.719   0.114  0.00  0.00    -0.146 OA
ATOM     15  O   UNL     1       4.590   4.760  -1.377  0.00  0.00    -0.146 OA
BRANCH  13  19
ATOM     16  C   UNL     1       2.464   8.265  -4.441  0.00  0.00    +0.000 A 
ATOM     17  C   UNL     1       2.480   8.830  -3.179  0.00  0.00    +0.002 A 
ATOM     18  C   UNL     1       2.877   8.077  -2.090  0.00  0.00    +0.029 A 
ATOM     19  C   UNL     1       3.257   6.760  -2.262  0.00  0.00    +0.112 A 
ATOM     20  C   UNL     1       3.247   6.196  -3.524  0.00  0.00    +0.029 A 
ATOM     21  C   UNL     1       2.846   6.947  -4.613  0.00  0.00    +0.002 A 
ENDBRANCH  13  19
ENDBRANCH   1  13
BRANCH   4  22
ATOM     22  N   UNL     1       0.051   0.925  -0.084  0.00  0.00    -0.261 N 
ATOM     23  H   UNL     1       0.085  -0.174  -0.069  0.00  0.00    +0.170 HD
BRANCH  22  24
ATOM     24  N   UNL     1      -1.182   1.586  -0.162  0.00  0.00    -0.232 N 
ATOM     25  C   UNL     1      -2.325   0.875  -0.223  0.00  0.00    +0.260 C 
ATOM     26  O   UNL     1      -2.287  -0.340  -0.211  0.00  0.00    -0.269 OA
ATOM     27  H   UNL     1      -1.217   2.686  -0.174  0.00  0.00    +0.173 HD
BRANCH  25  28
ATOM     28  C   UNL     1      -3.627   1.572  -0.305  0.00  0.00    +0.038 A 
ATOM     29  C   UNL     1      -3.675   2.967  -0.314  0.00  0.00    +0.015 A 
ATOM     30  C   UNL     1      -4.892   3.612  -0.396  0.00  0.00    +0.033 A 
ATOM     31  C   UNL     1      -6.063   2.879  -0.458  0.00  0.00    +0.126 A 
ATOM     32  C   UNL     1      -6.023   1.496  -0.444  0.00  0.00    +0.033 A 
ATOM     33  C   UNL     1      -4.812   0.839  -0.368  0.00  0.00    +0.015 A 
BRANCH  31  34
ATOM     34  N   UNL     1      -7.366   3.577  -0.540  0.00  0.00    +0.056 N 
ATOM     35  O   UNL     1      -8.399   2.934  -0.595  0.00  0.00    -0.126 OA
ATOM     36  O   UNL     1      -7.405   4.794  -0.552  0.00  0.00    -0.126 OA
ENDBRANCH  31  34
ENDBRANCH  25  28
ENDBRANCH  22  24
ENDBRANCH   4  22
TORSDOF 6
