REMARK  Name = ZINC36395929
REMARK  5 active torsions:
REMARK  status: ('A' for Active; 'I' for Inactive)
REMARK    1  A    between atoms: C_1  and  C_2
REMARK    2  A    between atoms: C_7  and  N_12
REMARK    3  A    between atoms: C_9  and  C_11
REMARK    4  A    between atoms: N_12  and  S_13
REMARK    5  A    between atoms: S_13  and  C_16
REMARK                            x       y       z     vdW  Elec       q    Type
REMARK                         _______ _______ _______ _____ _____    ______ ____
ROOT
ATOM      1  S   UNL     1      -0.952  -4.003   1.956  0.00  0.00    +0.060 S 
ATOM      2  O   UNL     1      -2.313  -4.345   1.734  0.00  0.00    -0.153 OA
ATOM      3  O   UNL     1       0.121  -4.833   1.531  0.00  0.00    -0.153 OA
ENDROOT
BRANCH   1   4
ATOM      4  C   UNL     1      -0.764  -3.789   3.695  0.00  0.00    +0.123 A 
ATOM      5  C   UNL     1       0.293  -4.391   4.353  0.00  0.00    +0.077 A 
ATOM      6  C   UNL     1       0.441  -4.223   5.719  0.00  0.00    +0.144 A 
ATOM      7  C   UNL     1      -0.476  -3.447   6.426  0.00  0.00    +0.077 A 
ATOM      8  C   UNL     1      -1.532  -2.846   5.762  0.00  0.00    +0.044 A 
ATOM      9  C   UNL     1      -1.671  -3.014   4.395  0.00  0.00    +0.046 A 
ATOM     10 BR   UNL     1      -3.108  -2.189   3.484  0.00  0.00    -0.048 Br
ATOM     11  N   UNL     1      -0.315  -3.286   7.810  0.00  0.00    -0.280 N 
ATOM     12  C   UNL     1       0.870  -3.608   8.372  0.00  0.00    +0.255 C 
ATOM     13  O   UNL     1       1.022  -3.506   9.571  0.00  0.00    -0.272 OA
ATOM     14  C   UNL     1       2.002  -4.095   7.504  0.00  0.00    +0.325 C 
ATOM     15  O   UNL     1       1.475  -4.807   6.381  0.00  0.00    -0.481 OA
ATOM     16  H   UNL     1      -1.043  -2.949   8.354  0.00  0.00    +0.155 HD
ENDBRANCH   1   4
BRANCH   1  17
ATOM     17  N   UNL     1      -0.714  -2.524   1.252  0.00  0.00    -0.187 NA
ATOM     18  H   UNL     1      -1.447  -2.078   0.800  0.00  0.00    +0.148 HD
BRANCH  17  24
ATOM     19  C   UNL     1      -0.492   1.657   0.284  0.00  0.00    +0.008 C 
ATOM     20  C   UNL     1      -0.323   0.140   0.184  0.00  0.00    -0.010 C 
ATOM     21  C   UNL     1       0.465  -0.203  -1.082  0.00  0.00    +0.003 C 
ATOM     22  C   UNL     1       0.635  -1.720  -1.182  0.00  0.00    +0.002 C 
ATOM     23  C   UNL     1       1.393  -2.231   0.044  0.00  0.00    +0.020 C 
ATOM     24  C   UNL     1       0.605  -1.888   1.310  0.00  0.00    +0.080 C 
ATOM     25  C   UNL     1       0.436  -0.371   1.411  0.00  0.00    +0.007 C 
ATOM     26  C   UNL     1      -0.352  -0.028   2.676  0.00  0.00    +0.009 C 
ENDBRANCH  17  24
ENDBRANCH   1  17
TORSDOF 3
