REMARK  Name = ZINC39674261
REMARK  9 active torsions:
REMARK  status: ('A' for Active; 'I' for Inactive)
REMARK    1  A    between atoms: C_1  and  C_2
REMARK    2  A    between atoms: C_4  and  C_9
REMARK    3  A    between atoms: C_5  and  C_8
REMARK    4  A    between atoms: C_9  and  C_11
REMARK    5  A    between atoms: C_9  and  N_12
REMARK    6  A    between atoms: C_13  and  C_15
REMARK    7  A    between atoms: C_26  and  C_28
REMARK    8  A    between atoms: C_31  and  O_34
REMARK    9  A    between atoms: O_34  and  C_35
REMARK                            x       y       z     vdW  Elec       q    Type
REMARK                         _______ _______ _______ _____ _____    ______ ____
ROOT
ATOM      1  C   UNL     1      -2.583  -1.593  -5.201  0.00  0.00    +0.100 C 
ATOM      2  C   UNL     1      -3.471  -2.731  -4.651  0.00  0.00    +0.121 C 
ATOM      3  N   UNL     1      -4.245  -3.201  -5.824  0.00  0.00    -0.296 N 
ATOM      4  C   UNL     1      -3.275  -3.167  -6.944  0.00  0.00    +0.115 C 
ATOM      5  C   UNL     1      -2.456  -1.883  -6.706  0.00  0.00    -0.004 C 
ATOM      6  C   UNL     1      -3.037  -0.728  -7.517  0.00  0.00    -0.010 C 
ATOM      7  C   UNL     1      -2.848  -1.014  -9.009  0.00  0.00    -0.082 C 
ATOM      8  N   UNL     1      -1.418  -1.173  -9.302  0.00  0.00    +0.379 N 
ATOM      9  C   UNL     1      -0.889  -2.342  -8.589  0.00  0.00    -0.082 C 
ATOM     10  C   UNL     1      -0.995  -2.113  -7.079  0.00  0.00    -0.010 C 
ATOM     11  C   UNL     1      -5.539  -3.576  -5.862  0.00  0.00    +0.247 C 
ATOM     12  O   UNL     1      -6.240  -3.446  -4.877  0.00  0.00    -0.270 OA
ATOM     13  H   UNL     1      -1.292  -1.301 -10.295  0.00  0.00    -0.086 HD
ATOM     14  H   UNL     1      -0.921  -0.347  -9.006  0.00  0.00    -0.086 HD
ENDROOT
BRANCH  11  15
ATOM     15  C   UNL     1      -6.106  -4.145  -7.101  0.00  0.00    +0.037 A 
ATOM     16  C   UNL     1      -5.263  -4.705  -8.065  0.00  0.00    +0.016 A 
ATOM     17  C   UNL     1      -5.795  -5.235  -9.219  0.00  0.00    +0.047 A 
ATOM     18  C   UNL     1      -7.170  -5.213  -9.426  0.00  0.00    +0.130 A 
ATOM     19  C   UNL     1      -8.012  -4.656  -8.470  0.00  0.00    +0.047 A 
ATOM     20  C   UNL     1      -7.487  -4.130  -7.311  0.00  0.00    +0.016 A 
BRANCH  18  21
ATOM     21  O   UNL     1      -7.691  -5.735 -10.565  0.00  0.00    -0.406 OA
BRANCH  21  22
ATOM     22  C   UNL     1      -9.111  -5.679 -10.714  0.00  0.00    +0.575 C 
ATOM     23  F   UNL     1      -9.531  -4.345 -10.686  0.00  0.00    -0.133 F 
ATOM     24  F   UNL     1      -9.474  -6.257 -11.935  0.00  0.00    -0.133 F 
ATOM     25  F   UNL     1      -9.717  -6.381  -9.667  0.00  0.00    -0.133 F 
ENDBRANCH  21  22
ENDBRANCH  18  21
ENDBRANCH  11  15
BRANCH   1  27
ATOM     26  N   UNL     1      -0.481  -0.501  -4.487  0.00  0.00    -0.309 N 
ATOM     27  C   UNL     1      -1.226  -1.622  -4.545  0.00  0.00    +0.219 C 
ATOM     28  O   UNL     1      -0.805  -2.655  -4.069  0.00  0.00    -0.275 OA
ATOM     29  H   UNL     1      -0.817   0.325  -4.868  0.00  0.00    +0.149 HD
BRANCH  26  30
ATOM     30  C   UNL     1       0.838  -0.530  -3.850  0.00  0.00    +0.100 C 
ATOM     31  C   UNL     1       1.884  -0.997  -4.863  0.00  0.00    +0.033 C 
BRANCH  30  34
ATOM     32  C   UNL     1       2.201   2.077  -5.306  0.00  0.00    +0.039 C 
ATOM     33  C   UNL     1       1.196   2.149  -4.154  0.00  0.00    +0.154 C 
ATOM     34  C   UNL     1       1.191   0.853  -3.364  0.00  0.00    -0.001 C 
ATOM     35  C   UNL     1       1.573   1.222  -2.139  0.00  0.00    +0.063 C 
ATOM     36  N   UNL     1       1.803   2.552  -2.089  0.00  0.00    -0.159 NA
ATOM     37  N   UNL     1       1.618   3.148  -3.158  0.00  0.00    -0.180 NA
ATOM     38  C   UNL     1       1.725   0.282  -0.971  0.00  0.00    +0.067 C 
ENDBRANCH  30  34
ENDBRANCH  26  30
ENDBRANCH   1  27
TORSDOF 6
