REMARK  Name = ZINC39353577
REMARK  6 active torsions:
REMARK  status: ('A' for Active; 'I' for Inactive)
REMARK    1  A    between atoms: C_4  and  C_7
REMARK    2  A    between atoms: C_7  and  C_8
REMARK    3  A    between atoms: C_7  and  C_14
REMARK    4  A    between atoms: C_14  and  C_16
REMARK    5  A    between atoms: C_14  and  O_39
REMARK    6  A    between atoms: C_27  and  C_29
REMARK                            x       y       z     vdW  Elec       q    Type
REMARK                         _______ _______ _______ _____ _____    ______ ____
ROOT
ATOM      1  C   UNL     1       4.964  -2.461  -1.263  0.00  0.00    -0.018 A 
ATOM      2  C   UNL     1       6.104  -1.891  -1.801  0.00  0.00    +0.010 A 
ATOM      3  C   UNL     1       7.281  -2.611  -1.861  0.00  0.00    +0.046 A 
ATOM      4  C   UNL     1       7.324  -3.908  -1.370  0.00  0.00    +0.125 A 
ATOM      5  C   UNL     1       6.186  -4.461  -0.803  0.00  0.00    +0.012 A 
ATOM      6  C   UNL     1       5.007  -3.750  -0.759  0.00  0.00    +0.015 A 
ATOM      7  C   UNL     1       6.281  -5.839  -0.179  0.00  0.00    +0.146 C 
ATOM      8  N   UNL     1       6.559  -6.816  -1.236  0.00  0.00    -0.292 N 
ATOM      9  C   UNL     1       7.921  -6.989  -1.744  0.00  0.00    +0.149 C 
ATOM     10  C   UNL     1       8.424  -5.720  -2.416  0.00  0.00    +0.248 C 
ATOM     11  O   UNL     1       8.460  -4.643  -1.473  0.00  0.00    -0.490 OA
ATOM     12  C   UNL     1       5.556  -7.561  -1.742  0.00  0.00    +0.247 C 
ATOM     13  O   UNL     1       4.426  -7.420  -1.323  0.00  0.00    -0.273 OA
ENDROOT
BRANCH  12  14
ATOM     14  C   UNL     1       5.837  -8.566  -2.828  0.00  0.00    +0.241 C 
ATOM     15  C   UNL     1       6.350  -9.857  -2.242  0.00  0.00    -0.012 C 
ATOM     16  C   UNL     1       5.444 -10.777  -2.589  0.00  0.00    +0.065 C 
ATOM     17  C   UNL     1       5.563 -12.235  -2.205  0.00  0.00    +0.057 C 
ATOM     18  C   UNL     1       7.011 -12.512  -1.788  0.00  0.00    +0.006 C 
ATOM     19  C   UNL     1       7.458 -11.474  -0.755  0.00  0.00    +0.005 C 
ATOM     20  C   UNL     1       7.592 -10.107  -1.439  0.00  0.00    +0.035 C 
ATOM     21  N   UNL     1       4.453 -10.202  -3.307  0.00  0.00    -0.158 NA
ATOM     22  N   UNL     1       4.586  -8.984  -3.491  0.00  0.00    -0.170 NA
ENDBRANCH  12  14
BRANCH   1  23
ATOM     23  C   UNL     1       3.678  -1.678  -1.220  0.00  0.00    +0.156 C 
BRANCH  23  24
ATOM     24  O   UNL     1       3.527  -0.942  -2.436  0.00  0.00    -0.386 OA
ATOM     25  H   UNL     1       4.240  -0.311  -2.605  0.00  0.00    +0.210 HD
ENDBRANCH  23  24
BRANCH  23  26
ATOM     26  C   UNL     1       3.711  -0.707  -0.038  0.00  0.00    +0.082 C 
BRANCH  26  30
ATOM     27  C   UNL     1       0.065   1.514   0.087  0.00  0.00    +0.000 A 
ATOM     28  C   UNL     1       0.031   0.134   0.028  0.00  0.00    +0.000 A 
ATOM     29  C   UNL     1       1.211  -0.585  -0.013  0.00  0.00    +0.004 A 
ATOM     30  C   UNL     1       2.425   0.077   0.005  0.00  0.00    -0.037 A 
ATOM     31  C   UNL     1       2.458   1.457   0.064  0.00  0.00    +0.004 A 
ATOM     32  C   UNL     1       1.278   2.176   0.105  0.00  0.00    +0.000 A 
ENDBRANCH  26  30
BRANCH  26  33
ATOM     33  C   UNL     1       3.870  -1.483   1.245  0.00  0.00    -0.037 A 
ATOM     34  C   UNL     1       3.012  -2.528   1.531  0.00  0.00    +0.004 A 
ATOM     35  C   UNL     1       3.158  -3.240   2.707  0.00  0.00    +0.000 A 
ATOM     36  C   UNL     1       4.161  -2.906   3.597  0.00  0.00    +0.000 A 
ATOM     37  C   UNL     1       5.020  -1.861   3.310  0.00  0.00    +0.000 A 
ATOM     38  C   UNL     1       4.877  -1.153   2.132  0.00  0.00    +0.004 A 
ENDBRANCH  26  33
ENDBRANCH  23  26
ENDBRANCH   1  23
TORSDOF 6
