REMARK  Name = ZINC20602327
REMARK  6 active torsions:
REMARK  status: ('A' for Active; 'I' for Inactive)
REMARK    1  A    between atoms: C_6  and  C_7
REMARK    2  A    between atoms: C_10  and  C_29
REMARK    3  A    between atoms: C_15  and  C_17
REMARK    4  A    between atoms: N_19  and  N_20
REMARK    5  A    between atoms: C_21  and  C_22
REMARK    6  A    between atoms: C_29  and  C_30
REMARK                            x       y       z     vdW  Elec       q    Type
REMARK                         _______ _______ _______ _____ _____    ______ ____
ROOT
ATOM      1  C   UNL     1      -0.600  -0.701  -0.022  0.00  0.00    +0.104 C 
ATOM      2  C   UNL     1      -1.190  -1.177  -1.354  0.00  0.00    +0.060 C 
ATOM      3  C   UNL     1      -0.197  -2.106  -2.062  0.00  0.00    +0.189 C 
ATOM      4  N   UNL     1       0.253  -3.130  -1.115  0.00  0.00    -0.241 N 
ATOM      5  C   UNL     1       0.146  -3.007   0.242  0.00  0.00    +0.119 A 
ATOM      6  C   UNL     1       0.649  -4.123   0.806  0.00  0.00    +0.078 A 
ATOM      7  C   UNL     1       1.085  -4.970  -0.239  0.00  0.00    +0.151 A 
ATOM      8  N   UNL     1       0.843  -4.364  -1.388  0.00  0.00    -0.164 NA
ATOM      9  N   UNL     1      -0.403  -1.872   0.854  0.00  0.00    -0.322 N 
ATOM     10  H   UNL     1      -0.641  -1.855   1.794  0.00  0.00    +0.148 HD
ENDROOT
BRANCH   1  16
ATOM     11  C   UNL     1       0.800   1.356  -0.295  0.00  0.00    +0.008 A 
ATOM     12  C   UNL     1       2.013   1.978  -0.520  0.00  0.00    +0.038 A 
ATOM     13  C   UNL     1       3.153   1.218  -0.719  0.00  0.00    +0.123 A 
ATOM     14  C   UNL     1       3.076  -0.164  -0.692  0.00  0.00    +0.038 A 
ATOM     15  C   UNL     1       1.861  -0.784  -0.467  0.00  0.00    +0.008 A 
ATOM     16  C   UNL     1       0.724  -0.024  -0.268  0.00  0.00    -0.027 A 
ATOM     17  F   UNL     1       4.340   1.824  -0.940  0.00  0.00    -0.205 F 
ENDBRANCH   1  16
BRANCH   7  18
ATOM     18  C   UNL     1       1.703  -6.300  -0.074  0.00  0.00    +0.283 C 
ATOM     19  O   UNL     1       1.877  -6.757   1.040  0.00  0.00    -0.267 OA
ATOM     20  N   UNL     1       2.076  -7.009  -1.158  0.00  0.00    -0.202 N 
ATOM     21  H   UNL     1       1.938  -6.645  -2.047  0.00  0.00    +0.178 HD
BRANCH  20  22
ATOM     22  N   UNL     1       2.663  -8.272  -1.002  0.00  0.00    -0.187 NA
ATOM     23  C   UNL     1       3.021  -8.954  -2.046  0.00  0.00    +0.138 C 
BRANCH  23  24
ATOM     24  C   UNL     1       3.639 -10.283  -1.882  0.00  0.00    -0.003 A 
ATOM     25  C   UNL     1       3.843 -10.830  -0.608  0.00  0.00    +0.029 A 
ATOM     26  C   UNL     1       4.423 -12.076  -0.501  0.00  0.00    +0.111 A 
ATOM     27  N   UNL     1       4.785 -12.750  -1.577  0.00  0.00    -0.263 NA
ATOM     28  C   UNL     1       4.612 -12.272  -2.795  0.00  0.00    +0.111 A 
ATOM     29  C   UNL     1       4.034 -11.037  -2.995  0.00  0.00    +0.029 A 
ENDBRANCH  23  24
ENDBRANCH  20  22
ENDBRANCH   7  18
BRANCH   3  30
ATOM     30  C   UNL     1      -0.882  -2.774  -3.256  0.00  0.00    +0.363 C 
ATOM     31  F   UNL     1      -0.005  -3.695  -3.841  0.00  0.00    -0.193 F 
ATOM     32  F   UNL     1      -2.034  -3.439  -2.821  0.00  0.00    -0.193 F 
BRANCH  30  33
ATOM     33  C   UNL     1      -1.265  -1.710  -4.285  0.00  0.00    +0.456 C 
ATOM     34  F   UNL     1      -0.136  -0.952  -4.616  0.00  0.00    -0.165 F 
ATOM     35  F   UNL     1      -1.762  -2.331  -5.436  0.00  0.00    -0.165 F 
ATOM     36  F   UNL     1      -2.247  -0.872  -3.746  0.00  0.00    -0.165 F 
ENDBRANCH  30  33
ENDBRANCH   3  30
TORSDOF 6
