REMARK  Name = ZINC40085634
REMARK  16 active torsions:
REMARK  status: ('A' for Active; 'I' for Inactive)
REMARK    1  A    between atoms: C_1  and  C_2
REMARK    2  A    between atoms: C_2  and  O_3
REMARK    3  A    between atoms: O_3  and  C_4
REMARK    4  A    between atoms: C_7  and  C_11
REMARK    5  A    between atoms: C_9  and  C_10
REMARK    6  A    between atoms: C_11  and  C_13
REMARK    7  A    between atoms: N_17  and  C_29
REMARK    8  A    between atoms: C_18  and  C_20
REMARK    9  A    between atoms: C_23  and  N_26
REMARK   10  A    between atoms: N_26  and  C_27
REMARK   11  A    between atoms: N_26  and  C_28
REMARK   12  A    between atoms: C_29  and  C_30
REMARK   13  A    between atoms: C_30  and  O_31
REMARK   14  A    between atoms: O_31  and  C_32
REMARK   15  A    between atoms: C_32  and  C_33
REMARK   16  A    between atoms: C_33  and  O_34
REMARK                            x       y       z     vdW  Elec       q    Type
REMARK                         _______ _______ _______ _____ _____    ______ ____
ROOT
ATOM      1  C   UNL     1      -0.280  -7.597   0.128  0.00  0.00    +0.076 C 
ATOM      2  C   UNL     1      -0.618  -8.885  -0.114  0.00  0.00    +0.249 C 
ATOM      3  C   UNL     1      -1.406  -8.954  -1.362  0.00  0.00    +0.288 C 
ATOM      4  O   UNL     1      -1.857  -9.972  -1.847  0.00  0.00    -0.266 OA
ATOM      5  N   UNL     1      -1.550  -7.721  -1.882  0.00  0.00    -0.281 N 
ATOM      6  C   UNL     1      -0.867  -6.774  -0.994  0.00  0.00    +0.145 C 
ATOM      7  O   UNL     1      -0.288  -9.942   0.664  0.00  0.00    -0.282 OA
ENDROOT
BRANCH   6   8
ATOM      8  C   UNL     1      -1.849  -5.773  -0.443  0.00  0.00    -0.022 A 
ATOM      9  C   UNL     1      -1.500  -4.438  -0.359  0.00  0.00    +0.007 A 
ATOM     10  C   UNL     1      -2.398  -3.518   0.145  0.00  0.00    +0.023 A 
ATOM     11  C   UNL     1      -3.654  -3.935   0.568  0.00  0.00    +0.029 A 
ATOM     12  C   UNL     1      -4.002  -5.277   0.482  0.00  0.00    +0.023 A 
ATOM     13  C   UNL     1      -3.100  -6.191  -0.028  0.00  0.00    +0.007 A 
BRANCH  11  14
ATOM     14  N   UNL     1      -4.565  -3.008   1.079  0.00  0.00    -0.336 N 
ATOM     15  C   UNL     1      -4.155  -1.616   1.286  0.00  0.00    +0.129 C 
ATOM     16  C   UNL     1      -5.930  -3.426   1.408  0.00  0.00    +0.129 C 
ENDBRANCH  11  14
ENDBRANCH   6   8
BRANCH   1  17
ATOM     17  C   UNL     1       0.501  -7.097   1.264  0.00  0.00    +0.195 C 
ATOM     18  O   UNL     1       0.047  -7.163   2.391  0.00  0.00    -0.287 OA
BRANCH  17  22
ATOM     19  C   UNL     1       4.349  -5.417   0.621  0.00  0.00    +0.123 A 
ATOM     20  C   UNL     1       3.655  -5.988  -0.441  0.00  0.00    +0.046 A 
ATOM     21  C   UNL     1       2.408  -6.534  -0.236  0.00  0.00    +0.015 A 
ATOM     22  C   UNL     1       1.839  -6.513   1.041  0.00  0.00    +0.023 A 
ATOM     23  C   UNL     1       2.539  -5.938   2.105  0.00  0.00    +0.018 A 
ATOM     24  C   UNL     1       3.788  -5.400   1.893  0.00  0.00    -0.008 A 
ATOM     25  C   UNL     1       4.547  -4.785   3.041  0.00  0.00    +0.047 C 
BRANCH  19  26
ATOM     26  O   UNL     1       5.578  -4.881   0.415  0.00  0.00    -0.492 OA
BRANCH  26  28
ATOM     27  C   UNL     1       7.480  -4.285  -0.952  0.00  0.00    +0.048 C 
ATOM     28  C   UNL     1       6.094  -4.933  -0.916  0.00  0.00    +0.225 C 
ENDBRANCH  26  28
ENDBRANCH  19  26
ENDBRANCH  17  22
ENDBRANCH   1  17
BRANCH   5  29
ATOM     29  C   UNL     1      -2.268  -7.384  -3.114  0.00  0.00    +0.137 C 
BRANCH  29  30
ATOM     30  C   UNL     1      -1.306  -7.454  -4.301  0.00  0.00    +0.179 C 
BRANCH  30  31
ATOM     31  O   UNL     1      -0.867  -8.802  -4.480  0.00  0.00    -0.376 OA
BRANCH  31  32
ATOM     32  C   UNL     1       0.122  -8.961  -5.499  0.00  0.00    +0.187 C 
BRANCH  32  33
ATOM     33  C   UNL     1       0.428 -10.448  -5.685  0.00  0.00    +0.184 C 
BRANCH  33  34
ATOM     34  O   UNL     1      -0.734 -11.115  -6.184  0.00  0.00    -0.393 OA
ATOM     35  H   UNL     1      -0.612 -12.064  -6.326  0.00  0.00    +0.209 HD
ENDBRANCH  33  34
ENDBRANCH  32  33
ENDBRANCH  31  32
ENDBRANCH  30  31
ENDBRANCH  29  30
ENDBRANCH   5  29
TORSDOF 12
