REMARK  Name = ZINC38596135
REMARK  11 active torsions:
REMARK  status: ('A' for Active; 'I' for Inactive)
REMARK    1  A    between atoms: C_1  and  C_2
REMARK    2  A    between atoms: C_2  and  C_4
REMARK    3  A    between atoms: C_2  and  N_24
REMARK    4  A    between atoms: C_4  and  C_6
REMARK    5  A    between atoms: C_4  and  N_11
REMARK    6  A    between atoms: N_14  and  C_17
REMARK    7  A    between atoms: C_17  and  C_18
REMARK    8  A    between atoms: N_24  and  S_25
REMARK    9  A    between atoms: S_25  and  C_28
REMARK   10  A    between atoms: C_32  and  C_34
REMARK   11  A    between atoms: C_34  and  C_36
REMARK                            x       y       z     vdW  Elec       q    Type
REMARK                         _______ _______ _______ _____ _____    ______ ____
ROOT
ATOM      1  C   UNL     1      -1.427  -0.534   0.139  0.00  0.00    +0.112 C 
ENDROOT
BRANCH   1   2
ATOM      2  N   UNL     1      -2.145   0.195   1.192  0.00  0.00    -0.297 NA
ATOM      3  C   UNL     1      -3.582  -0.113   1.161  0.00  0.00    +0.066 C 
ATOM      4  C   UNL     1      -4.300   0.710   2.232  0.00  0.00    -0.063 C 
ATOM      5  N   UNL     1      -3.742   0.388   3.552  0.00  0.00    +0.384 N 
ATOM      6  C   UNL     1      -2.313   0.724   3.577  0.00  0.00    -0.063 C 
ATOM      7  C   UNL     1      -1.577  -0.099   2.516  0.00  0.00    +0.066 C 
ATOM      8  H   UNL     1      -3.860  -0.597   3.736  0.00  0.00    -0.081 HD
BRANCH   5   9
ATOM      9  C   UNL     1      -4.445   1.165   4.583  0.00  0.00    -0.043 C 
BRANCH   9  10
ATOM     10  C   UNL     1      -3.958   0.746   5.946  0.00  0.00    -0.064 A 
ATOM     11  C   UNL     1      -4.586  -0.286   6.617  0.00  0.00    +0.002 A 
ATOM     12  C   UNL     1      -4.140  -0.670   7.868  0.00  0.00    +0.000 A 
ATOM     13  C   UNL     1      -3.066  -0.022   8.447  0.00  0.00    +0.000 A 
ATOM     14  C   UNL     1      -2.437   1.010   7.776  0.00  0.00    +0.000 A 
ATOM     15  C   UNL     1      -2.881   1.391   6.524  0.00  0.00    +0.002 A 
ENDBRANCH   9  10
ENDBRANCH   5   9
ENDBRANCH   1   2
BRANCH   1  16
ATOM     16  C   UNL     1      -2.054  -0.233  -1.198  0.00  0.00    +0.008 A 
ATOM     17  C   UNL     1      -2.352  -1.081  -2.212  0.00  0.00    +0.013 A 
ATOM     18  C   UNL     1      -2.933  -0.576  -3.360  0.00  0.00    +0.008 A 
ATOM     19  C   UNL     1      -3.187   0.753  -3.438  0.00  0.00    +0.045 A 
ATOM     20  S   UNL     1      -2.605   1.334  -1.853  0.00  0.00    -0.100 S 
ENDBRANCH   1  16
BRANCH   1  22
ATOM     21  C   UNL     1       0.117   1.422  -0.041  0.00  0.00    +0.027 C 
ATOM     22  C   UNL     1       0.039  -0.097   0.124  0.00  0.00    +0.095 C 
BRANCH  22  23
ATOM     23  N   UNL     1       0.732  -0.745  -0.993  0.00  0.00    -0.185 NA
ATOM     24  H   UNL     1       0.263  -0.905  -1.827  0.00  0.00    +0.148 HD
BRANCH  23  25
ATOM     25  S   UNL     1       2.314  -1.205  -0.831  0.00  0.00    +0.059 S 
ATOM     26  O   UNL     1       2.686  -1.819  -2.057  0.00  0.00    -0.153 OA
ATOM     27  O   UNL     1       3.010  -0.086  -0.298  0.00  0.00    -0.153 OA
BRANCH  25  28
ATOM     28  C   UNL     1       2.368  -2.464   0.400  0.00  0.00    +0.106 A 
ATOM     29  C   UNL     1       2.539  -2.122   1.730  0.00  0.00    +0.028 A 
ATOM     30  C   UNL     1       2.583  -3.104   2.705  0.00  0.00    +0.003 A 
ATOM     31  C   UNL     1       2.456  -4.432   2.356  0.00  0.00    +0.011 A 
ATOM     32  C   UNL     1       2.282  -4.786   1.014  0.00  0.00    +0.019 A 
ATOM     33  C   UNL     1       2.233  -3.787   0.036  0.00  0.00    +0.040 A 
BRANCH  32  34
ATOM     34  C   UNL     1       2.147  -6.201   0.634  0.00  0.00    +0.160 C 
ATOM     35  O   UNL     1       1.996  -6.504  -0.530  0.00  0.00    -0.292 OA
ATOM     36  C   UNL     1       2.194  -7.274   1.692  0.00  0.00    +0.091 C 
ENDBRANCH  32  34
ENDBRANCH  25  28
ENDBRANCH  23  25
ENDBRANCH  22  23
ENDBRANCH   1  22
TORSDOF 9
