REMARK  Name = ZINC06198176
REMARK  14 active torsions:
REMARK  status: ('A' for Active; 'I' for Inactive)
REMARK    1  A    between atoms: C_1  and  C_2
REMARK    2  A    between atoms: C_2  and  C_3
REMARK    3  A    between atoms: C_10  and  C_15
REMARK    4  A    between atoms: C_15  and  C_17
REMARK    5  A    between atoms: C_15  and  N_71
REMARK    6  A    between atoms: N_21  and  C_22
REMARK    7  A    between atoms: C_22  and  C_23
REMARK    8  A    between atoms: C_22  and  C_24
REMARK    9  A    between atoms: C_22  and  C_25
REMARK   10  A    between atoms: C_25  and  C_26
REMARK   11  A    between atoms: C_29  and  C_32
REMARK   12  A    between atoms: C_32  and  O_34
REMARK   13  A    between atoms: O_34  and  C_35
REMARK   14  A    between atoms: C_35  and  C_36
REMARK                            x       y       z     vdW  Elec       q    Type
REMARK                         _______ _______ _______ _____ _____    ______ ____
ROOT
ATOM      1  C   UNL     1       4.721   1.080   0.108  0.00  0.00    +0.039 C 
ENDROOT
BRANCH   1   9
ATOM      2  C   UNL     1      -1.126   2.668   1.368  0.00  0.00    -0.047 A 
ATOM      3  C   UNL     1      -0.926   4.041   1.326  0.00  0.00    +0.005 A 
ATOM      4  C   UNL     1       0.319   4.563   1.053  0.00  0.00    +0.026 A 
ATOM      5  C   UNL     1       1.391   3.707   0.823  0.00  0.00    +0.049 A 
ATOM      6  C   UNL     1       1.187   2.315   0.872  0.00  0.00    -0.001 A 
ATOM      7  C   UNL     1      -0.087   1.808   1.151  0.00  0.00    +0.013 A 
ATOM      8  C   UNL     1       2.321   1.422   0.628  0.00  0.00    +0.017 A 
ATOM      9  C   UNL     1       3.532   1.971   0.363  0.00  0.00    +0.011 A 
ATOM     10  C   UNL     1       3.684   3.374   0.326  0.00  0.00    +0.251 A 
ATOM     11  O   UNL     1       4.782   3.846   0.086  0.00  0.00    -0.268 OA
ATOM     12  N   UNL     1       2.648   4.202   0.548  0.00  0.00    -0.322 N 
ATOM     13  H   UNL     1       2.792   5.191   0.513  0.00  0.00    +0.169 HD
BRANCH   2  15
ATOM     14  C   UNL     1      -2.663   1.941   3.173  0.00  0.00    +0.009 C 
ATOM     15  C   UNL     1      -2.499   2.121   1.662  0.00  0.00    +0.032 C 
ENDBRANCH   2  15
ENDBRANCH   1   9
BRANCH   1  21
ATOM     16  C   UNL     1       4.364   1.262  -2.279  0.00  0.00    -0.077 C 
ATOM     17  C   UNL     1       4.980   1.772  -3.584  0.00  0.00    -0.004 C 
ATOM     18  C   UNL     1       6.260   0.985  -3.880  0.00  0.00    +0.094 C 
ATOM     19  C   UNL     1       7.226   1.137  -2.702  0.00  0.00    -0.004 C 
ATOM     20  C   UNL     1       6.545   0.646  -1.423  0.00  0.00    -0.077 C 
ATOM     21  N   UNL     1       5.334   1.459  -1.182  0.00  0.00    +0.389 N 
ATOM     22  H   UNL     1       5.600   2.450  -1.146  0.00  0.00    -0.080 HD
BRANCH  18  23
ATOM     23  C   UNL     1       6.904   1.521  -5.133  0.00  0.00    +0.310 C 
ATOM     24  O   UNL     1       8.021   1.978  -5.089  0.00  0.00    -0.251 OA
BRANCH  23  25
ATOM     25  O   UNL     1       6.236   1.491  -6.296  0.00  0.00    -0.465 OA
BRANCH  25  26
ATOM     26  C   UNL     1       6.918   2.024  -7.462  0.00  0.00    +0.229 C 
ATOM     27  C   UNL     1       6.007   1.905  -8.685  0.00  0.00    +0.048 C 
ENDBRANCH  25  26
ENDBRANCH  23  25
ENDBRANCH  18  23
ENDBRANCH   1  21
BRANCH   1  28
ATOM     28  C   UNL     1       5.735   1.269   1.206  0.00  0.00    +0.143 A 
ATOM     29  N   UNL     1       6.460   2.339   1.426  0.00  0.00    -0.115 NA
ATOM     30  N   UNL     1       7.204   2.111   2.454  0.00  0.00    -0.023 NA
ATOM     31  N   UNL     1       6.971   0.924   2.895  0.00  0.00    -0.043 NA
ATOM     32  N   UNL     1       6.068   0.375   2.155  0.00  0.00    -0.225 N 
BRANCH  32  33
ATOM     33  C   UNL     1       5.511  -0.971   2.317  0.00  0.00    +0.061 C 
ATOM     34  C   UNL     1       3.993  -0.879   2.477  0.00  0.00    +0.036 C 
ATOM     35  C   UNL     1       5.844  -1.811   1.082  0.00  0.00    +0.036 C 
BRANCH  33  36
ATOM     36  C   UNL     1       6.117  -1.627   3.559  0.00  0.00    +0.026 C 
ATOM     37  C   UNL     1       5.535  -3.033   3.727  0.00  0.00    +0.006 C 
ENDBRANCH  33  36
ENDBRANCH  32  33
ENDBRANCH   1  28
TORSDOF 9
