REMARK  Name = ZINC08847369
REMARK  10 active torsions:
REMARK  status: ('A' for Active; 'I' for Inactive)
REMARK    1  A    between atoms: C_1  and  C_2
REMARK    2  A    between atoms: N_7  and  C_10
REMARK    3  A    between atoms: C_10  and  C_12
REMARK    4  A    between atoms: C_10  and  C_13
REMARK    5  A    between atoms: N_15  and  C_16
REMARK    6  A    between atoms: C_21  and  O_22
REMARK    7  A    between atoms: O_22  and  C_23
REMARK    8  A    between atoms: C_26  and  C_27
REMARK    9  A    between atoms: C_27  and  O_29
REMARK   10  A    between atoms: O_29  and  C_30
REMARK                            x       y       z     vdW  Elec       q    Type
REMARK                         _______ _______ _______ _____ _____    ______ ____
ROOT
ATOM      1  C   UNL     1      -2.267   0.319  -6.108  0.00  0.00    +0.046 C 
ATOM      2  C   UNL     1      -0.779   0.141  -5.952  0.00  0.00    -0.015 A 
ATOM      3  C   UNL     1      -0.009  -0.297  -7.031  0.00  0.00    +0.076 A 
ATOM      4  C   UNL     1       1.377  -0.434  -6.784  0.00  0.00    +0.116 A 
ATOM      5  N   UNL     1       2.218  -0.840  -7.726  0.00  0.00    -0.230 NA
ATOM      6  C   UNL     1       1.808  -1.135  -8.930  0.00  0.00    +0.204 A 
ATOM      7  N   UNL     1       0.503  -1.042  -9.285  0.00  0.00    -0.287 N 
ATOM      8  C   UNL     1      -0.436  -0.640  -8.407  0.00  0.00    +0.263 A 
ATOM      9  O   UNL     1      -1.606  -0.561  -8.736  0.00  0.00    -0.267 OA
ATOM     10  S   UNL     1       1.538   0.053  -5.085  0.00  0.00    -0.062 S 
ATOM     11  C   UNL     1      -0.180   0.405  -4.754  0.00  0.00    +0.102 A 
ENDROOT
BRANCH   7  12
ATOM     12  C   UNL     1       0.106  -1.386 -10.653  0.00  0.00    +0.174 C 
ATOM     13  C   UNL     1       0.475  -2.843 -10.939  0.00  0.00    +0.041 C 
BRANCH  12  14
ATOM     14  C   UNL     1       0.823  -0.486 -11.626  0.00  0.00    +0.240 C 
ATOM     15  O   UNL     1       1.590   0.360 -11.217  0.00  0.00    -0.273 OA
ATOM     16  N   UNL     1       0.612  -0.621 -12.950  0.00  0.00    -0.281 N 
ATOM     17  H   UNL     1       0.049  -1.338 -13.281  0.00  0.00    +0.155 HD
BRANCH  16  18
ATOM     18  C   UNL     1       1.205   0.276 -13.849  0.00  0.00    +0.077 A 
ATOM     19  C   UNL     1       2.466   0.792 -13.586  0.00  0.00    +0.047 A 
ATOM     20  C   UNL     1       3.049   1.676 -14.475  0.00  0.00    +0.043 A 
ATOM     21  C   UNL     1       2.379   2.047 -15.627  0.00  0.00    +0.024 A 
ATOM     22  C   UNL     1       1.122   1.536 -15.895  0.00  0.00    +0.049 A 
ATOM     23  C   UNL     1       0.534   0.646 -15.012  0.00  0.00    +0.141 A 
ATOM     24 CL   UNL     1       4.627   2.322 -14.145  0.00  0.00    -0.083 Cl
BRANCH  23  25
ATOM     25  O   UNL     1      -0.700   0.138 -15.277  0.00  0.00    -0.493 OA
ATOM     26  C   UNL     1      -1.329   0.562 -16.488  0.00  0.00    +0.277 C 
ENDBRANCH  23  25
ENDBRANCH  16  18
ENDBRANCH  12  14
ENDBRANCH   7  12
BRANCH  11  27
ATOM     27  C   UNL     1      -0.794   0.869  -3.508  0.00  0.00    +0.346 C 
ATOM     28  O   UNL     1      -1.993   1.067  -3.458  0.00  0.00    -0.244 OA
BRANCH  27  29
ATOM     29  O   UNL     1      -0.030   1.077  -2.416  0.00  0.00    -0.458 OA
BRANCH  29  30
ATOM     30  C   UNL     1      -0.706   1.537  -1.216  0.00  0.00    +0.177 C 
ATOM     31  C   UNL     1       0.043   1.029   0.018  0.00  0.00    +0.044 C 
ATOM     32  C   UNL     1      -0.670   1.513   1.282  0.00  0.00    +0.004 C 
ATOM     33  C   UNL     1      -0.699   3.043   1.297  0.00  0.00    +0.000 C 
ATOM     34  C   UNL     1      -1.448   3.551   0.064  0.00  0.00    +0.004 C 
ATOM     35  C   UNL     1      -0.735   3.066  -1.201  0.00  0.00    +0.044 C 
ENDBRANCH  29  30
ENDBRANCH  27  29
ENDBRANCH  11  27
TORSDOF 7
