REMARK  Name = ZINC45511762
REMARK  8 active torsions:
REMARK  status: ('A' for Active; 'I' for Inactive)
REMARK    1  A    between atoms: C_1  and  C_2
REMARK    2  A    between atoms: C_2  and  O_3
REMARK    3  A    between atoms: O_3  and  C_4
REMARK    4  A    between atoms: C_11  and  C_18
REMARK    5  A    between atoms: C_13  and  O_14
REMARK    6  A    between atoms: C_18  and  N_19
REMARK    7  A    between atoms: N_22  and  C_25
REMARK    8  A    between atoms: C_25  and  C_26
REMARK                            x       y       z     vdW  Elec       q    Type
REMARK                         _______ _______ _______ _____ _____    ______ ____
ROOT
ATOM      1  C   UNL     1      -1.509  -1.867  -0.220  0.00  0.00    +0.405 C 
ATOM      2  O   UNL     1      -0.624  -2.591  -0.644  0.00  0.00    -0.226 OA
ATOM      3  N   UNL     1      -2.716  -2.365   0.015  0.00  0.00    -0.251 N 
ATOM      4  C   UNL     1      -2.929  -3.704  -0.078  0.00  0.00    +0.040 A 
ATOM      5  C   UNL     1      -4.242  -4.199  -0.170  0.00  0.00    +0.024 A 
ATOM      6  C   UNL     1      -4.468  -5.535  -0.264  0.00  0.00    +0.014 A 
ATOM      7  C   UNL     1      -3.384  -6.431  -0.268  0.00  0.00    +0.022 A 
ATOM      8  C   UNL     1      -3.598  -7.822  -0.365  0.00  0.00    -0.016 A 
ATOM      9  C   UNL     1      -2.500  -8.659  -0.365  0.00  0.00    +0.093 A 
ATOM     10  C   UNL     1      -1.223  -8.126  -0.272  0.00  0.00    +0.285 A 
ATOM     11  O   UNL     1      -1.024  -6.807  -0.180  0.00  0.00    -0.425 OA
ATOM     12  C   UNL     1      -2.061  -5.944  -0.175  0.00  0.00    +0.141 A 
ATOM     13  C   UNL     1      -1.842  -4.581  -0.086  0.00  0.00    +0.070 A 
ATOM     14  H   UNL     1      -3.446  -1.773   0.254  0.00  0.00    +0.158 HD
ENDROOT
BRANCH  10  15
ATOM     15  O   UNL     1      -0.161  -8.954  -0.274  0.00  0.00    -0.480 OA
ATOM     16  H   UNL     1       0.691  -8.502  -0.205  0.00  0.00    +0.295 HD
ENDBRANCH  10  15
BRANCH   1  17
ATOM     17  O   UNL     1      -1.261  -0.559   0.011  0.00  0.00    -0.450 OA
BRANCH  17  19
ATOM     18  C   UNL     1       0.150   1.403   0.055  0.00  0.00    +0.048 C 
ATOM     19  C   UNL     1       0.061  -0.091  -0.265  0.00  0.00    +0.230 C 
ENDBRANCH  17  19
ENDBRANCH   1  17
BRANCH   8  20
ATOM     20  C   UNL     1      -4.994  -8.381  -0.465  0.00  0.00    +0.120 C 
BRANCH  20  21
ATOM     21  N   UNL     1      -5.338  -8.589  -1.878  0.00  0.00    -0.302 NA
ATOM     22  C   UNL     1      -4.502  -9.640  -2.474  0.00  0.00    +0.066 C 
ATOM     23  C   UNL     1      -4.849  -9.784  -3.958  0.00  0.00    -0.063 C 
ATOM     24  N   UNL     1      -6.271 -10.127  -4.096  0.00  0.00    +0.384 N 
ATOM     25  C   UNL     1      -7.093  -9.057  -3.518  0.00  0.00    -0.063 C 
ATOM     26  C   UNL     1      -6.764  -8.907  -2.031  0.00  0.00    +0.066 C 
ATOM     27  H   UNL     1      -6.456 -10.993  -3.612  0.00  0.00    -0.081 HD
BRANCH  24  28
ATOM     28  C   UNL     1      -6.600 -10.283  -5.520  0.00  0.00    -0.042 C 
BRANCH  28  29
ATOM     29  C   UNL     1      -8.024 -10.755  -5.657  0.00  0.00    -0.057 A 
ATOM     30  C   UNL     1      -8.317 -12.105  -5.678  0.00  0.00    +0.009 A 
ATOM     31  C   UNL     1      -9.609 -12.496  -5.803  0.00  0.00    +0.045 A 
ATOM     32  S   UNL     1     -10.461 -10.930  -5.896  0.00  0.00    -0.105 S 
ATOM     33  C   UNL     1      -9.038  -9.861  -5.757  0.00  0.00    +0.047 A 
ENDBRANCH  28  29
ENDBRANCH  24  28
ENDBRANCH  20  21
ENDBRANCH   8  20
TORSDOF 7
