REMARK  Name = ZINC28238036
REMARK  8 active torsions:
REMARK  status: ('A' for Active; 'I' for Inactive)
REMARK    1  A    between atoms: C_4  and  O_33
REMARK    2  A    between atoms: C_6  and  N_9
REMARK    3  A    between atoms: C_12  and  C_15
REMARK    4  A    between atoms: C_15  and  C_16
REMARK    5  A    between atoms: C_16  and  C_17
REMARK    6  A    between atoms: C_17  and  C_18
REMARK    7  A    between atoms: N_21  and  C_24
REMARK    8  A    between atoms: C_30  and  O_32
REMARK                            x       y       z     vdW  Elec       q    Type
REMARK                         _______ _______ _______ _____ _____    ______ ____
ROOT
ATOM      1  C   UNL     1      -1.104  -6.818   2.521  0.00  0.00    +0.001 C 
ENDROOT
BRANCH   1   2
ATOM      2  C   UNL     1       0.295  -6.207   2.412  0.00  0.00    +0.003 C 
BRANCH   2   6
ATOM      3  N   UNL     1       0.770  -2.007   1.770  0.00  0.00    +0.383 N 
ATOM      4  C   UNL     1       1.537  -2.594   2.875  0.00  0.00    -0.078 C 
ATOM      5  C   UNL     1       1.628  -4.110   2.690  0.00  0.00    -0.015 C 
ATOM      6  C   UNL     1       0.216  -4.702   2.676  0.00  0.00    -0.014 C 
ATOM      7  C   UNL     1      -0.599  -4.029   1.567  0.00  0.00    -0.015 C 
ATOM      8  C   UNL     1      -0.607  -2.516   1.794  0.00  0.00    -0.078 C 
ATOM      9  H   UNL     1       1.204  -2.254   0.893  0.00  0.00    -0.081 HD
BRANCH   3  14
ATOM     10  C   UNL     1      -0.059   1.592   0.901  0.00  0.00    -0.001 C 
ATOM     11  C   UNL     1       1.375   2.124   0.876  0.00  0.00    +0.002 C 
ATOM     12  C   UNL     1       2.167   1.511   2.032  0.00  0.00    +0.030 C 
ATOM     13  C   UNL     1       2.186  -0.012   1.886  0.00  0.00    +0.101 C 
ATOM     14  C   UNL     1       0.752  -0.545   1.911  0.00  0.00    -0.040 C 
ATOM     15  C   UNL     1      -0.040   0.069   0.754  0.00  0.00    -0.013 C 
BRANCH  13  16
ATOM     16  O   UNL     1       2.803  -0.364   0.646  0.00  0.00    -0.393 OA
ATOM     17  H   UNL     1       3.717  -0.058   0.560  0.00  0.00    +0.210 HD
ENDBRANCH  13  16
ENDBRANCH   3  14
ENDBRANCH   2   6
ENDBRANCH   1   2
BRANCH   1  18
ATOM     18  C   UNL     1      -1.025  -8.323   2.257  0.00  0.00    +0.003 C 
BRANCH  18  19
ATOM     19  C   UNL     1      -2.423  -8.934   2.367  0.00  0.00    -0.014 C 
ATOM     20  C   UNL     1      -3.312  -8.382   1.249  0.00  0.00    -0.015 C 
ATOM     21  C   UNL     1      -4.684  -9.056   1.317  0.00  0.00    -0.078 C 
ATOM     22  N   UNL     1      -4.530 -10.507   1.150  0.00  0.00    +0.383 N 
ATOM     23  C   UNL     1      -3.737 -11.054   2.257  0.00  0.00    -0.078 C 
ATOM     24  C   UNL     1      -2.329 -10.456   2.226  0.00  0.00    -0.015 C 
ATOM     25  H   UNL     1      -4.060 -10.695   0.277  0.00  0.00    -0.081 HD
BRANCH  22  26
ATOM     26  C   UNL     1      -5.855 -11.141   1.137  0.00  0.00    -0.040 C 
ATOM     27  C   UNL     1      -6.626 -10.736   2.395  0.00  0.00    -0.013 C 
ATOM     28  C   UNL     1      -8.006 -11.396   2.382  0.00  0.00    -0.001 C 
ATOM     29  C   UNL     1      -8.778 -10.941   1.142  0.00  0.00    +0.002 C 
ATOM     30  C   UNL     1      -8.006 -11.345  -0.116  0.00  0.00    +0.030 C 
ATOM     31  C   UNL     1      -6.626 -10.685  -0.103  0.00  0.00    +0.101 C 
BRANCH  31  32
ATOM     32  O   UNL     1      -5.906 -11.063  -1.278  0.00  0.00    -0.393 OA
ATOM     33  H   UNL     1      -6.338 -10.805  -2.104  0.00  0.00    +0.210 HD
ENDBRANCH  31  32
ENDBRANCH  22  26
ENDBRANCH  18  19
ENDBRANCH   1  18
TORSDOF 8
