REMARK  Name = ZINC39685454
REMARK  6 active torsions:
REMARK  status: ('A' for Active; 'I' for Inactive)
REMARK    1  A    between atoms: C_7  and  C_10
REMARK    2  A    between atoms: C_14  and  C_23
REMARK    3  A    between atoms: N_25  and  C_26
REMARK    4  A    between atoms: C_26  and  C_27
REMARK    5  A    between atoms: C_27  and  O_28
REMARK    6  A    between atoms: O_28  and  C_29
REMARK                            x       y       z     vdW  Elec       q    Type
REMARK                         _______ _______ _______ _____ _____    ______ ____
ROOT
ATOM      1  C   UNL     1       0.381  -3.115  -0.015  0.00  0.00    +0.248 C 
ATOM      2  O   UNL     1      -0.769  -2.735   0.106  0.00  0.00    -0.270 OA
ATOM      3  N   UNL     1       0.647  -4.432  -0.127  0.00  0.00    -0.296 N 
ATOM      4  C   UNL     1       1.974  -5.091  -0.156  0.00  0.00    +0.121 C 
ATOM      5  C   UNL     1       1.787  -6.380   0.675  0.00  0.00    +0.100 C 
ATOM      6  C   UNL     1       0.280  -6.675   0.608  0.00  0.00    -0.004 C 
ATOM      7  C   UNL     1      -0.322  -5.548  -0.243  0.00  0.00    +0.115 C 
ATOM      8  C   UNL     1       0.035  -8.028  -0.054  0.00  0.00    -0.010 C 
ATOM      9  C   UNL     1      -1.467  -8.325  -0.057  0.00  0.00    -0.082 C 
ATOM     10  N   UNL     1      -1.968  -8.336   1.323  0.00  0.00    +0.379 N 
ATOM     11  C   UNL     1      -1.813  -7.005   1.922  0.00  0.00    -0.082 C 
ATOM     12  C   UNL     1      -0.326  -6.652   2.009  0.00  0.00    -0.010 C 
ATOM     13  H   UNL     1      -2.944  -8.592   1.323  0.00  0.00    -0.086 HD
ATOM     14  H   UNL     1      -1.446  -9.010   1.863  0.00  0.00    -0.086 HD
ENDROOT
BRANCH   1  21
ATOM     15  C   UNL     1       0.336   0.984   1.837  0.00  0.00    +0.001 A 
ATOM     16  C   UNL     1       1.487   1.747   1.697  0.00  0.00    +0.001 A 
ATOM     17  C   UNL     1       2.569   1.231   1.012  0.00  0.00    +0.015 A 
ATOM     18  C   UNL     1       2.494  -0.037   0.476  0.00  0.00    +0.020 A 
ATOM     19  C   UNL     1       1.339  -0.831   0.605  0.00  0.00    +0.001 A 
ATOM     20  C   UNL     1       0.251  -0.279   1.308  0.00  0.00    +0.010 A 
ATOM     21  C   UNL     1       1.478  -2.140  -0.038  0.00  0.00    +0.052 A 
ATOM     22  C   UNL     1       2.654  -2.423  -0.657  0.00  0.00    +0.059 A 
ATOM     23  S   UNL     1       3.608  -1.060  -0.447  0.00  0.00    -0.096 S 
ENDBRANCH   1  21
BRANCH   5  24
ATOM     24  C   UNL     1       2.217  -6.151   2.102  0.00  0.00    +0.218 C 
ATOM     25  O   UNL     1       2.034  -5.072   2.624  0.00  0.00    -0.275 OA
ATOM     26  N   UNL     1       2.804  -7.146   2.796  0.00  0.00    -0.312 N 
ATOM     27  H   UNL     1       2.950  -8.009   2.378  0.00  0.00    +0.149 HD
BRANCH  26  28
ATOM     28  C   UNL     1       3.222  -6.924   4.183  0.00  0.00    +0.145 C 
BRANCH  28  29
ATOM     29  C   UNL     1       3.856  -8.202   4.735  0.00  0.00    +0.247 C 
BRANCH  29  30
ATOM     30  O   UNL     1       5.059  -8.485   4.019  0.00  0.00    -0.490 OA
BRANCH  30  31
ATOM     31  C   UNL     1       5.750  -9.595   4.388  0.00  0.00    +0.123 A 
ATOM     32  C   UNL     1       5.276 -10.399   5.416  0.00  0.00    +0.046 A 
ATOM     33  C   UNL     1       5.980 -11.527   5.790  0.00  0.00    +0.006 A 
ATOM     34  C   UNL     1       7.156 -11.857   5.143  0.00  0.00    +0.038 A 
ATOM     35  C   UNL     1       7.632 -11.058   4.117  0.00  0.00    +0.127 A 
ATOM     36  C   UNL     1       6.927  -9.930   3.735  0.00  0.00    +0.084 A 
ATOM     37  F   UNL     1       8.781 -11.382   3.486  0.00  0.00    -0.205 F 
ENDBRANCH  30  31
ENDBRANCH  29  30
ENDBRANCH  28  29
ENDBRANCH  26  28
ENDBRANCH   5  24
TORSDOF 6
