REMARK  Name = ZINC35687935
REMARK  4 active torsions:
REMARK  status: ('A' for Active; 'I' for Inactive)
REMARK    1  A    between atoms: C_11  and  C_28
REMARK    2  A    between atoms: C_16  and  C_18
REMARK    3  A    between atoms: C_22  and  N_24
REMARK    4  A    between atoms: C_31  and  C_34
REMARK                            x       y       z     vdW  Elec       q    Type
REMARK                         _______ _______ _______ _____ _____    ______ ____
ROOT
ATOM      1  C   UNL     1      -2.249  -0.633   1.746  0.00  0.00    +0.001 A 
ATOM      2  C   UNL     1      -1.508   0.531   1.901  0.00  0.00    +0.002 A 
ATOM      3  C   UNL     1      -0.138   0.514   1.759  0.00  0.00    +0.026 A 
ATOM      4  C   UNL     1       0.512  -0.678   1.459  0.00  0.00    +0.047 A 
ATOM      5  C   UNL     1      -0.243  -1.856   1.304  0.00  0.00    +0.003 A 
ATOM      6  C   UNL     1      -1.631  -1.815   1.451  0.00  0.00    +0.010 A 
ATOM      7  C   UNL     1       0.720  -2.911   1.000  0.00  0.00    -0.015 A 
ATOM      8  C   UNL     1       1.942  -2.344   0.986  0.00  0.00    +0.046 A 
ATOM      9  N   UNL     1       1.835  -1.011   1.261  0.00  0.00    -0.356 N 
ATOM     10  H   UNL     1       2.579  -0.390   1.308  0.00  0.00    +0.166 HD
ATOM     11  C   UNL     1       3.214  -3.112   0.699  0.00  0.00    +0.153 C 
ATOM     12  N   UNL     1       2.880  -4.546   0.733  0.00  0.00    -0.285 N 
ATOM     13  C   UNL     1       1.656  -4.995   0.052  0.00  0.00    +0.114 C 
ATOM     14  C   UNL     1       0.440  -4.370   0.748  0.00  0.00    +0.056 C 
ATOM     15  C   UNL     1       3.676  -5.426   1.373  0.00  0.00    +0.247 C 
ATOM     16  O   UNL     1       3.424  -6.614   1.333  0.00  0.00    -0.270 OA
ENDROOT
BRANCH  15  17
ATOM     17  C   UNL     1       4.854  -4.945   2.124  0.00  0.00    +0.039 A 
ATOM     18  C   UNL     1       5.730  -4.026   1.541  0.00  0.00    +0.014 A 
ATOM     19  C   UNL     1       6.828  -3.581   2.246  0.00  0.00    +0.023 A 
ATOM     20  C   UNL     1       7.064  -4.043   3.530  0.00  0.00    +0.071 A 
ATOM     21  C   UNL     1       6.199  -4.955   4.113  0.00  0.00    +0.145 A 
ATOM     22  C   UNL     1       5.094  -5.403   3.420  0.00  0.00    +0.047 A 
ATOM     23 CL   UNL     1       8.448  -3.479   4.412  0.00  0.00    -0.081 Cl
BRANCH  21  24
ATOM     24  N   UNL     1       6.459  -5.445   5.486  0.00  0.00    +0.058 N 
ATOM     25  O   UNL     1       5.705  -6.240   5.996  0.00  0.00    -0.126 OA
ATOM     26  O   UNL     1       7.424  -5.049   6.097  0.00  0.00    -0.126 OA
ENDBRANCH  21  24
ENDBRANCH  15  17
BRANCH  11  27
ATOM     27  C   UNL     1       3.740  -2.739  -0.663  0.00  0.00    -0.021 A 
ATOM     28  C   UNL     1       4.299  -1.492  -0.871  0.00  0.00    +0.006 A 
ATOM     29  C   UNL     1       4.782  -1.150  -2.120  0.00  0.00    +0.013 A 
ATOM     30  C   UNL     1       4.707  -2.056  -3.162  0.00  0.00    +0.055 A 
ATOM     31  C   UNL     1       4.149  -3.304  -2.954  0.00  0.00    +0.013 A 
ATOM     32  C   UNL     1       3.670  -3.647  -1.703  0.00  0.00    +0.006 A 
BRANCH  30  33
ATOM     33  C   UNL     1       5.233  -1.683  -4.524  0.00  0.00    +0.417 C 
ATOM     34  F   UNL     1       6.581  -2.043  -4.618  0.00  0.00    -0.166 F 
ATOM     35  F   UNL     1       4.500  -2.358  -5.507  0.00  0.00    -0.166 F 
ATOM     36  F   UNL     1       5.104  -0.303  -4.712  0.00  0.00    -0.166 F 
ENDBRANCH  30  33
ENDBRANCH  11  27
TORSDOF 4
