REMARK  Name = ZINC66054748
REMARK  0 active torsions:
REMARK  status: ('A' for Active; 'I' for Inactive)
REMARK                            x       y       z     vdW  Elec       q    Type
REMARK                         _______ _______ _______ _____ _____    ______ ____
ROOT
ATOM      1  C   UNL     1      -0.017   1.379   0.010  0.00  0.00    +0.017 A 
ATOM      2  C   UNL     1       1.170   2.090   0.002  0.00  0.00    +0.026 A 
ATOM      3  C   UNL     1       2.379   1.414  -0.007  0.00  0.00    +0.055 A 
ATOM      4  C   UNL     1       2.402   0.021   0.001  0.00  0.00    +0.052 A 
ATOM      5  C   UNL     1       1.206  -0.685  -0.004  0.00  0.00    +0.040 A 
ATOM      6  C   UNL     1       0.002  -0.004   0.002  0.00  0.00    +0.020 A 
ATOM      7 BR   UNL     1      -1.625  -0.968   0.000  0.00  0.00    -0.050 Br
ATOM      8  N   UNL     1       3.615  -0.676   0.042  0.00  0.00    -0.329 N 
ATOM      9  C   UNL     1       3.891  -1.525   1.207  0.00  0.00    +0.086 C 
ATOM     10  C   UNL     1       5.342  -1.336   1.647  0.00  0.00    -0.063 C 
ATOM     11  N   UNL     1       6.231  -1.564   0.501  0.00  0.00    +0.381 N 
ATOM     12  C   UNL     1       6.016  -0.526  -0.509  0.00  0.00    -0.059 C 
ATOM     13  C   UNL     1       4.590  -0.564  -1.038  0.00  0.00    +0.065 C 
ATOM     14  C   UNL     1       4.311   0.666  -1.897  0.00  0.00    +0.116 C 
ATOM     15  C   UNL     1       4.425   1.907  -1.060  0.00  0.00    +0.219 C 
ATOM     16  O   UNL     1       5.292   2.717  -1.312  0.00  0.00    -0.275 OA
ATOM     17  N   UNL     1       3.586   2.139  -0.039  0.00  0.00    -0.284 N 
ATOM     18  H   UNL     1       7.191  -1.537   0.810  0.00  0.00    -0.086 HD
ATOM     19  H   UNL     1       3.803   2.783   0.653  0.00  0.00    +0.155 HD
ATOM     20  H   UNL     1       6.035  -2.468   0.099  0.00  0.00    -0.086 HD
ENDROOT
TORSDOF 0
