REMARK  Name = ZINC49506308
REMARK  7 active torsions:
REMARK  status: ('A' for Active; 'I' for Inactive)
REMARK    1  A    between atoms: C_1  and  C_2
REMARK    2  A    between atoms: C_2  and  C_3
REMARK    3  A    between atoms: C_3  and  S_4
REMARK    4  A    between atoms: S_4  and  N_7
REMARK    5  A    between atoms: C_15  and  N_17
REMARK    6  A    between atoms: C_18  and  C_20
REMARK    7  A    between atoms: C_20  and  C_26
REMARK                            x       y       z     vdW  Elec       q    Type
REMARK                         _______ _______ _______ _____ _____    ______ ____
ROOT
ATOM      1  N   UNL     1      -5.477  -2.927  -4.808  0.00  0.00    -0.285 N 
ATOM      2  C   UNL     1      -5.148  -2.432  -6.018  0.00  0.00    +0.228 C 
ATOM      3  O   UNL     1      -4.110  -1.820  -6.161  0.00  0.00    -0.274 OA
ATOM      4  H   UNL     1      -6.284  -3.455  -4.703  0.00  0.00    +0.155 HD
ENDROOT
BRANCH   1  13
ATOM      5  N   UNL     1      -2.192  -1.930  -0.419  0.00  0.00    -0.207 N 
ATOM      6  C   UNL     1      -2.275  -2.799   0.763  0.00  0.00    +0.131 C 
ATOM      7  C   UNL     1      -2.311  -4.253   0.274  0.00  0.00    +0.025 C 
ATOM      8  C   UNL     1      -3.580  -4.464  -0.552  0.00  0.00    +0.039 C 
ATOM      9  C   UNL     1      -3.699  -3.405  -1.616  0.00  0.00    -0.023 A 
ATOM     10  C   UNL     1      -3.025  -2.196  -1.515  0.00  0.00    +0.054 A 
ATOM     11  C   UNL     1      -3.163  -1.233  -2.508  0.00  0.00    +0.027 A 
ATOM     12  C   UNL     1      -3.974  -1.473  -3.598  0.00  0.00    +0.025 A 
ATOM     13  C   UNL     1      -4.653  -2.679  -3.702  0.00  0.00    +0.034 A 
ATOM     14  C   UNL     1      -4.507  -3.647  -2.713  0.00  0.00    +0.028 A 
BRANCH   5  15
ATOM     15  S   UNL     1      -1.138  -0.654  -0.453  0.00  0.00    +0.045 S 
ATOM     16  O   UNL     1      -0.721  -0.564  -1.809  0.00  0.00    -0.155 OA
ATOM     17  O   UNL     1      -0.198  -0.932   0.576  0.00  0.00    -0.155 OA
BRANCH  15  18
ATOM     18  C   UNL     1      -2.140   0.791  -0.010  0.00  0.00    +0.188 C 
BRANCH  18  20
ATOM     19  C   UNL     1      -2.106   3.261   0.364  0.00  0.00    +0.005 C 
ATOM     20  C   UNL     1      -1.260   2.042  -0.010  0.00  0.00    +0.021 C 
ENDBRANCH  18  20
ENDBRANCH  15  18
ENDBRANCH   5  15
ENDBRANCH   1  13
BRANCH   2  21
ATOM     21  C   UNL     1      -6.069  -2.638  -7.192  0.00  0.00    +0.076 C 
ATOM     22  C   UNL     1      -6.393  -4.128  -7.334  0.00  0.00    +0.049 C 
ATOM     23  C   UNL     1      -5.103  -4.897  -7.630  0.00  0.00    +0.161 C 
ATOM     24  O   UNL     1      -4.500  -4.374  -8.816  0.00  0.00    -0.380 OA
ATOM     25  C   UNL     1      -4.132  -2.996  -8.725  0.00  0.00    +0.161 C 
ATOM     26  C   UNL     1      -5.384  -2.151  -8.473  0.00  0.00    +0.049 C 
BRANCH  21  27
ATOM     27  C   UNL     1      -7.343  -1.862  -6.976  0.00  0.00    -0.032 A 
ATOM     28  C   UNL     1      -7.654  -0.801  -7.805  0.00  0.00    +0.007 A 
ATOM     29  C   UNL     1      -8.822  -0.088  -7.608  0.00  0.00    +0.038 A 
ATOM     30  C   UNL     1      -9.681  -0.438  -6.580  0.00  0.00    +0.123 A 
ATOM     31  C   UNL     1      -9.368  -1.501  -5.750  0.00  0.00    +0.038 A 
ATOM     32  C   UNL     1      -8.202  -2.215  -5.952  0.00  0.00    +0.007 A 
ATOM     33  F   UNL     1     -10.822   0.257  -6.386  0.00  0.00    -0.205 F 
ENDBRANCH  21  27
ENDBRANCH   2  21
TORSDOF 6
