REMARK  Name = ZINC43227053
REMARK  9 active torsions:
REMARK  status: ('A' for Active; 'I' for Inactive)
REMARK    1  A    between atoms: C_1  and  C_2
REMARK    2  A    between atoms: C_2  and  C_3
REMARK    3  A    between atoms: C_2  and  C_4
REMARK    4  A    between atoms: C_14  and  C_36
REMARK    5  A    between atoms: C_18  and  C_19
REMARK    6  A    between atoms: C_18  and  C_20
REMARK    7  A    between atoms: C_20  and  N_21
REMARK    8  A    between atoms: C_22  and  C_24
REMARK    9  A    between atoms: C_27  and  C_29
REMARK                            x       y       z     vdW  Elec       q    Type
REMARK                         _______ _______ _______ _____ _____    ______ ____
ROOT
ATOM      1  C   UNL     1      -1.212  -0.243  -0.297  0.00  0.00    -0.045 A 
ATOM      2  C   UNL     1      -2.073   0.094   0.731  0.00  0.00    +0.004 A 
ATOM      3  C   UNL     1      -3.370  -0.377   0.719  0.00  0.00    +0.005 A 
ATOM      4  C   UNL     1      -3.817  -1.183  -0.319  0.00  0.00    -0.038 A 
ATOM      5  C   UNL     1      -2.964  -1.514  -1.347  0.00  0.00    -0.043 A 
ATOM      6  C   UNL     1      -1.657  -1.038  -1.332  0.00  0.00    +0.007 A 
ATOM      7  C   UNL     1      -3.383  -2.366  -2.516  0.00  0.00    +0.036 C 
ATOM      8  C   UNL     1      -4.679  -3.113  -2.205  0.00  0.00    +0.009 C 
ATOM      9  C   UNL     1      -5.692  -2.107  -1.656  0.00  0.00    +0.007 C 
ATOM     10  C   UNL     1      -5.244  -1.672  -0.264  0.00  0.00    -0.003 C 
ATOM     11  C   UNL     1      -5.312  -2.859   0.702  0.00  0.00    +0.011 C 
ATOM     12  C   UNL     1      -6.735  -3.415   0.743  0.00  0.00    +0.001 C 
ATOM     13  C   UNL     1      -7.126  -3.898  -0.656  0.00  0.00    +0.008 C 
ATOM     14  C   UNL     1      -7.086  -2.717  -1.606  0.00  0.00    -0.013 C 
ATOM     15  C   UNL     1      -7.477  -3.205  -3.002  0.00  0.00    +0.013 C 
ATOM     16  C   UNL     1      -6.152  -0.547   0.237  0.00  0.00    +0.016 C 
ENDROOT
BRANCH   1  18
ATOM     17  C   UNL     1       0.203   1.794  -0.293  0.00  0.00    +0.012 C 
ATOM     18  C   UNL     1       0.207   0.264  -0.291  0.00  0.00    +0.013 C 
ATOM     19  C   UNL     1       0.924  -0.242   0.962  0.00  0.00    +0.012 C 
ENDBRANCH   1  18
BRANCH  14  20
ATOM     20  C   UNL     1      -8.088  -1.656  -1.144  0.00  0.00    +0.111 C 
BRANCH  20  21
ATOM     21  N   UNL     1      -9.448  -2.187  -1.257  0.00  0.00    -0.310 N 
ATOM     22  C   UNL     1     -10.501  -1.424  -0.903  0.00  0.00    +0.263 C 
ATOM     23  O   UNL     1     -10.322  -0.294  -0.490  0.00  0.00    -0.269 OA
ATOM     24  H   UNL     1      -9.591  -3.088  -1.586  0.00  0.00    +0.149 HD
BRANCH  22  25
ATOM     25  C   UNL     1     -11.869  -1.958  -1.017  0.00  0.00    +0.133 A 
ATOM     26  C   UNL     1     -12.968  -1.216  -0.675  0.00  0.00    +0.080 A 
ATOM     27  S   UNL     1     -14.233  -2.275  -0.990  0.00  0.00    -0.080 S 
ATOM     28  C   UNL     1     -13.351  -3.596  -1.533  0.00  0.00    +0.080 A 
ATOM     29  N   UNL     1     -12.111  -3.193  -1.466  0.00  0.00    -0.239 NA
BRANCH  28  30
ATOM     30  C   UNL     1     -13.870  -4.933  -1.997  0.00  0.00    +0.028 C 
ATOM     31  C   UNL     1     -14.653  -5.599  -0.861  0.00  0.00    +0.006 C 
ATOM     32  C   UNL     1     -15.241  -6.920  -1.367  0.00  0.00    -0.018 C 
ATOM     33  C   UNL     1     -16.116  -6.646  -2.592  0.00  0.00    -0.083 C 
ATOM     34  N   UNL     1     -15.304  -6.034  -3.650  0.00  0.00    +0.379 N 
ATOM     35  C   UNL     1     -14.795  -4.734  -3.199  0.00  0.00    -0.072 C 
ATOM     36  H   UNL     1     -14.528  -6.640  -3.870  0.00  0.00    -0.086 HD
ATOM     37  H   UNL     1     -15.871  -5.904  -4.475  0.00  0.00    -0.086 HD
ENDBRANCH  28  30
ENDBRANCH  22  25
ENDBRANCH  20  21
ENDBRANCH  14  20
TORSDOF 5
