REMARK  Name = ZINC01422895
REMARK  13 active torsions:
REMARK  status: ('A' for Active; 'I' for Inactive)
REMARK    1  A    between atoms: C_1  and  C_2
REMARK    2  A    between atoms: C_2  and  O_3
REMARK    3  A    between atoms: O_3  and  C_4
REMARK    4  A    between atoms: C_4  and  C_6
REMARK    5  A    between atoms: C_7  and  C_22
REMARK    6  A    between atoms: C_12  and  C_14
REMARK    7  A    between atoms: C_16  and  C_21
REMARK    8  A    between atoms: C_19  and  C_20
REMARK    9  A    between atoms: C_22  and  S_23
REMARK   10  A    between atoms: S_23  and  C_24
REMARK   11  A    between atoms: N_34  and  C_35
REMARK   12  A    between atoms: C_35  and  C_36
REMARK   13  A    between atoms: C_35  and  C_37
REMARK                            x       y       z     vdW  Elec       q    Type
REMARK                         _______ _______ _______ _____ _____    ______ ____
ROOT
ATOM      1  C   UNL     1       1.966  -2.889  -2.186  0.00  0.00    +0.079 C 
ATOM      2  C   UNL     1       2.051  -4.203  -2.482  0.00  0.00    +0.034 C 
ATOM      3  N   UNL     1       2.348  -4.623  -3.748  0.00  0.00    -0.272 N 
ATOM      4  C   UNL     1       2.574  -3.791  -4.772  0.00  0.00    +0.304 C 
ATOM      5  O   UNL     1       2.831  -4.259  -5.864  0.00  0.00    -0.252 OA
ATOM      6  N   UNL     1       2.524  -2.452  -4.632  0.00  0.00    -0.288 N 
ATOM      7  C   UNL     1       2.205  -1.897  -3.306  0.00  0.00    +0.144 C 
ATOM      8  H   UNL     1       2.398  -5.578  -3.913  0.00  0.00    +0.156 HD
ATOM      9  H   UNL     1       2.692  -1.867  -5.388  0.00  0.00    +0.151 HD
ENDROOT
BRANCH   7  10
ATOM     10  C   UNL     1       3.345  -1.000  -2.897  0.00  0.00    -0.019 A 
ATOM     11  C   UNL     1       4.642  -1.326  -3.248  0.00  0.00    +0.009 A 
ATOM     12  C   UNL     1       5.688  -0.504  -2.873  0.00  0.00    -0.050 A 
ATOM     13  C   UNL     1       5.437   0.646  -2.147  0.00  0.00    +0.003 A 
ATOM     14  C   UNL     1       4.140   0.973  -1.797  0.00  0.00    +0.004 A 
ATOM     15  C   UNL     1       3.094   0.152  -2.176  0.00  0.00    -0.045 A 
ATOM     16  C   UNL     1       1.680   0.511  -1.799  0.00  0.00    +0.044 C 
ATOM     17  C   UNL     1       7.101  -0.860  -3.254  0.00  0.00    +0.044 C 
ENDBRANCH   7  10
BRANCH   1  18
ATOM     18  C   UNL     1       1.659  -2.453  -0.876  0.00  0.00    +0.339 C 
ATOM     19  O   UNL     1       0.525  -2.109  -0.600  0.00  0.00    -0.245 OA
BRANCH  18  20
ATOM     20  O   UNL     1       2.623  -2.417   0.067  0.00  0.00    -0.462 OA
BRANCH  20  22
ATOM     21  C   UNL     1       3.423  -2.136   2.330  0.00  0.00    +0.048 C 
ATOM     22  C   UNL     1       2.235  -1.997   1.377  0.00  0.00    +0.229 C 
ENDBRANCH  20  22
ENDBRANCH  18  20
ENDBRANCH   1  18
BRANCH   2  23
ATOM     23  C   UNL     1       1.815  -5.224  -1.399  0.00  0.00    +0.128 C 
BRANCH  23  24
ATOM     24  S   UNL     1       0.191  -5.994  -1.637  0.00  0.00    -0.078 S 
BRANCH  24  25
ATOM     25  C   UNL     1       0.066  -7.147  -0.310  0.00  0.00    +0.212 A 
ATOM     26  N   UNL     1      -1.024  -7.893  -0.197  0.00  0.00    -0.201 NA
ATOM     27  C   UNL     1      -1.116  -8.763   0.805  0.00  0.00    +0.165 A 
ATOM     28  C   UNL     1      -0.040  -8.855   1.712  0.00  0.00    +0.138 A 
ATOM     29  C   UNL     1      -0.417  -9.882   2.699  0.00  0.00    +0.029 A 
ATOM     30  C   UNL     1       0.214 -10.414   3.820  0.00  0.00    +0.012 A 
ATOM     31  C   UNL     1      -0.415 -11.392   4.561  0.00  0.00    +0.001 A 
ATOM     32  C   UNL     1      -1.672 -11.847   4.192  0.00  0.00    +0.002 A 
ATOM     33  C   UNL     1      -2.308 -11.329   3.084  0.00  0.00    +0.026 A 
ATOM     34  C   UNL     1      -1.690 -10.341   2.325  0.00  0.00    +0.053 A 
ATOM     35  N   UNL     1      -2.086  -9.655   1.188  0.00  0.00    -0.321 N 
ATOM     36  N   UNL     1       1.022  -8.081   1.544  0.00  0.00    -0.143 NA
ATOM     37  N   UNL     1       1.069  -7.255   0.555  0.00  0.00    -0.122 NA
BRANCH  35  38
ATOM     38  C   UNL     1      -3.360  -9.855   0.493  0.00  0.00    +0.083 C 
ATOM     39  C   UNL     1      -4.146  -8.542   0.482  0.00  0.00    +0.030 C 
ATOM     40  C   UNL     1      -3.092 -10.300  -0.946  0.00  0.00    +0.030 C 
ENDBRANCH  35  38
ENDBRANCH  24  25
ENDBRANCH  23  24
ENDBRANCH   2  23
TORSDOF 8
