REMARK  Name = ZINC35381943
REMARK  4 active torsions:
REMARK  status: ('A' for Active; 'I' for Inactive)
REMARK    1  A    between atoms: C_4  and  N_7
REMARK    2  A    between atoms: C_9  and  C_12
REMARK    3  A    between atoms: C_12  and  C_14
REMARK    4  A    between atoms: C_12  and  N_20
REMARK                            x       y       z     vdW  Elec       q    Type
REMARK                         _______ _______ _______ _____ _____    ______ ____
ROOT
ATOM      1  N   UNL     1       3.624  -0.652  -0.037  0.00  0.00    -0.240 N 
ATOM      2  C   UNL     1       3.786  -1.994  -0.052  0.00  0.00    +0.116 A 
ATOM      3  C   UNL     1       5.115  -2.248  -0.065  0.00  0.00    -0.017 A 
ATOM      4  C   UNL     1       5.788  -1.022  -0.059  0.00  0.00    +0.137 A 
ATOM      5  N   UNL     1       4.895  -0.065  -0.048  0.00  0.00    -0.175 NA
ENDROOT
BRANCH   1   9
ATOM      6  C   UNL     1      -0.017   1.379   0.010  0.00  0.00    +0.000 A 
ATOM      7  C   UNL     1       1.170   2.089   0.002  0.00  0.00    +0.002 A 
ATOM      8  C   UNL     1       2.377   1.419  -0.013  0.00  0.00    +0.028 A 
ATOM      9  C   UNL     1       2.399   0.031  -0.021  0.00  0.00    +0.065 A 
ATOM     10  C   UNL     1       1.207  -0.680  -0.013  0.00  0.00    +0.028 A 
ATOM     11  C   UNL     1       0.002  -0.004   0.002  0.00  0.00    +0.002 A 
ENDBRANCH   1   9
BRANCH   3  12
ATOM     12  C   UNL     1       5.757  -3.612  -0.083  0.00  0.00    +0.026 C 
BRANCH  12  13
ATOM     13  C   UNL     1       6.183  -3.948  -1.489  0.00  0.00    +0.097 A 
ATOM     14  C   UNL     1       5.510  -4.735  -2.347  0.00  0.00    +0.044 A 
ATOM     15  C   UNL     1       6.264  -4.777  -3.543  0.00  0.00    +0.057 A 
ATOM     16  C   UNL     1       7.353  -4.011  -3.343  0.00  0.00    +0.170 A 
ATOM     17  O   UNL     1       7.295  -3.507  -2.099  0.00  0.00    -0.454 OA
ATOM     18 BR   UNL     1       8.727  -3.694  -4.603  0.00  0.00    -0.008 Br
ENDBRANCH  12  13
BRANCH  12  19
ATOM     19  N   UNL     1       6.933  -3.611   0.798  0.00  0.00    +0.387 N 
ATOM     20  H   UNL     1       7.596  -2.923   0.473  0.00  0.00    -0.089 HD
ATOM     21  H   UNL     1       6.648  -3.386   1.739  0.00  0.00    -0.089 HD
ATOM     22  H   UNL     1       7.363  -4.524   0.786  0.00  0.00    -0.089 HD
ENDBRANCH  12  19
ENDBRANCH   3  12
TORSDOF 4
