REMARK  Name = ZINC39464506
REMARK  9 active torsions:
REMARK  status: ('A' for Active; 'I' for Inactive)
REMARK    1  A    between atoms: C_1  and  C_2
REMARK    2  A    between atoms: C_2  and  O_3
REMARK    3  A    between atoms: O_3  and  C_4
REMARK    4  A    between atoms: C_9  and  S_10
REMARK    5  A    between atoms: S_10  and  C_13
REMARK    6  A    between atoms: C_13  and  C_14
REMARK    7  A    between atoms: C_13  and  C_15
REMARK    8  A    between atoms: P_20  and  C_26
REMARK    9  A    between atoms: C_31  and  O_32
REMARK                            x       y       z     vdW  Elec       q    Type
REMARK                         _______ _______ _______ _____ _____    ______ ____
ROOT
ATOM      1  C   UNL     1       0.786  -2.253  -1.830  0.00  0.00    +0.145 A 
ATOM      2  C   UNL     1       0.300  -3.305  -1.070  0.00  0.00    +0.051 A 
ATOM      3  C   UNL     1       0.640  -4.610  -1.384  0.00  0.00    -0.038 A 
ATOM      4  C   UNL     1       1.467  -4.868  -2.457  0.00  0.00    -0.021 A 
ATOM      5  C   UNL     1       1.954  -3.815  -3.219  0.00  0.00    +0.036 A 
ATOM      6  C   UNL     1       1.613  -2.514  -2.913  0.00  0.00    +0.130 A 
ATOM      7  C   UNL     1       1.869  -6.269  -2.838  0.00  0.00    +0.129 C 
ATOM      8  C   UNL     1       1.801  -6.410  -4.362  0.00  0.00    +0.194 C 
ATOM      9  O   UNL     1       2.299  -7.713  -4.727  0.00  0.00    -0.311 OA
ATOM     10  P   UNL     1       1.701  -9.011  -3.952  0.00  0.00    +0.318 P 
ATOM     11  O   UNL     1       2.659 -10.137  -4.025  0.00  0.00    -0.266 OA
ATOM     12  N   UNL     1       1.496  -8.537  -2.381  0.00  0.00    -0.175 NA
ATOM     13  N   UNL     1       1.006  -7.260  -2.196  0.00  0.00    -0.225 NA
ATOM     14  C   UNL     1       0.884  -6.995  -0.754  0.00  0.00    +0.108 C 
ATOM     15  C   UNL     1       0.087  -5.723  -0.532  0.00  0.00    +0.052 C 
ATOM     16  H   UNL     1       1.702  -9.127  -1.639  0.00  0.00    +0.151 HD
ENDROOT
BRANCH  10  17
ATOM     17  C   UNL     1       0.109  -9.496  -4.676  0.00  0.00    +0.094 A 
ATOM     18  C   UNL     1      -1.065  -8.956  -4.188  0.00  0.00    +0.018 A 
ATOM     19  C   UNL     1      -2.278  -9.325  -4.739  0.00  0.00    +0.001 A 
ATOM     20  C   UNL     1      -2.319 -10.235  -5.780  0.00  0.00    +0.004 A 
ATOM     21  C   UNL     1      -1.148 -10.777  -6.271  0.00  0.00    +0.046 A 
ATOM     22  C   UNL     1       0.071 -10.404  -5.723  0.00  0.00    +0.131 A 
BRANCH  22  23
ATOM     23  O   UNL     1       1.226 -10.932  -6.209  0.00  0.00    -0.506 OA
ATOM     24  H   UNL     1       1.499 -11.749  -5.771  0.00  0.00    +0.292 HD
ENDBRANCH  22  23
ENDBRANCH  10  17
BRANCH   6  25
ATOM     25  S   UNL     1       2.232  -1.186  -3.892  0.00  0.00    +0.003 S 
ATOM     26  O   UNL     1       3.003  -1.813  -4.907  0.00  0.00    -0.169 OA
ATOM     27  O   UNL     1       1.085  -0.416  -4.224  0.00  0.00    -0.169 OA
BRANCH  25  28
ATOM     28  C   UNL     1       3.312  -0.248  -2.776  0.00  0.00    +0.130 C 
ATOM     29  C   UNL     1       4.446  -1.151  -2.286  0.00  0.00    +0.032 C 
ATOM     30  C   UNL     1       3.900   0.950  -3.523  0.00  0.00    +0.032 C 
ENDBRANCH  25  28
ENDBRANCH   6  25
BRANCH   1  31
ATOM     31  O   UNL     1       0.451  -0.973  -1.520  0.00  0.00    -0.490 OA
BRANCH  31  33
ATOM     32  C   UNL     1      -0.669   0.712  -0.199  0.00  0.00    +0.048 C 
ATOM     33  C   UNL     1      -0.404  -0.782  -0.391  0.00  0.00    +0.226 C 
ENDBRANCH  31  33
ENDBRANCH   1  31
TORSDOF 6
