REMARK  Name = ZINC38700820
REMARK  1 active torsions:
REMARK  status: ('A' for Active; 'I' for Inactive)
REMARK    1  A    between atoms: C_1  and  C_2
REMARK                            x       y       z     vdW  Elec       q    Type
REMARK                         _______ _______ _______ _____ _____    ______ ____
ROOT
ATOM      1  C   UNL     1      -0.021   1.504  -0.016  0.00  0.00    +0.073 C 
ATOM      2  C   UNL     1       0.000  -0.003  -0.019  0.00  0.00    +0.127 A 
ATOM      3  C   UNL     1      -1.204  -0.714  -0.013  0.00  0.00    +0.297 A 
ATOM      4  O   UNL     1      -2.273  -0.122  -0.005  0.00  0.00    -0.264 OA
ATOM      5  N   UNL     1      -1.170  -2.080  -0.017  0.00  0.00    -0.166 N 
ATOM      6  C   UNL     1       0.079  -2.638  -0.027  0.00  0.00    +0.221 A 
ATOM      7  N   UNL     1       1.181  -1.930  -0.032  0.00  0.00    -0.121 NA
ATOM      8  N   UNL     1       1.152  -0.640  -0.034  0.00  0.00    -0.146 NA
ATOM      9  S   UNL     1      -0.276  -4.380  -0.029  0.00  0.00    -0.009 S 
ATOM     10  C   UNL     1      -2.058  -4.258  -0.017  0.00  0.00    +0.196 A 
ATOM     11  N   UNL     1      -2.243  -2.963  -0.011  0.00  0.00    -0.136 NA
ATOM     12  N   UNL     1      -3.002  -5.273  -0.013  0.00  0.00    -0.304 N 
ATOM     13  C   UNL     1      -2.601  -6.587  -0.127  0.00  0.00    +0.194 C 
ATOM     14  N   UNL     1      -1.332  -6.882  -0.134  0.00  0.00    -0.268 NA
ATOM     15  N   UNL     1      -3.540  -7.586  -0.231  0.00  0.00    -0.370 N 
ATOM     16  H   UNL     1      -3.944  -5.059   0.069  0.00  0.00    +0.171 HD
ATOM     17  H   UNL     1      -1.050  -7.807  -0.214  0.00  0.00    +0.190 HD
ATOM     18  H   UNL     1      -4.481  -7.361  -0.298  0.00  0.00    +0.159 HD
ATOM     19  H   UNL     1      -3.261  -8.515  -0.238  0.00  0.00    +0.159 HD
ENDROOT
TORSDOF 0
