REMARK  Name = ZINC17123782
REMARK  8 active torsions:
REMARK  status: ('A' for Active; 'I' for Inactive)
REMARK    1  A    between atoms: C_1  and  C_2
REMARK    2  A    between atoms: N_4  and  C_33
REMARK    3  A    between atoms: C_7  and  C_9
REMARK    4  A    between atoms: C_9  and  C_10
REMARK    5  A    between atoms: C_9  and  C_19
REMARK    6  A    between atoms: C_14  and  N_16
REMARK    7  A    between atoms: C_21  and  C_32
REMARK    8  A    between atoms: N_23  and  C_26
REMARK                            x       y       z     vdW  Elec       q    Type
REMARK                         _______ _______ _______ _____ _____    ______ ____
ROOT
ATOM      1  C   UNL     1      -1.119  -0.517   1.925  0.00  0.00    +0.054 C 
ENDROOT
BRANCH   1   8
ATOM      2  C   UNL     1      -1.033  -3.243   0.159  0.00  0.00    +0.063 C 
ATOM      3  C   UNL     1       0.056  -2.419   0.798  0.00  0.00    +0.047 C 
ATOM      4  N   UNL     1       1.164  -2.853   1.256  0.00  0.00    -0.181 NA
ATOM      5  N   UNL     1       1.968  -1.849   1.786  0.00  0.00    -0.160 N 
ATOM      6  C   UNL     1       1.370  -0.643   1.687  0.00  0.00    +0.249 C 
ATOM      7  O   UNL     1       1.804   0.428   2.053  0.00  0.00    -0.273 OA
ATOM      8  C   UNL     1       0.041  -0.920   1.011  0.00  0.00    +0.131 C 
BRANCH   5   9
ATOM      9  C   UNL     1       3.232  -2.062   2.351  0.00  0.00    +0.060 A 
ATOM     10  C   UNL     1       3.955  -0.992   2.861  0.00  0.00    +0.025 A 
ATOM     11  C   UNL     1       5.202  -1.205   3.417  0.00  0.00    +0.002 A 
ATOM     12  C   UNL     1       5.729  -2.482   3.465  0.00  0.00    +0.000 A 
ATOM     13  C   UNL     1       5.011  -3.550   2.958  0.00  0.00    +0.002 A 
ATOM     14  C   UNL     1       3.762  -3.345   2.407  0.00  0.00    +0.025 A 
ENDBRANCH   5   9
ENDBRANCH   1   8
BRANCH   1  15
ATOM     15  C   UNL     1      -1.065   0.990   2.183  0.00  0.00    +0.131 C 
ATOM     16  C   UNL     1      -2.339   1.462   2.853  0.00  0.00    +0.047 C 
ATOM     17  N   UNL     1      -2.889   2.303   2.067  0.00  0.00    -0.181 NA
ATOM     18  N   UNL     1      -2.168   2.507   0.893  0.00  0.00    -0.160 N 
ATOM     19  C   UNL     1      -1.044   1.755   0.873  0.00  0.00    +0.249 C 
ATOM     20  O   UNL     1      -0.203   1.702   0.001  0.00  0.00    -0.273 OA
ATOM     21  C   UNL     1      -2.860   1.020   4.196  0.00  0.00    +0.063 C 
BRANCH  18  22
ATOM     22  C   UNL     1      -2.556   3.379  -0.131  0.00  0.00    +0.060 A 
ATOM     23  C   UNL     1      -1.857   3.396  -1.331  0.00  0.00    +0.025 A 
ATOM     24  C   UNL     1      -2.241   4.257  -2.340  0.00  0.00    +0.002 A 
ATOM     25  C   UNL     1      -3.320   5.103  -2.156  0.00  0.00    +0.000 A 
ATOM     26  C   UNL     1      -4.018   5.088  -0.962  0.00  0.00    +0.002 A 
ATOM     27  C   UNL     1      -3.642   4.225   0.048  0.00  0.00    +0.025 A 
ENDBRANCH  18  22
ENDBRANCH   1  15
BRANCH   1  28
ATOM     28  C   UNL     1      -1.006  -1.255   3.234  0.00  0.00    -0.040 A 
ATOM     29  C   UNL     1      -0.017  -0.912   4.138  0.00  0.00    +0.004 A 
ATOM     30  C   UNL     1       0.087  -1.588   5.339  0.00  0.00    +0.002 A 
ATOM     31  C   UNL     1      -0.798  -2.608   5.636  0.00  0.00    +0.033 A 
ATOM     32  C   UNL     1      -1.787  -2.950   4.734  0.00  0.00    +0.126 A 
ATOM     33  C   UNL     1      -1.894  -2.270   3.534  0.00  0.00    +0.036 A 
BRANCH  32  34
ATOM     34  N   UNL     1      -2.735  -4.042   5.052  0.00  0.00    +0.056 N 
ATOM     35  O   UNL     1      -2.644  -4.634   6.102  0.00  0.00    -0.126 OA
ATOM     36  O   UNL     1      -3.600  -4.341   4.262  0.00  0.00    -0.126 OA
ENDBRANCH  32  34
ENDBRANCH   1  28
TORSDOF 6
