REMARK  Name = ZINC63589460
REMARK  9 active torsions:
REMARK  status: ('A' for Active; 'I' for Inactive)
REMARK    1  A    between atoms: C_1  and  C_2
REMARK    2  A    between atoms: C_2  and  O_3
REMARK    3  A    between atoms: O_3  and  C_4
REMARK    4  A    between atoms: C_7  and  C_10
REMARK    5  A    between atoms: C_10  and  N_12
REMARK    6  A    between atoms: N_14  and  C_15
REMARK    7  A    between atoms: N_25  and  C_26
REMARK    8  A    between atoms: C_26  and  C_27
REMARK    9  A    between atoms: C_27  and  C_28
REMARK                            x       y       z     vdW  Elec       q    Type
REMARK                         _______ _______ _______ _____ _____    ______ ____
ROOT
ATOM      1  N   UNL     1       2.827  -6.476   2.245  0.00  0.00    -0.143 NA
ATOM      2  C   UNL     1       2.336  -7.637   2.651  0.00  0.00    +0.194 C 
ATOM      3  N   UNL     1       2.282  -7.927   3.984  0.00  0.00    -0.328 N 
ATOM      4  N   UNL     1       1.883  -8.543   1.737  0.00  0.00    -0.357 N 
ATOM      5  H   UNL     1       2.006  -8.809   4.278  0.00  0.00    +0.169 HD
ATOM      6  H   UNL     1       2.011  -8.382   0.789  0.00  0.00    +0.162 HD
ENDROOT
BRANCH   3   7
ATOM      7  C   UNL     1       2.627  -6.951   4.927  0.00  0.00    +0.045 A 
ATOM      8  C   UNL     1       2.178  -5.646   4.773  0.00  0.00    +0.029 A 
ATOM      9  C   UNL     1       2.518  -4.683   5.703  0.00  0.00    +0.051 A 
ATOM     10  C   UNL     1       3.309  -5.015   6.793  0.00  0.00    +0.162 A 
ATOM     11  C   UNL     1       3.759  -6.321   6.951  0.00  0.00    +0.164 A 
ATOM     12  C   UNL     1       3.414  -7.288   6.020  0.00  0.00    +0.075 A 
ATOM     13  O   UNL     1       4.529  -6.667   8.018  0.00  0.00    -0.485 OA
ATOM     14  C   UNL     1       5.159  -5.598   8.732  0.00  0.00    +0.270 C 
ATOM     15  C   UNL     1       4.115  -4.499   8.970  0.00  0.00    +0.270 C 
ATOM     16  O   UNL     1       3.638  -4.051   7.697  0.00  0.00    -0.485 OA
ENDBRANCH   3   7
BRANCH   1  17
ATOM     17  C   UNL     1       2.721  -6.117   0.959  0.00  0.00    +0.270 C 
ATOM     18  O   UNL     1       2.246  -6.891   0.147  0.00  0.00    -0.268 OA
BRANCH  17  22
ATOM     19  C   UNL     1       4.039  -2.275  -0.290  0.00  0.00    +0.121 A 
ATOM     20  C   UNL     1       3.498  -3.157  -1.217  0.00  0.00    +0.046 A 
ATOM     21  C   UNL     1       3.070  -4.403  -0.816  0.00  0.00    +0.017 A 
ATOM     22  C   UNL     1       3.180  -4.780   0.524  0.00  0.00    +0.039 A 
ATOM     23  C   UNL     1       3.724  -3.890   1.453  0.00  0.00    +0.017 A 
ATOM     24  C   UNL     1       4.155  -2.648   1.044  0.00  0.00    +0.046 A 
BRANCH  19  25
ATOM     25  O   UNL     1       4.460  -1.048  -0.689  0.00  0.00    -0.492 OA
BRANCH  25  27
ATOM     26  C   UNL     1       4.836   0.685  -2.332  0.00  0.00    +0.048 C 
ATOM     27  C   UNL     1       4.311  -0.729  -2.074  0.00  0.00    +0.225 C 
ENDBRANCH  25  27
ENDBRANCH  19  25
ENDBRANCH  17  22
ENDBRANCH   1  17
BRANCH   4  28
ATOM     28  C   UNL     1       1.205  -9.761   2.188  0.00  0.00    +0.120 C 
BRANCH  28  29
ATOM     29  C   UNL     1       0.911 -10.656   0.982  0.00  0.00    +0.054 C 
BRANCH  29  30
ATOM     30  C   UNL     1       0.107 -11.851   1.428  0.00  0.00    -0.040 C 
ATOM     31  C   UNL     1      -1.240 -11.970   1.431  0.00  0.00    -0.001 A 
ATOM     32  C   UNL     1      -2.320 -11.057   1.036  0.00  0.00    +0.010 A 
ATOM     33  C   UNL     1      -3.603 -11.467   1.157  0.00  0.00    +0.001 A 
ATOM     34  C   UNL     1      -3.926 -12.739   1.649  0.00  0.00    +0.002 A 
ATOM     35  C   UNL     1      -2.990 -13.633   2.031  0.00  0.00    +0.026 A 
ATOM     36  C   UNL     1      -1.609 -13.307   1.947  0.00  0.00    +0.043 A 
ATOM     37  N   UNL     1      -0.531 -13.989   2.251  0.00  0.00    -0.380 N 
ATOM     38  C   UNL     1       0.645 -13.162   1.956  0.00  0.00    +0.144 C 
ATOM     39  H   UNL     1      -0.513 -14.891   2.607  0.00  0.00    +0.160 HD
ENDBRANCH  29  30
ENDBRANCH  28  29
ENDBRANCH   4  28
TORSDOF 8
