REMARK  Name = ZINC43742935
REMARK  5 active torsions:
REMARK  status: ('A' for Active; 'I' for Inactive)
REMARK    1  A    between atoms: C_1  and  C_2
REMARK    2  A    between atoms: C_5  and  O_32
REMARK    3  A    between atoms: C_18  and  C_31
REMARK    4  A    between atoms: C_19  and  O_30
REMARK    5  A    between atoms: C_22  and  C_24
REMARK                            x       y       z     vdW  Elec       q    Type
REMARK                         _______ _______ _______ _____ _____    ______ ____
ROOT
ATOM      1  C   UNL     1       0.049   1.376   0.042  0.00  0.00    +0.012 C 
ATOM      2  C   UNL     1       0.029  -0.154   0.045  0.00  0.00    -0.026 C 
ATOM      3  C   UNL     1       0.743  -0.676  -1.203  0.00  0.00    +0.010 C 
ATOM      4  C   UNL     1       2.192  -0.186  -1.205  0.00  0.00    +0.032 C 
ATOM      5  C   UNL     1       2.907  -0.703   0.044  0.00  0.00    +0.115 C 
ATOM      6  C   UNL     1       2.194  -0.180   1.293  0.00  0.00    +0.035 C 
ATOM      7  C   UNL     1       0.744  -0.670   1.296  0.00  0.00    -0.002 C 
ATOM      8  C   UNL     1       0.031  -0.146   2.543  0.00  0.00    +0.004 C 
ATOM      9  C   UNL     1      -1.418  -0.638   2.546  0.00  0.00    +0.007 C 
ATOM     10  C   UNL     1      -2.134  -0.125   1.294  0.00  0.00    +0.025 C 
ATOM     11  C   UNL     1      -1.420  -0.645   0.048  0.00  0.00    +0.001 C 
ATOM     12  C   UNL     1      -2.142  -0.099  -1.188  0.00  0.00    +0.005 C 
ATOM     13  C   UNL     1      -3.564  -0.652  -1.206  0.00  0.00    +0.010 C 
ATOM     14  C   UNL     1      -4.345  -0.182   0.023  0.00  0.00    +0.004 C 
ATOM     15  C   UNL     1      -3.582  -0.552   1.304  0.00  0.00    +0.075 C 
ATOM     16  C   UNL     1      -3.748  -2.079   1.417  0.00  0.00    +0.036 C 
ATOM     17  C   UNL     1      -5.206  -2.317   0.958  0.00  0.00    +0.011 C 
ATOM     18  C   UNL     1      -5.615  -1.071   0.111  0.00  0.00    +0.027 C 
ATOM     19  C   UNL     1      -4.697   1.305  -0.068  0.00  0.00    +0.014 C 
ENDROOT
BRANCH  18  20
ATOM     20  C   UNL     1      -6.014  -1.541  -1.264  0.00  0.00    -0.022 C 
ATOM     21  C   UNL     1      -5.816  -2.754  -1.776  0.00  0.00    +0.094 C 
ATOM     22  C   UNL     1      -6.356  -2.791  -3.139  0.00  0.00    +0.332 C 
ATOM     23  O   UNL     1      -6.332  -3.758  -3.874  0.00  0.00    -0.246 OA
ATOM     24  O   UNL     1      -6.883  -1.593  -3.453  0.00  0.00    -0.457 OA
ATOM     25  C   UNL     1      -6.720  -0.729  -2.323  0.00  0.00    +0.264 C 
ENDBRANCH  18  20
BRANCH  15  26
ATOM     26  O   UNL     1      -4.245   0.059   2.412  0.00  0.00    -0.388 OA
ATOM     27  H   UNL     1      -3.864  -0.166   3.272  0.00  0.00    +0.210 HD
ENDBRANCH  15  26
BRANCH   5  28
ATOM     28  O   UNL     1       2.887  -2.132   0.048  0.00  0.00    -0.392 OA
ATOM     29  H   UNL     1       3.322  -2.533  -0.717  0.00  0.00    +0.210 HD
ENDBRANCH   5  28
TORSDOF 3
