REMARK  Name = ZINC16516232
REMARK  11 active torsions:
REMARK  status: ('A' for Active; 'I' for Inactive)
REMARK    1  A    between atoms: C_1  and  C_2
REMARK    2  A    between atoms: C_5  and  C_8
REMARK    3  A    between atoms: C_8  and  C_9
REMARK    4  A    between atoms: N_14  and  C_15
REMARK    5  A    between atoms: N_14  and  C_33
REMARK    6  A    between atoms: C_15  and  C_16
REMARK    7  A    between atoms: C_16  and  C_17
REMARK    8  A    between atoms: N_22  and  C_25
REMARK    9  A    between atoms: C_30  and  O_31
REMARK   10  A    between atoms: O_31  and  C_32
REMARK   11  A    between atoms: C_33  and  C_34
REMARK                            x       y       z     vdW  Elec       q    Type
REMARK                         _______ _______ _______ _____ _____    ______ ____
ROOT
ATOM      1  C   UNL     1      -7.254  -7.216   4.528  0.00  0.00    +0.145 A 
ATOM      2  N   UNL     1      -6.006  -7.405   4.168  0.00  0.00    -0.208 NA
ATOM      3  C   UNL     1      -5.588  -6.881   3.024  0.00  0.00    +0.181 A 
ATOM      4  S   UNL     1      -7.025  -6.090   2.460  0.00  0.00    +0.049 S 
ATOM      5  N   UNL     1      -8.056  -6.519   3.758  0.00  0.00    -0.192 NA
ATOM      6  N   UNL     1      -4.336  -6.942   2.440  0.00  0.00    -0.301 N 
ENDROOT
BRANCH   1   7
ATOM      7  C   UNL     1      -7.765  -7.796   5.821  0.00  0.00    +0.112 C 
BRANCH   7  12
ATOM      8  C   UNL     1      -6.971  -3.983  10.090  0.00  0.00    +0.044 C 
ATOM      9  C   UNL     1      -7.178  -4.978   8.977  0.00  0.00    -0.050 A 
ATOM     10  C   UNL     1      -8.354  -4.966   8.250  0.00  0.00    +0.003 A 
ATOM     11  C   UNL     1      -8.543  -5.879   7.229  0.00  0.00    +0.004 A 
ATOM     12  C   UNL     1      -7.558  -6.802   6.935  0.00  0.00    -0.040 A 
ATOM     13  C   UNL     1      -6.385  -6.817   7.665  0.00  0.00    +0.004 A 
ATOM     14  C   UNL     1      -6.193  -5.902   8.684  0.00  0.00    +0.003 A 
ENDBRANCH   7  12
ENDBRANCH   1   7
BRANCH   6  15
ATOM     15  C   UNL     1      -4.094  -6.281   1.155  0.00  0.00    +0.117 C 
BRANCH  15  16
ATOM     16  C   UNL     1      -3.627  -4.845   1.401  0.00  0.00    +0.115 C 
BRANCH  16  17
ATOM     17  C   UNL     1      -3.378  -4.164   0.080  0.00  0.00    +0.217 C 
ATOM     18  O   UNL     1      -3.556  -4.769  -0.957  0.00  0.00    -0.276 OA
ATOM     19  N   UNL     1      -2.957  -2.885   0.050  0.00  0.00    -0.298 N 
ATOM     20  C   UNL     1      -2.708  -2.201  -1.229  0.00  0.00    +0.126 C 
ATOM     21  C   UNL     1      -1.310  -1.575  -1.182  0.00  0.00    +0.124 C 
ATOM     22  N   UNL     1      -1.199  -0.722   0.009  0.00  0.00    -0.324 N 
ATOM     23  C   UNL     1      -1.335  -1.509   1.242  0.00  0.00    +0.124 C 
ATOM     24  C   UNL     1      -2.733  -2.134   1.294  0.00  0.00    +0.126 C 
BRANCH  22  25
ATOM     25  C   UNL     1       0.002  -0.004   0.002  0.00  0.00    +0.072 A 
ATOM     26  C   UNL     1       1.215  -0.677  -0.013  0.00  0.00    +0.027 A 
ATOM     27  C   UNL     1       2.400   0.034  -0.021  0.00  0.00    +0.002 A 
ATOM     28  C   UNL     1       2.380   1.416  -0.013  0.00  0.00    +0.004 A 
ATOM     29  C   UNL     1       1.175   2.094   0.002  0.00  0.00    +0.047 A 
ATOM     30  C   UNL     1      -0.017   1.389   0.010  0.00  0.00    +0.141 A 
BRANCH  30  31
ATOM     31  O   UNL     1      -1.203   2.055   0.019  0.00  0.00    -0.493 OA
ATOM     32  C   UNL     1      -1.145   3.482   0.026  0.00  0.00    +0.277 C 
ENDBRANCH  30  31
ENDBRANCH  22  25
ENDBRANCH  16  17
ENDBRANCH  15  16
ENDBRANCH   6  15
BRANCH   6  33
ATOM     33  C   UNL     1      -3.252  -7.669   3.105  0.00  0.00    +0.181 C 
BRANCH  33  34
ATOM     34  C   UNL     1      -2.503  -6.731   4.016  0.00  0.00    +0.122 A 
ATOM     35  C   UNL     1      -2.786  -6.497   5.310  0.00  0.00    +0.046 A 
ATOM     36  C   UNL     1      -1.838  -5.557   5.774  0.00  0.00    +0.041 A 
ATOM     37  C   UNL     1      -1.032  -5.272   4.735  0.00  0.00    +0.195 A 
ATOM     38  O   UNL     1      -1.435  -5.990   3.675  0.00  0.00    -0.466 OA
ENDBRANCH  33  34
ENDBRANCH   6  33
TORSDOF 9
