REMARK  Name = ZINC03772520
REMARK  7 active torsions:
REMARK  status: ('A' for Active; 'I' for Inactive)
REMARK    1  A    between atoms: C_1  and  C_2
REMARK    2  A    between atoms: C_2  and  C_3
REMARK    3  A    between atoms: C_3  and  C_4
REMARK    4  A    between atoms: C_4  and  S_5
REMARK    5  A    between atoms: S_5  and  C_6
REMARK    6  A    between atoms: C_19  and  C_22
REMARK    7  A    between atoms: C_25  and  C_27
REMARK                            x       y       z     vdW  Elec       q    Type
REMARK                         _______ _______ _______ _____ _____    ______ ____
ROOT
ATOM      1  C   UNL     1       3.644  12.176   2.143  0.00  0.00    +0.212 A 
ATOM      2  N   UNL     1       2.609  11.363   1.950  0.00  0.00    -0.184 NA
ATOM      3  C   UNL     1       2.829  10.114   1.579  0.00  0.00    +0.248 A 
ATOM      4  C   UNL     1       4.163   9.684   1.395  0.00  0.00    +0.156 A 
ATOM      5  N   UNL     1       5.148  10.543   1.606  0.00  0.00    -0.141 NA
ATOM      6  N   UNL     1       4.889  11.752   1.970  0.00  0.00    -0.122 NA
ATOM      7  C   UNL     1       4.431   8.295   0.967  0.00  0.00    +0.029 A 
ATOM      8  C   UNL     1       5.383   7.509   1.604  0.00  0.00    +0.027 A 
ATOM      9  C   UNL     1       5.614   6.219   1.163  0.00  0.00    +0.019 A 
ATOM     10  C   UNL     1       4.902   5.708   0.091  0.00  0.00    +0.017 A 
ATOM     11  C   UNL     1       3.948   6.479  -0.548  0.00  0.00    +0.025 A 
ATOM     12  C   UNL     1       3.701   7.768  -0.114  0.00  0.00    +0.040 A 
ATOM     13  N   UNL     1       2.724   8.565  -0.720  0.00  0.00    -0.303 N 
ATOM     14  C   UNL     1       1.514   8.885   0.031  0.00  0.00    +0.329 C 
ATOM     15  O   UNL     1       1.807   9.248   1.376  0.00  0.00    -0.445 OA
ATOM     16 BR   UNL     1       6.907   5.147   2.030  0.00  0.00    -0.050 Br
ATOM     17  H   UNL     1       2.849   8.899  -1.622  0.00  0.00    +0.150 HD
ENDROOT
BRANCH  14  18
ATOM     18  C   UNL     1       0.607   7.682   0.034  0.00  0.00    +0.165 A 
ATOM     19  C   UNL     1      -0.740   7.714   0.048  0.00  0.00    +0.051 A 
ATOM     20  C   UNL     1      -1.185   6.377   0.040  0.00  0.00    +0.050 A 
ATOM     21  C   UNL     1      -0.074   5.594   0.031  0.00  0.00    +0.135 A 
ATOM     22  O   UNL     1       1.006   6.399   0.024  0.00  0.00    -0.454 OA
BRANCH  21  23
ATOM     23  C   UNL     1      -0.054   4.117   0.024  0.00  0.00    +0.017 A 
ATOM     24  C   UNL     1       1.163   3.433   0.009  0.00  0.00    +0.014 A 
ATOM     25  C   UNL     1       1.176   2.053   0.002  0.00  0.00    +0.039 A 
ATOM     26  C   UNL     1      -0.016   1.347   0.009  0.00  0.00    +0.123 A 
ATOM     27  C   UNL     1      -1.227   2.021   0.019  0.00  0.00    +0.039 A 
ATOM     28  C   UNL     1      -1.252   3.400   0.031  0.00  0.00    +0.014 A 
ATOM     29  F   UNL     1       0.002  -0.004   0.002  0.00  0.00    -0.205 F 
ENDBRANCH  21  23
ENDBRANCH  14  18
BRANCH   1  30
ATOM     30  S   UNL     1       3.357  13.843   2.637  0.00  0.00    -0.084 S 
BRANCH  30  31
ATOM     31  C   UNL     1       5.063  14.439   2.739  0.00  0.00    +0.077 C 
BRANCH  31  32
ATOM     32  C   UNL     1       5.065  15.909   3.164  0.00  0.00    +0.011 C 
BRANCH  32  34
ATOM     33  C   UNL     1       6.509  17.882   3.676  0.00  0.00    +0.004 C 
ATOM     34  C   UNL     1       6.507  16.412   3.251  0.00  0.00    -0.003 C 
ENDBRANCH  32  34
ENDBRANCH  31  32
ENDBRANCH  30  31
ENDBRANCH   1  30
TORSDOF 6
