REMARK  Name = ZINC65301298
REMARK  8 active torsions:
REMARK  status: ('A' for Active; 'I' for Inactive)
REMARK    1  A    between atoms: C_1  and  C_2
REMARK    2  A    between atoms: C_2  and  C_3
REMARK    3  A    between atoms: C_6  and  C_9
REMARK    4  A    between atoms: C_9  and  N_10
REMARK    5  A    between atoms: C_11  and  C_13
REMARK    6  A    between atoms: N_16  and  C_19
REMARK    7  A    between atoms: C_20  and  C_29
REMARK    8  A    between atoms: C_25  and  C_28
REMARK                            x       y       z     vdW  Elec       q    Type
REMARK                         _______ _______ _______ _____ _____    ______ ____
ROOT
ATOM      1  C   UNL     1      -8.888   0.075  -0.102  0.00  0.00    +0.078 C 
ATOM      2  C   UNL     1      -8.590   0.768   1.230  0.00  0.00    +0.031 C 
ATOM      3  C   UNL     1      -9.407   2.061   1.322  0.00  0.00    +0.106 C 
ATOM      4  N   UNL     1     -10.825   1.740   1.113  0.00  0.00    -0.329 N 
ATOM      5  C   UNL     1     -11.210   0.995  -0.094  0.00  0.00    +0.106 C 
ATOM      6  C   UNL     1     -10.374  -0.286  -0.170  0.00  0.00    +0.031 C 
ENDROOT
BRANCH   4   7
ATOM      7  C   UNL     1     -11.777   2.131   2.031  0.00  0.00    +0.055 A 
ATOM      8  C   UNL     1     -12.086   1.322   3.134  0.00  0.00    +0.074 A 
ATOM      9  C   UNL     1     -13.056   1.736   4.055  0.00  0.00    +0.098 A 
ATOM     10  N   UNL     1     -13.683   2.882   3.895  0.00  0.00    -0.353 N 
ATOM     11  C   UNL     1     -13.427   3.674   2.875  0.00  0.00    +0.107 A 
ATOM     12  C   UNL     1     -12.464   3.365   1.886  0.00  0.00    +0.050 A 
ATOM     13  C   UNL     1     -12.357   4.360   0.899  0.00  0.00    +0.058 A 
ATOM     14  N   UNL     1     -13.089   5.429   0.953  0.00  0.00    -0.213 NA
ATOM     15  S   UNL     1     -14.037   5.247   2.323  0.00  0.00    +0.030 S 
ATOM     16  C   UNL     1     -11.379   4.182  -0.234  0.00  0.00    +0.067 C 
ATOM     17  H   UNL     1     -14.351   3.150   4.545  0.00  0.00    +0.166 HD
BRANCH   8  18
ATOM     18  C   UNL     1     -11.392   0.038   3.323  0.00  0.00    +0.250 C 
ATOM     19  O   UNL     1     -10.185   0.016   3.478  0.00  0.00    -0.270 OA
ATOM     20  N   UNL     1     -12.092  -1.113   3.323  0.00  0.00    -0.293 N 
ATOM     21  C   UNL     1     -13.561  -1.106   3.238  0.00  0.00    +0.136 C 
ATOM     22  C   UNL     1     -13.985  -2.068   2.122  0.00  0.00    +0.179 C 
ATOM     23  O   UNL     1     -13.368  -3.339   2.336  0.00  0.00    -0.377 OA
ATOM     24  C   UNL     1     -11.940  -3.312   2.284  0.00  0.00    +0.179 C 
ATOM     25  C   UNL     1     -11.410  -2.415   3.403  0.00  0.00    +0.136 C 
ENDBRANCH   8  18
ENDBRANCH   4   7
BRANCH   1  27
ATOM     26  N   UNL     1      -6.715  -1.105  -0.175  0.00  0.00    -0.311 N 
ATOM     27  C   UNL     1      -8.061  -1.180  -0.211  0.00  0.00    +0.216 C 
ATOM     28  O   UNL     1      -8.605  -2.256  -0.332  0.00  0.00    -0.276 OA
ATOM     29  H   UNL     1      -6.280  -0.244  -0.078  0.00  0.00    +0.149 HD
BRANCH  26  30
ATOM     30  C   UNL     1      -5.911  -2.325  -0.281  0.00  0.00    +0.139 C 
BRANCH  30  34
ATOM     31  C   UNL     1      -1.764  -1.321  -0.090  0.00  0.00    -0.048 A 
ATOM     32  C   UNL     1      -2.461  -1.602   1.070  0.00  0.00    +0.004 A 
ATOM     33  C   UNL     1      -3.803  -1.927   1.008  0.00  0.00    +0.005 A 
ATOM     34  C   UNL     1      -4.448  -1.970  -0.213  0.00  0.00    -0.030 A 
ATOM     35  C   UNL     1      -3.752  -1.687  -1.373  0.00  0.00    +0.005 A 
ATOM     36  C   UNL     1      -2.411  -1.358  -1.311  0.00  0.00    +0.004 A 
BRANCH  31  38
ATOM     37  C   UNL     1      -0.149   0.548   0.139  0.00  0.00    +0.009 C 
ATOM     38  C   UNL     1      -0.301  -0.966  -0.023  0.00  0.00    +0.032 C 
ENDBRANCH  31  38
ENDBRANCH  30  34
ENDBRANCH  26  30
ENDBRANCH   1  27
TORSDOF 6
