REMARK  Name = ZINC12702880
REMARK  11 active torsions:
REMARK  status: ('A' for Active; 'I' for Inactive)
REMARK    1  A    between atoms: C_1  and  C_2
REMARK    2  A    between atoms: C_7  and  N_8
REMARK    3  A    between atoms: N_8  and  C_9
REMARK    4  A    between atoms: C_9  and  C_11
REMARK    5  A    between atoms: C_9  and  C_18
REMARK    6  A    between atoms: C_14  and  O_17
REMARK    7  A    between atoms: N_20  and  C_21
REMARK    8  A    between atoms: C_26  and  C_28
REMARK    9  A    between atoms: C_28  and  N_29
REMARK   10  A    between atoms: C_31  and  C_34
REMARK   11  A    between atoms: C_37  and  C_39
REMARK                            x       y       z     vdW  Elec       q    Type
REMARK                         _______ _______ _______ _____ _____    ______ ____
ROOT
ATOM      1  N   UNL     1      -0.104   1.508  -0.380  0.00  0.00    -0.254 N 
ATOM      2  C   UNL     1      -1.200   2.264  -0.169  0.00  0.00    +0.244 C 
ATOM      3  O   UNL     1      -1.082   3.419   0.180  0.00  0.00    -0.273 OA
ENDROOT
BRANCH   1  10
ATOM      4  C   UNL     1      -0.022   0.930  -3.165  0.00  0.00    +0.045 C 
ATOM      5  C   UNL     1      -0.207  -0.151  -2.132  0.00  0.00    -0.029 A 
ATOM      6  C   UNL     1      -0.336  -1.469  -2.526  0.00  0.00    +0.005 A 
ATOM      7  C   UNL     1      -0.511  -2.461  -1.579  0.00  0.00    +0.000 A 
ATOM      8  C   UNL     1      -0.551  -2.139  -0.234  0.00  0.00    +0.002 A 
ATOM      9  C   UNL     1      -0.416  -0.824   0.166  0.00  0.00    +0.024 A 
ATOM     10  C   UNL     1      -0.241   0.175  -0.782  0.00  0.00    +0.040 A 
ENDBRANCH   1  10
BRANCH   1  11
ATOM     11  C   UNL     1       1.230   2.084  -0.193  0.00  0.00    +0.197 C 
BRANCH  11  12
ATOM     12  C   UNL     1       2.273   1.086  -0.625  0.00  0.00    -0.018 A 
ATOM     13  C   UNL     1       2.396  -0.117   0.046  0.00  0.00    +0.009 A 
ATOM     14  C   UNL     1       3.348  -1.036  -0.352  0.00  0.00    +0.046 A 
ATOM     15  C   UNL     1       4.188  -0.747  -1.417  0.00  0.00    +0.117 A 
ATOM     16  C   UNL     1       4.066   0.464  -2.084  0.00  0.00    +0.046 A 
ATOM     17  C   UNL     1       3.109   1.377  -1.687  0.00  0.00    +0.009 A 
BRANCH  15  18
ATOM     18  O   UNL     1       5.129  -1.646  -1.806  0.00  0.00    -0.507 OA
ATOM     19  H   UNL     1       5.981  -1.541  -1.361  0.00  0.00    +0.292 HD
ENDBRANCH  15  18
ENDBRANCH  11  12
BRANCH  11  20
ATOM     20  C   UNL     1       1.431   2.424   1.261  0.00  0.00    +0.239 C 
ATOM     21  O   UNL     1       0.547   2.207   2.063  0.00  0.00    -0.273 OA
ATOM     22  N   UNL     1       2.593   2.970   1.671  0.00  0.00    -0.311 N 
ATOM     23  H   UNL     1       3.300   3.144   1.030  0.00  0.00    +0.149 HD
BRANCH  22  24
ATOM     24  C   UNL     1       2.789   3.300   3.084  0.00  0.00    +0.073 C 
ATOM     25  C   UNL     1       2.271   4.725   3.371  0.00  0.00    +0.022 C 
ATOM     26  C   UNL     1       3.279   5.297   4.398  0.00  0.00    +0.002 C 
ATOM     27  C   UNL     1       4.632   4.729   3.902  0.00  0.00    +0.002 C 
ATOM     28  C   UNL     1       4.290   3.303   3.422  0.00  0.00    +0.022 C 
ENDBRANCH  22  24
ENDBRANCH  11  20
ENDBRANCH   1  11
BRANCH   2  29
ATOM     29  C   UNL     1      -2.573   1.673  -0.367  0.00  0.00    +0.264 C 
BRANCH  29  30
ATOM     30  N   UNL     1      -3.588   2.688  -0.077  0.00  0.00    -0.154 N 
ATOM     31  N   UNL     1      -4.123   2.899   1.077  0.00  0.00    -0.127 NA
ATOM     32  C   UNL     1      -4.987   3.888   0.946  0.00  0.00    +0.239 A 
ATOM     33  N   UNL     1      -4.953   4.260  -0.343  0.00  0.00    -0.105 NA
ATOM     34  N   UNL     1      -4.089   3.506  -0.935  0.00  0.00    -0.045 NA
BRANCH  32  35
ATOM     35  C   UNL     1      -5.830   4.471   2.012  0.00  0.00    +0.175 A 
ATOM     36  C   UNL     1      -6.715   5.492   1.860  0.00  0.00    +0.053 A 
ATOM     37  C   UNL     1      -7.296   5.718   3.124  0.00  0.00    +0.045 A 
ATOM     38  C   UNL     1      -6.736   4.838   3.978  0.00  0.00    +0.103 A 
ATOM     39  O   UNL     1      -5.851   4.087   3.302  0.00  0.00    -0.457 OA
ATOM     40  C   UNL     1      -7.050   4.718   5.447  0.00  0.00    +0.086 C 
ENDBRANCH  32  35
ENDBRANCH  29  30
ENDBRANCH   2  29
TORSDOF 9
