REMARK  Name = ZINC64219435
REMARK  8 active torsions:
REMARK  status: ('A' for Active; 'I' for Inactive)
REMARK    1  A    between atoms: C_1  and  C_2
REMARK    2  A    between atoms: C_2  and  C_3
REMARK    3  A    between atoms: C_2  and  C_4
REMARK    4  A    between atoms: C_4  and  C_5
REMARK    5  A    between atoms: C_4  and  N_18
REMARK    6  A    between atoms: C_5  and  N_6
REMARK    7  A    between atoms: N_9  and  N_10
REMARK    8  A    between atoms: C_11  and  C_13
REMARK                            x       y       z     vdW  Elec       q    Type
REMARK                         _______ _______ _______ _____ _____    ______ ____
ROOT
ATOM      1  N   UNL     1      -2.554  -2.691  -0.017  0.00  0.00    -0.300 N 
ATOM      2  C   UNL     1      -2.663  -4.031   0.082  0.00  0.00    +0.316 C 
ATOM      3  O   UNL     1      -1.682  -4.704   0.335  0.00  0.00    -0.251 OA
ATOM      4  N   UNL     1      -3.859  -4.625  -0.099  0.00  0.00    -0.218 N 
ATOM      5  H   UNL     1      -3.336  -2.155  -0.218  0.00  0.00    +0.150 HD
ATOM      6  H   UNL     1      -3.937  -5.589  -0.027  0.00  0.00    +0.174 HD
ENDROOT
BRANCH   4   7
ATOM      7  N   UNL     1      -4.989  -3.850  -0.390  0.00  0.00    -0.229 N 
ATOM      8  C   UNL     1      -6.185  -4.444  -0.570  0.00  0.00    +0.263 C 
ATOM      9  O   UNL     1      -6.283  -5.653  -0.481  0.00  0.00    -0.269 OA
ATOM     10  H   UNL     1      -4.911  -2.886  -0.461  0.00  0.00    +0.173 HD
BRANCH   8  11
ATOM     11  C   UNL     1      -7.374  -3.629  -0.876  0.00  0.00    +0.076 A 
ATOM     12  C   UNL     1      -8.747  -4.107  -1.096  0.00  0.00    +0.054 A 
ATOM     13  C   UNL     1      -9.484  -3.013  -1.341  0.00  0.00    +0.195 A 
ATOM     14  O   UNL     1      -8.693  -1.930  -1.291  0.00  0.00    -0.470 OA
ATOM     15  C   UNL     1      -7.432  -2.273  -1.009  0.00  0.00    +0.208 A 
ENDBRANCH   8  11
ENDBRANCH   4   7
BRANCH   1  16
ATOM     16  C   UNL     1      -1.254  -2.045   0.180  0.00  0.00    +0.091 C 
BRANCH  16  17
ATOM     17  C   UNL     1      -1.368  -0.556  -0.153  0.00  0.00    -0.048 C 
BRANCH  17  18
ATOM     18  N   UNL     1      -1.641  -0.395  -1.587  0.00  0.00    +0.383 N 
ATOM     19  C   UNL     1      -3.013  -0.863  -1.865  0.00  0.00    -0.078 C 
ATOM     20  C   UNL     1      -3.505  -0.175  -3.113  0.00  0.00    -0.019 C 
ATOM     21  C   UNL     1      -3.295  -1.053  -4.361  0.00  0.00    -0.002 C 
ATOM     22  C   UNL     1      -1.933  -1.775  -4.330  0.00  0.00    -0.002 C 
ATOM     23  C   UNL     1      -0.822  -0.886  -3.831  0.00  0.00    -0.019 C 
ATOM     24  C   UNL     1      -0.664  -1.084  -2.309  0.00  0.00    -0.078 C 
ATOM     25  H   UNL     1      -1.582   0.586  -1.819  0.00  0.00    -0.081 HD
ENDBRANCH  17  18
BRANCH  17  27
ATOM     26  C   UNL     1      -0.134   1.614  -0.229  0.00  0.00    +0.005 C 
ATOM     27  C   UNL     1      -0.057   0.148   0.200  0.00  0.00    -0.029 C 
ATOM     28  C   UNL     1       0.174   0.069   1.710  0.00  0.00    +0.005 C 
ENDBRANCH  17  27
ENDBRANCH  16  17
ENDBRANCH   1  16
TORSDOF 6
