REMARK  Name = ZINC09365852
REMARK  7 active torsions:
REMARK  status: ('A' for Active; 'I' for Inactive)
REMARK    1  A    between atoms: C_1  and  C_2
REMARK    2  A    between atoms: C_2  and  C_4
REMARK    3  A    between atoms: C_2  and  S_16
REMARK    4  A    between atoms: S_16  and  C_17
REMARK    5  A    between atoms: C_20  and  C_29
REMARK    6  A    between atoms: N_21  and  C_22
REMARK    7  A    between atoms: C_22  and  C_23
REMARK                            x       y       z     vdW  Elec       q    Type
REMARK                         _______ _______ _______ _____ _____    ______ ____
ROOT
ATOM      1  C   UNL     1       1.386  -6.909  -0.805  0.00  0.00    +0.193 A 
ATOM      2  N   UNL     1       0.408  -7.655  -0.341  0.00  0.00    -0.122 NA
ATOM      3  N   UNL     1       0.563  -8.872  -0.722  0.00  0.00    -0.128 NA
ATOM      4  C   UNL     1       1.653  -8.981  -1.444  0.00  0.00    +0.165 A 
ATOM      5  N   UNL     1       2.214  -7.727  -1.520  0.00  0.00    -0.300 N 
ENDROOT
BRANCH   4   6
ATOM      6  C   UNL     1       2.180 -10.217  -2.060  0.00  0.00    +0.019 A 
ATOM      7  C   UNL     1       1.353 -11.332  -2.211  0.00  0.00    +0.013 A 
ATOM      8  C   UNL     1       1.848 -12.481  -2.791  0.00  0.00    +0.021 A 
ATOM      9  C   UNL     1       3.165 -12.534  -3.215  0.00  0.00    +0.041 A 
ATOM     10  C   UNL     1       3.992 -11.433  -3.063  0.00  0.00    +0.021 A 
ATOM     11  C   UNL     1       3.507 -10.277  -2.489  0.00  0.00    +0.013 A 
ATOM     12 CL   UNL     1       3.783 -13.986  -3.938  0.00  0.00    -0.084 Cl
ENDBRANCH   4   6
BRANCH   1  13
ATOM     13  S   UNL     1       1.595  -5.179  -0.546  0.00  0.00    -0.075 S 
BRANCH  13  15
ATOM     14  C   UNL     1       0.254  -5.569   1.802  0.00  0.00    +0.027 C 
ATOM     15  C   UNL     1       0.134  -4.834   0.466  0.00  0.00    +0.117 C 
BRANCH  15  16
ATOM     16  C   UNL     1       0.034  -3.351   0.715  0.00  0.00    +0.124 A 
ATOM     17  N   UNL     1      -1.201  -2.790   0.777  0.00  0.00    -0.309 N 
ATOM     18  H   UNL     1      -1.988  -3.345   0.662  0.00  0.00    +0.170 HD
ATOM     19  C   UNL     1      -1.345  -1.462   1.000  0.00  0.00    +0.259 A 
ATOM     20  O   UNL     1      -2.445  -0.946   1.059  0.00  0.00    -0.267 OA
ATOM     21  C   UNL     1      -0.119  -0.668   1.169  0.00  0.00    +0.065 A 
ATOM     22  C   UNL     1      -0.156   0.705   1.403  0.00  0.00    +0.015 A 
ATOM     23  C   UNL     1       1.024   1.400   1.554  0.00  0.00    +0.001 A 
ATOM     24  C   UNL     1       2.245   0.744   1.475  0.00  0.00    +0.002 A 
ATOM     25  C   UNL     1       2.304  -0.612   1.245  0.00  0.00    +0.028 A 
ATOM     26  C   UNL     1       1.122  -1.339   1.088  0.00  0.00    +0.078 A 
ATOM     27  N   UNL     1       1.134  -2.676   0.860  0.00  0.00    -0.233 NA
ENDBRANCH  15  16
ENDBRANCH  13  15
ENDBRANCH   1  13
BRANCH   5  28
ATOM     28  C   UNL     1       3.444  -7.348  -2.221  0.00  0.00    +0.157 C 
BRANCH  28  29
ATOM     29  C   UNL     1       4.608  -7.320  -1.229  0.00  0.00    +0.138 C 
ATOM     30  C   UNL     1       5.908  -6.916  -1.958  0.00  0.00    +0.035 C 
ATOM     31  C   UNL     1       6.962  -7.840  -1.289  0.00  0.00    +0.031 C 
ATOM     32  C   UNL     1       6.115  -9.111  -1.028  0.00  0.00    +0.160 C 
ATOM     33  O   UNL     1       4.809  -8.627  -0.678  0.00  0.00    -0.375 OA
ENDBRANCH  28  29
ENDBRANCH   5  28
TORSDOF 6
