REMARK  Name = ZINC16011519
REMARK  4 active torsions:
REMARK  status: ('A' for Active; 'I' for Inactive)
REMARK    1  A    between atoms: C_1  and  C_2
REMARK    2  A    between atoms: C_12  and  C_29
REMARK    3  A    between atoms: C_29  and  C_31
REMARK    4  A    between atoms: C_35  and  N_37
REMARK                            x       y       z     vdW  Elec       q    Type
REMARK                         _______ _______ _______ _____ _____    ______ ____
ROOT
ATOM      1  C   UNL     1      -5.367   7.175   2.076  0.00  0.00    +0.045 C 
ATOM      2  C   UNL     1      -4.888   5.803   2.474  0.00  0.00    -0.029 A 
ATOM      3  C   UNL     1      -5.640   5.036   3.340  0.00  0.00    +0.005 A 
ATOM      4  C   UNL     1      -5.210   3.776   3.711  0.00  0.00    +0.001 A 
ATOM      5  C   UNL     1      -4.019   3.279   3.210  0.00  0.00    +0.004 A 
ATOM      6  C   UNL     1      -3.266   4.041   2.345  0.00  0.00    -0.027 A 
ATOM      7  C   UNL     1      -3.689   5.311   1.965  0.00  0.00    +0.039 A 
ATOM      8  N   UNL     1      -2.765   5.885   1.090  0.00  0.00    -0.286 N 
ATOM      9  C   UNL     1      -1.721   5.071   0.847  0.00  0.00    +0.212 C 
ATOM     10  O   UNL     1      -0.771   5.308   0.131  0.00  0.00    -0.277 OA
ATOM     11  C   UNL     1      -1.959   3.807   1.636  0.00  0.00    +0.052 C 
ATOM     12  C   UNL     1      -0.825   3.577   2.642  0.00  0.00    +0.080 C 
ATOM     13  C   UNL     1      -0.009   2.428   2.031  0.00  0.00    +0.071 C 
ATOM     14  C   UNL     1       0.597   1.555   3.092  0.00  0.00    -0.012 A 
ATOM     15  C   UNL     1       0.071   0.801   4.117  0.00  0.00    +0.006 A 
ATOM     16  C   UNL     1       0.910   0.084   4.952  0.00  0.00    +0.000 A 
ATOM     17  C   UNL     1       2.278   0.126   4.753  0.00  0.00    +0.002 A 
ATOM     18  C   UNL     1       2.810   0.879   3.727  0.00  0.00    +0.023 A 
ATOM     19  C   UNL     1       1.972   1.603   2.882  0.00  0.00    +0.038 A 
ATOM     20  N   UNL     1       2.266   2.425   1.791  0.00  0.00    -0.285 N 
ATOM     21  C   UNL     1       1.156   2.947   1.234  0.00  0.00    +0.227 C 
ATOM     22  O   UNL     1       1.106   3.690   0.278  0.00  0.00    -0.275 OA
ATOM     23  C   UNL     1      -1.001   1.665   1.161  0.00  0.00    -0.046 C 
ATOM     24  C   UNL     1      -1.681   3.063  -0.635  0.00  0.00    -0.076 C 
ATOM     25  C   UNL     1      -1.094   1.785  -1.280  0.00  0.00    -0.020 C 
ATOM     26  C   UNL     1      -0.326   1.130  -0.109  0.00  0.00    -0.016 C 
ATOM     27  H   UNL     1      -2.864   6.769   0.702  0.00  0.00    +0.155 HD
ATOM     28  H   UNL     1       3.165   2.599   1.472  0.00  0.00    +0.155 HD
ATOM     29  N   UNL     1      -2.006   2.638   0.737  0.00  0.00    +0.395 N 
ATOM     30  H   UNL     1      -2.941   2.215   0.763  0.00  0.00    -0.079 HD
ENDROOT
BRANCH  12  31
ATOM     31  C   UNL     1      -1.383   3.173   3.983  0.00  0.00    +0.167 C 
ATOM     32  O   UNL     1      -2.036   2.157   4.086  0.00  0.00    -0.292 OA
BRANCH  31  33
ATOM     33  C   UNL     1      -1.134   4.012   5.166  0.00  0.00    +0.020 A 
ATOM     34  C   UNL     1      -0.381   5.185   5.051  0.00  0.00    +0.011 A 
ATOM     35  C   UNL     1      -0.153   5.966   6.164  0.00  0.00    +0.003 A 
ATOM     36  C   UNL     1      -0.668   5.592   7.393  0.00  0.00    +0.033 A 
ATOM     37  C   UNL     1      -1.413   4.433   7.516  0.00  0.00    +0.127 A 
ATOM     38  C   UNL     1      -1.655   3.644   6.410  0.00  0.00    +0.044 A 
BRANCH  37  39
ATOM     39  N   UNL     1      -1.959   4.042   8.835  0.00  0.00    +0.056 N 
ATOM     40  O   UNL     1      -1.751   4.740   9.811  0.00  0.00    -0.126 OA
ATOM     41  O   UNL     1      -2.615   3.022   8.944  0.00  0.00    -0.126 OA
ENDBRANCH  37  39
ENDBRANCH  31  33
ENDBRANCH  12  31
TORSDOF 3
