REMARK  Name = ZINC09386331
REMARK  7 active torsions:
REMARK  status: ('A' for Active; 'I' for Inactive)
REMARK    1  A    between atoms: C_1  and  C_2
REMARK    2  A    between atoms: C_2  and  C_3
REMARK    3  A    between atoms: C_3  and  C_30
REMARK    4  A    between atoms: N_6  and  N_10
REMARK    5  A    between atoms: C_11  and  C_13
REMARK    6  A    between atoms: C_13  and  N_63
REMARK    7  A    between atoms: C_16  and  N_19
REMARK                            x       y       z     vdW  Elec       q    Type
REMARK                         _______ _______ _______ _____ _____    ______ ____
ROOT
ATOM      1  N   UNL     1      -6.795  -3.182   1.322  0.00  0.00    -0.225 N 
ATOM      2  C   UNL     1      -5.686  -2.440   1.128  0.00  0.00    +0.213 C 
ATOM      3  O   UNL     1      -4.723  -2.589   1.850  0.00  0.00    -0.276 OA
ATOM      4  H   UNL     1      -7.565  -3.062   0.745  0.00  0.00    +0.173 HD
ENDROOT
BRANCH   1   8
ATOM      5  C   UNL     1      -7.269  -5.215   4.317  0.00  0.00    +0.139 C 
ATOM      6  C   UNL     1      -7.510  -3.954   3.511  0.00  0.00    +0.268 C 
ATOM      7  O   UNL     1      -8.172  -2.992   3.837  0.00  0.00    -0.271 OA
ATOM      8  N   UNL     1      -6.834  -4.125   2.358  0.00  0.00    -0.137 N 
ATOM      9  C   UNL     1      -6.210  -5.308   2.321  0.00  0.00    +0.327 C 
ATOM     10  O   UNL     1      -5.541  -5.689   1.381  0.00  0.00    -0.251 OA
ATOM     11  N   UNL     1      -6.404  -6.026   3.442  0.00  0.00    -0.280 N 
ATOM     12  H   UNL     1      -6.048  -6.907   3.635  0.00  0.00    +0.152 HD
BRANCH   5  13
ATOM     13  C   UNL     1      -8.569  -5.927   4.590  0.00  0.00    -0.015 A 
ATOM     14  C   UNL     1      -9.284  -5.644   5.738  0.00  0.00    +0.006 A 
ATOM     15  C   UNL     1     -10.479  -6.294   5.986  0.00  0.00    +0.000 A 
ATOM     16  C   UNL     1     -10.954  -7.233   5.089  0.00  0.00    +0.000 A 
ATOM     17  C   UNL     1     -10.236  -7.519   3.943  0.00  0.00    +0.000 A 
ATOM     18  C   UNL     1      -9.044  -6.866   3.693  0.00  0.00    +0.006 A 
ENDBRANCH   5  13
BRANCH   5  20
ATOM     19  C   UNL     1      -5.212  -4.214   5.322  0.00  0.00    +0.007 C 
ATOM     20  C   UNL     1      -6.552  -4.888   5.628  0.00  0.00    +0.037 C 
ENDBRANCH   5  20
ENDBRANCH   1   8
BRANCH   2  21
ATOM     21  C   UNL     1      -5.643  -1.426   0.014  0.00  0.00    +0.020 C 
BRANCH  21  27
ATOM     22  C   UNL     1      -4.168   0.066  -1.193  0.00  0.00    -0.076 C 
ATOM     23  C   UNL     1      -2.746   0.631  -1.232  0.00  0.00    +0.006 C 
ATOM     24  C   UNL     1      -2.504   1.477   0.021  0.00  0.00    +0.089 C 
ATOM     25  C   UNL     1      -2.734   0.612   1.263  0.00  0.00    +0.006 C 
ATOM     26  C   UNL     1      -4.155   0.047   1.230  0.00  0.00    -0.076 C 
ATOM     27  N   UNL     1      -4.316  -0.777   0.013  0.00  0.00    +0.386 N 
ATOM     28  H   UNL     1      -3.590  -1.502   0.004  0.00  0.00    -0.081 HD
BRANCH  24  29
ATOM     29  N   UNL     1      -1.125   1.973   0.018  0.00  0.00    -0.289 N 
ATOM     30  C   UNL     1      -0.741   3.312   0.026  0.00  0.00    +0.070 A 
ATOM     31  C   UNL     1      -1.448   4.505   0.038  0.00  0.00    +0.028 A 
ATOM     32  C   UNL     1      -0.768   5.707   0.038  0.00  0.00    +0.002 A 
ATOM     33  C   UNL     1       0.617   5.726   0.026  0.00  0.00    +0.002 A 
ATOM     34  C   UNL     1       1.329   4.543   0.013  0.00  0.00    +0.028 A 
ATOM     35  C   UNL     1       0.655   3.331   0.013  0.00  0.00    +0.067 A 
ATOM     36  N   UNL     1       1.076   2.003   0.003  0.00  0.00    -0.306 N 
ATOM     37  H   UNL     1       1.997   1.699  -0.007  0.00  0.00    +0.170 HD
ATOM     38  C   UNL     1      -0.014   1.213   0.009  0.00  0.00    +0.328 A 
ATOM     39  O   UNL     1       0.002  -0.004   0.002  0.00  0.00    -0.247 OA
ENDBRANCH  24  29
ENDBRANCH  21  27
ENDBRANCH   2  21
TORSDOF 6
