REMARK  Name = ZINC41004131
REMARK  12 active torsions:
REMARK  status: ('A' for Active; 'I' for Inactive)
REMARK    1  A    between atoms: C_1  and  C_2
REMARK    2  A    between atoms: C_2  and  S_3
REMARK    3  A    between atoms: S_3  and  C_4
REMARK    4  A    between atoms: C_9  and  C_21
REMARK    5  A    between atoms: C_15  and  C_19
REMARK    6  A    between atoms: C_15  and  C_20
REMARK    7  A    between atoms: C_24  and  O_29
REMARK    8  A    between atoms: C_25  and  O_27
REMARK    9  A    between atoms: O_27  and  C_28
REMARK   10  A    between atoms: O_29  and  C_30
REMARK   11  A    between atoms: C_30  and  C_31
REMARK   12  A    between atoms: C_36  and  C_37
REMARK                            x       y       z     vdW  Elec       q    Type
REMARK                         _______ _______ _______ _____ _____    ______ ____
ROOT
ATOM      1  C   UNL     1       0.792  -2.345  -1.354  0.00  0.00    +0.210 A 
ATOM      2  N   UNL     1       0.226  -3.029  -0.349  0.00  0.00    -0.187 NA
ATOM      3  C   UNL     1       0.359  -4.309  -0.564  0.00  0.00    +0.219 A 
ATOM      4  N   UNL     1       1.032  -4.474  -1.730  0.00  0.00    -0.220 N 
ATOM      5  N   UNL     1       1.292  -3.196  -2.224  0.00  0.00    -0.141 NA
ATOM      6  C   UNL     1       1.371  -5.779  -2.283  0.00  0.00    +0.176 C 
ATOM      7  C   UNL     1       0.587  -6.861  -1.575  0.00  0.00    +0.041 C 
ATOM      8  C   UNL     1      -0.063  -6.633  -0.413  0.00  0.00    +0.020 C 
ATOM      9  N   UNL     1      -0.066  -5.395   0.184  0.00  0.00    -0.287 N 
ATOM     10  C   UNL     1      -0.818  -7.740   0.284  0.00  0.00    +0.058 C 
ATOM     11  C   UNL     1      -1.375  -8.715  -0.755  0.00  0.00    -0.023 C 
ATOM     12  C   UNL     1      -0.203  -9.274  -1.569  0.00  0.00    +0.086 C 
ATOM     13  C   UNL     1       0.558  -8.130  -2.179  0.00  0.00    +0.164 C 
ATOM     14  O   UNL     1       1.162  -8.306  -3.220  0.00  0.00    -0.292 OA
ATOM     15  C   UNL     1      -2.104  -9.860  -0.049  0.00  0.00    +0.011 C 
ATOM     16  C   UNL     1      -2.344  -7.981  -1.684  0.00  0.00    +0.011 C 
ATOM     17  H   UNL     1      -0.356  -5.285   1.103  0.00  0.00    +0.155 HD
ENDROOT
BRANCH   6  18
ATOM     18  C   UNL     1       2.846  -6.031  -2.100  0.00  0.00    -0.015 A 
ATOM     19  C   UNL     1       3.388  -6.058  -0.829  0.00  0.00    +0.010 A 
ATOM     20  C   UNL     1       4.740  -6.290  -0.655  0.00  0.00    +0.050 A 
ATOM     21  C   UNL     1       5.555  -6.495  -1.757  0.00  0.00    +0.162 A 
ATOM     22  C   UNL     1       5.009  -6.468  -3.037  0.00  0.00    +0.162 A 
ATOM     23  C   UNL     1       3.652  -6.240  -3.203  0.00  0.00    +0.055 A 
BRANCH  22  24
ATOM     24  O   UNL     1       5.804  -6.669  -4.122  0.00  0.00    -0.491 OA
ATOM     25  C   UNL     1       5.175  -6.627  -5.404  0.00  0.00    +0.277 C 
ENDBRANCH  22  24
BRANCH  21  26
ATOM     26  O   UNL     1       6.885  -6.722  -1.589  0.00  0.00    -0.484 OA
BRANCH  26  27
ATOM     27  C   UNL     1       7.376  -6.735  -0.247  0.00  0.00    +0.265 C 
BRANCH  27  28
ATOM     28  C   UNL     1       8.859  -7.000  -0.257  0.00  0.00    -0.007 A 
ATOM     29  C   UNL     1       9.521  -7.177  -1.458  0.00  0.00    +0.007 A 
ATOM     30  C   UNL     1      10.882  -7.420  -1.467  0.00  0.00    +0.000 A 
ATOM     31  C   UNL     1      11.581  -7.484  -0.276  0.00  0.00    +0.000 A 
ATOM     32  C   UNL     1      10.919  -7.305   0.924  0.00  0.00    +0.004 A 
ATOM     33  C   UNL     1       9.559  -7.058   0.933  0.00  0.00    -0.044 A 
ATOM     34  C   UNL     1       8.838  -6.858   2.242  0.00  0.00    +0.044 C 
ENDBRANCH  27  28
ENDBRANCH  26  27
ENDBRANCH  21  26
ENDBRANCH   6  18
BRANCH   1  35
ATOM     35  S   UNL     1       0.851  -0.589  -1.490  0.00  0.00    -0.085 S 
BRANCH  35  37
ATOM     36  C   UNL     1      -0.019   1.526   0.010  0.00  0.00    +0.016 C 
ATOM     37  C   UNL     1       0.002  -0.004   0.002  0.00  0.00    +0.074 C 
ENDBRANCH  35  37
ENDBRANCH   1  35
TORSDOF 7
