REMARK  Name = ZINC39578417
REMARK  7 active torsions:
REMARK  status: ('A' for Active; 'I' for Inactive)
REMARK    1  A    between atoms: C_1  and  C_2
REMARK    2  A    between atoms: C_8  and  N_10
REMARK    3  A    between atoms: C_14  and  C_16
REMARK    4  A    between atoms: C_16  and  S_17
REMARK    5  A    between atoms: S_17  and  C_18
REMARK    6  A    between atoms: C_21  and  C_24
REMARK    7  A    between atoms: N_22  and  N_23
REMARK                            x       y       z     vdW  Elec       q    Type
REMARK                         _______ _______ _______ _____ _____    ______ ____
ROOT
ATOM      1  C   UNL     1       6.152   1.247   3.525  0.00  0.00    +0.173 C 
ENDROOT
BRANCH   1   6
ATOM      2  N   UNL     1       2.116  -0.004   1.231  0.00  0.00    -0.296 N 
ATOM      3  C   UNL     1       2.795   0.128   2.388  0.00  0.00    +0.306 C 
ATOM      4  O   UNL     1       2.267  -0.174   3.440  0.00  0.00    -0.252 OA
ATOM      5  N   UNL     1       4.059   0.594   2.379  0.00  0.00    -0.239 N 
ATOM      6  C   UNL     1       4.738   0.726   3.536  0.00  0.00    +0.231 C 
ATOM      7  O   UNL     1       4.211   0.424   4.585  0.00  0.00    -0.274 OA
ATOM      8  H   UNL     1       2.538   0.237   0.392  0.00  0.00    +0.151 HD
ATOM      9  H   UNL     1       4.481   0.835   1.539  0.00  0.00    +0.159 HD
BRANCH   2  16
ATOM     10  C   UNL     1      -0.019   1.526   0.010  0.00  0.00    +0.009 C 
ATOM     11  C   UNL     1       0.002  -0.004   0.002  0.00  0.00    +0.006 C 
ATOM     12  C   UNL     1       0.718  -0.497  -1.257  0.00  0.00    +0.005 C 
ATOM     13  C   UNL     1       0.739  -2.027  -1.265  0.00  0.00    +0.000 C 
ATOM     14  C   UNL     1       1.479  -2.534  -0.026  0.00  0.00    +0.002 C 
ATOM     15  C   UNL     1       0.763  -2.041   1.233  0.00  0.00    +0.022 C 
ATOM     16  C   UNL     1       0.742  -0.511   1.242  0.00  0.00    +0.077 C 
ENDBRANCH   2  16
ENDBRANCH   1   6
BRANCH   1  17
ATOM     17  S   UNL     1       6.787   1.308   5.223  0.00  0.00    -0.075 S 
BRANCH  17  18
ATOM     18  C   UNL     1       8.426   1.929   5.043  0.00  0.00    +0.209 A 
ATOM     19  N   UNL     1       9.014   2.267   3.919  0.00  0.00    -0.121 NA
ATOM     20  N   UNL     1      10.207   2.680   4.157  0.00  0.00    -0.132 NA
ATOM     21  C   UNL     1      10.450   2.631   5.437  0.00  0.00    +0.154 A 
ATOM     22  N   UNL     1       9.322   2.157   6.048  0.00  0.00    -0.228 N 
BRANCH  21  23
ATOM     23  C   UNL     1      11.734   3.030   6.117  0.00  0.00    +0.059 C 
ATOM     24  C   UNL     1      12.025   4.505   5.835  0.00  0.00    +0.011 C 
ATOM     25  C   UNL     1      13.329   4.909   6.526  0.00  0.00    +0.001 C 
ATOM     26  C   UNL     1      14.477   4.052   5.991  0.00  0.00    +0.000 C 
ATOM     27  C   UNL     1      14.187   2.576   6.273  0.00  0.00    +0.001 C 
ATOM     28  C   UNL     1      12.883   2.172   5.582  0.00  0.00    +0.011 C 
ENDBRANCH  21  23
BRANCH  22  29
ATOM     29  N   UNL     1       9.133   1.951   7.385  0.00  0.00    -0.295 N 
ATOM     30  H   UNL     1       9.408   1.016   7.649  0.00  0.00    +0.163 HD
ATOM     31  H   UNL     1       9.627   2.640   7.931  0.00  0.00    +0.163 HD
ENDBRANCH  22  29
ENDBRANCH  17  18
ENDBRANCH   1  17
TORSDOF 6
