REMARK  Name = ZINC39656107
REMARK  7 active torsions:
REMARK  status: ('A' for Active; 'I' for Inactive)
REMARK    1  A    between atoms: C_1  and  C_2
REMARK    2  A    between atoms: C_9  and  C_16
REMARK    3  A    between atoms: C_11  and  O_12
REMARK    4  A    between atoms: C_16  and  O_17
REMARK    5  A    between atoms: O_17  and  C_18
REMARK    6  A    between atoms: C_18  and  C_20
REMARK    7  A    between atoms: C_23  and  N_26
REMARK                            x       y       z     vdW  Elec       q    Type
REMARK                         _______ _______ _______ _____ _____    ______ ____
ROOT
ATOM      1  O   UNL     1       0.073  -6.663  -3.548  0.00  0.00    -0.456 OA
ENDROOT
BRANCH   1   2
ATOM      2  C   UNL     1       0.199  -7.292  -4.733  0.00  0.00    +0.339 C 
ATOM      3  O   UNL     1       0.167  -8.506  -4.783  0.00  0.00    -0.245 OA
BRANCH   2   4
ATOM      4  C   UNL     1       0.375  -6.508  -5.970  0.00  0.00    +0.059 A 
ATOM      5  C   UNL     1       0.529  -5.120  -5.903  0.00  0.00    +0.017 A 
ATOM      6  C   UNL     1       0.693  -4.391  -7.059  0.00  0.00    +0.025 A 
ATOM      7  C   UNL     1       0.705  -5.033  -8.293  0.00  0.00    +0.045 A 
ATOM      8  C   UNL     1       0.551  -6.414  -8.363  0.00  0.00    +0.025 A 
ATOM      9  C   UNL     1       0.394  -7.151  -7.211  0.00  0.00    +0.017 A 
BRANCH   7  10
ATOM     10  N   UNL     1       0.871  -4.290  -9.464  0.00  0.00    -0.202 N 
ATOM     11  C   UNL     1       1.032  -2.955  -9.502  0.00  0.00    +0.258 C 
ATOM     12  O   UNL     1       1.056  -2.216  -8.538  0.00  0.00    -0.269 OA
ATOM     13  C   UNL     1       1.176  -2.538 -10.912  0.00  0.00    +0.050 A 
ATOM     14  C   UNL     1       1.362  -1.321 -11.547  0.00  0.00    +0.014 A 
ATOM     15  C   UNL     1       1.460  -1.274 -12.929  0.00  0.00    +0.001 A 
ATOM     16  C   UNL     1       1.372  -2.433 -13.677  0.00  0.00    +0.001 A 
ATOM     17  C   UNL     1       1.185  -3.658 -13.056  0.00  0.00    +0.014 A 
ATOM     18  C   UNL     1       1.086  -3.720 -11.675  0.00  0.00    +0.050 A 
ATOM     19  C   UNL     1       0.897  -4.816 -10.702  0.00  0.00    +0.258 C 
ATOM     20  O   UNL     1       0.781  -5.994 -10.974  0.00  0.00    -0.269 OA
ENDBRANCH   7  10
ENDBRANCH   2   4
ENDBRANCH   1   2
BRANCH   1  21
ATOM     21  C   UNL     1       0.008  -7.485  -2.381  0.00  0.00    +0.269 C 
BRANCH  21  30
ATOM     22  C   UNL     1       4.693  -6.677   5.056  0.00  0.00    +0.109 C 
ATOM     23  C   UNL     1       3.598  -6.652   4.022  0.00  0.00    +0.214 C 
ATOM     24  O   UNL     1       2.517  -6.159   4.291  0.00  0.00    -0.276 OA
ATOM     25  N   UNL     1       3.809  -7.164   2.825  0.00  0.00    -0.286 N 
ATOM     26  C   UNL     1       2.869  -7.026   1.850  0.00  0.00    +0.037 A 
ATOM     27  C   UNL     1       2.913  -7.854   0.714  0.00  0.00    +0.024 A 
ATOM     28  C   UNL     1       1.980  -7.726  -0.266  0.00  0.00    +0.014 A 
ATOM     29  C   UNL     1       0.965  -6.761  -0.146  0.00  0.00    +0.024 A 
ATOM     30  C   UNL     1      -0.013  -6.613  -1.153  0.00  0.00    +0.007 A 
ATOM     31  C   UNL     1      -0.989  -5.650  -0.987  0.00  0.00    +0.095 A 
ATOM     32  C   UNL     1      -0.992  -4.856   0.150  0.00  0.00    +0.285 A 
ATOM     33  O   UNL     1      -0.063  -5.000   1.102  0.00  0.00    -0.425 OA
ATOM     34  C   UNL     1       0.913  -5.924   0.991  0.00  0.00    +0.141 A 
ATOM     35  C   UNL     1       1.864  -6.066   1.985  0.00  0.00    +0.070 A 
ATOM     36  H   UNL     1       4.634  -7.639   2.640  0.00  0.00    +0.155 HD
BRANCH  32  37
ATOM     37  O   UNL     1      -1.950  -3.921   0.300  0.00  0.00    -0.480 OA
ATOM     38  H   UNL     1      -1.879  -3.413   1.119  0.00  0.00    +0.295 HD
ENDBRANCH  32  37
ENDBRANCH  21  30
ENDBRANCH   1  21
TORSDOF 6
