REMARK  Name = ZINC24716017
REMARK  11 active torsions:
REMARK  status: ('A' for Active; 'I' for Inactive)
REMARK    1  A    between atoms: C_1  and  C_2
REMARK    2  A    between atoms: C_2  and  O_3
REMARK    3  A    between atoms: O_3  and  C_4
REMARK    4  A    between atoms: C_4  and  C_6
REMARK    5  A    between atoms: C_6  and  C_8
REMARK    6  A    between atoms: C_6  and  N_15
REMARK    7  A    between atoms: C_21  and  C_23
REMARK    8  A    between atoms: C_25  and  N_32
REMARK    9  A    between atoms: C_28  and  N_29
REMARK   10  A    between atoms: N_29  and  C_30
REMARK   11  A    between atoms: N_29  and  C_31
REMARK                            x       y       z     vdW  Elec       q    Type
REMARK                         _______ _______ _______ _____ _____    ______ ____
ROOT
ATOM      1  N   UNL     1      -0.344  -0.364   0.634  0.00  0.00    +0.393 N 
ATOM      2  C   UNL     1      -1.042  -0.882   1.818  0.00  0.00    -0.058 C 
ATOM      3  C   UNL     1      -2.520  -1.101   1.481  0.00  0.00    +0.089 C 
ATOM      4  N   UNL     1      -2.605  -1.955   0.286  0.00  0.00    -0.301 N 
ATOM      5  C   UNL     1      -1.822  -1.573  -0.899  0.00  0.00    +0.089 C 
ATOM      6  C   UNL     1      -0.371  -1.335  -0.468  0.00  0.00    -0.058 C 
ATOM      7  C   UNL     1      -3.380  -3.057   0.277  0.00  0.00    +0.248 C 
ATOM      8  O   UNL     1      -3.957  -3.403   1.290  0.00  0.00    -0.270 OA
ATOM      9  H   UNL     1      -0.878   0.538   0.299  0.00  0.00    -0.080 HD
ENDROOT
BRANCH   7  10
ATOM     10  C   UNL     1      -3.528  -3.844  -0.961  0.00  0.00    +0.060 A 
ATOM     11  C   UNL     1      -3.526  -3.206  -2.204  0.00  0.00    +0.047 A 
ATOM     12  C   UNL     1      -3.659  -3.947  -3.358  0.00  0.00    +0.127 A 
ATOM     13  C   UNL     1      -3.806  -5.324  -3.292  0.00  0.00    +0.034 A 
ATOM     14  C   UNL     1      -3.816  -5.968  -2.072  0.00  0.00    +0.026 A 
ATOM     15  C   UNL     1      -3.678  -5.238  -0.898  0.00  0.00    +0.042 A 
BRANCH  15  16
ATOM     16  N   UNL     1      -3.687  -5.885   0.331  0.00  0.00    -0.335 N 
ATOM     17  C   UNL     1      -4.952  -6.602   0.539  0.00  0.00    +0.129 C 
ATOM     18  C   UNL     1      -2.539  -6.793   0.457  0.00  0.00    +0.129 C 
ENDBRANCH  15  16
BRANCH  12  19
ATOM     19  N   UNL     1      -3.651  -3.270  -4.673  0.00  0.00    +0.056 N 
ATOM     20  O   UNL     1      -3.773  -3.922  -5.695  0.00  0.00    -0.126 OA
ATOM     21  O   UNL     1      -3.521  -2.060  -4.735  0.00  0.00    -0.126 OA
ENDBRANCH  12  19
ENDBRANCH   7  10
BRANCH   1  22
ATOM     22  C   UNL     1       1.035   0.022   0.963  0.00  0.00    +0.073 C 
BRANCH  22  23
ATOM     23  C   UNL     1       1.735   0.495  -0.285  0.00  0.00    -0.050 A 
ATOM     24  C   UNL     1       1.103   1.382  -1.137  0.00  0.00    +0.004 A 
ATOM     25  C   UNL     1       1.747   1.821  -2.279  0.00  0.00    +0.020 A 
ATOM     26  C   UNL     1       3.019   1.364  -2.575  0.00  0.00    +0.041 A 
ATOM     27  C   UNL     1       3.648   0.472  -1.725  0.00  0.00    +0.020 A 
ATOM     28  C   UNL     1       3.006   0.039  -0.581  0.00  0.00    +0.004 A 
ATOM     29 CL   UNL     1       3.825   1.909  -4.013  0.00  0.00    -0.084 Cl
ENDBRANCH  22  23
BRANCH  22  30
ATOM     30  C   UNL     1       1.017   1.133   1.981  0.00  0.00    +0.298 C 
ATOM     31  O   UNL     1       0.077   1.891   2.032  0.00  0.00    -0.252 OA
BRANCH  30  32
ATOM     32  O   UNL     1       2.043   1.277   2.834  0.00  0.00    -0.466 OA
BRANCH  32  34
ATOM     33  C   UNL     1       3.205   2.371   4.673  0.00  0.00    +0.048 C 
ATOM     34  C   UNL     1       1.955   2.365   3.792  0.00  0.00    +0.228 C 
ENDBRANCH  32  34
ENDBRANCH  30  32
ENDBRANCH  22  30
ENDBRANCH   1  22
TORSDOF 8
