REMARK  Name = ZINC35918082
REMARK  14 active torsions:
REMARK  status: ('A' for Active; 'I' for Inactive)
REMARK    1  A    between atoms: C_1  and  C_2
REMARK    2  A    between atoms: C_2  and  C_3
REMARK    3  A    between atoms: C_2  and  C_4
REMARK    4  A    between atoms: C_4  and  N_5
REMARK    5  A    between atoms: N_5  and  C_6
REMARK    6  A    between atoms: C_6  and  C_7
REMARK    7  A    between atoms: N_10  and  C_22
REMARK    8  A    between atoms: C_12  and  C_14
REMARK    9  A    between atoms: C_19  and  O_20
REMARK   10  A    between atoms: O_20  and  C_21
REMARK   11  A    between atoms: C_22  and  C_23
REMARK   12  A    between atoms: C_29  and  C_31
REMARK   13  A    between atoms: C_31  and  C_32
REMARK   14  A    between atoms: C_31  and  C_33
REMARK                            x       y       z     vdW  Elec       q    Type
REMARK                         _______ _______ _______ _____ _____    ______ ____
ROOT
ATOM      1  C   UNL     1      -0.891  -2.136   1.739  0.00  0.00    -0.005 C 
ATOM      2  C   UNL     1      -1.017  -0.601   1.843  0.00  0.00    -0.073 C 
ATOM      3  N   UNL     1      -1.549  -0.361   3.209  0.00  0.00    +0.380 N 
ATOM      4  C   UNL     1      -0.834  -1.349   4.058  0.00  0.00    -0.070 C 
ATOM      5  C   UNL     1      -0.772  -2.630   3.195  0.00  0.00    +0.009 C 
ATOM      6  H   UNL     1      -2.543  -0.527   3.235  0.00  0.00    -0.082 HD
ENDROOT
BRANCH   5   7
ATOM      7  C   UNL     1       0.543  -3.338   3.401  0.00  0.00    -0.004 A 
ATOM      8  C   UNL     1       1.726  -2.628   3.346  0.00  0.00    +0.007 A 
ATOM      9  C   UNL     1       2.933  -3.276   3.535  0.00  0.00    +0.001 A 
ATOM     10  C   UNL     1       2.958  -4.637   3.780  0.00  0.00    +0.004 A 
ATOM     11  C   UNL     1       1.777  -5.352   3.837  0.00  0.00    +0.046 A 
ATOM     12  C   UNL     1       0.565  -4.702   3.653  0.00  0.00    +0.123 A 
BRANCH  12  13
ATOM     13  O   UNL     1      -0.599  -5.402   3.713  0.00  0.00    -0.495 OA
ATOM     14  C   UNL     1      -0.500  -6.803   3.976  0.00  0.00    +0.277 C 
ENDBRANCH  12  13
ENDBRANCH   5   7
BRANCH   1  15
ATOM     15  C   UNL     1       0.361  -2.513   0.945  0.00  0.00    +0.110 C 
BRANCH  15  16
ATOM     16  N   UNL     1       0.184  -2.132  -0.458  0.00  0.00    -0.301 N 
ATOM     17  C   UNL     1      -0.358  -3.006  -1.330  0.00  0.00    +0.218 C 
ATOM     18  O   UNL     1      -0.777  -4.074  -0.937  0.00  0.00    -0.275 OA
BRANCH  17  19
ATOM     19  C   UNL     1      -0.443  -2.655  -2.793  0.00  0.00    +0.069 C 
ATOM     20  C   UNL     1      -0.626  -3.933  -3.614  0.00  0.00    +0.017 C 
ATOM     21  C   UNL     1      -1.634  -1.724  -3.027  0.00  0.00    +0.017 C 
ENDBRANCH  17  19
BRANCH  16  22
ATOM     22  C   UNL     1       0.594  -0.802  -0.914  0.00  0.00    +0.110 C 
BRANCH  22  24
ATOM     23  C   UNL     1       2.399   0.488  -2.064  0.00  0.00    +0.009 C 
ATOM     24  C   UNL     1       2.016  -0.872  -1.476  0.00  0.00    +0.000 C 
ATOM     25  C   UNL     1       2.990  -1.234  -0.353  0.00  0.00    +0.009 C 
ENDBRANCH  22  24
ENDBRANCH  16  22
ENDBRANCH  15  16
ENDBRANCH   1  15
BRANCH   3  26
ATOM     26  C   UNL     1      -1.243   1.008   3.647  0.00  0.00    -0.075 C 
BRANCH  26  27
ATOM     27  C   UNL     1      -1.910   1.272   4.998  0.00  0.00    -0.028 C 
ATOM     28  C   UNL     1      -1.481   2.646   5.518  0.00  0.00    +0.002 C 
ATOM     29  C   UNL     1      -2.148   2.911   6.870  0.00  0.00    +0.000 C 
ATOM     30  C   UNL     1      -3.669   2.880   6.703  0.00  0.00    +0.000 C 
ATOM     31  C   UNL     1      -4.097   1.506   6.183  0.00  0.00    +0.000 C 
ATOM     32  C   UNL     1      -3.430   1.242   4.832  0.00  0.00    +0.002 C 
ENDBRANCH  26  27
ENDBRANCH   3  26
TORSDOF 9
