REMARK  Name = ZINC01652430
REMARK  4 active torsions:
REMARK  status: ('A' for Active; 'I' for Inactive)
REMARK    1  A    between atoms: C_3  and  C_4
REMARK    2  A    between atoms: C_6  and  C_10
REMARK    3  A    between atoms: C_7  and  N_9
REMARK    4  A    between atoms: C_12  and  O_13
REMARK                            x       y       z     vdW  Elec       q    Type
REMARK                         _______ _______ _______ _____ _____    ______ ____
ROOT
ATOM      1  C   UNL     1       3.654   2.169  -0.021  0.00  0.00    +0.234 A 
ATOM      2  N   UNL     1       4.849   1.638  -0.041  0.00  0.00    -0.196 NA
ATOM      3  C   UNL     1       5.769   2.639  -0.042  0.00  0.00    +0.202 A 
ATOM      4  C   UNL     1       5.066   3.833  -0.021  0.00  0.00    +0.241 A 
ATOM      5  O   UNL     1       3.759   3.512  -0.014  0.00  0.00    -0.419 OA
ENDROOT
BRANCH   1   8
ATOM      6  C   UNL     1      -0.017   1.380   0.010  0.00  0.00    +0.001 A 
ATOM      7  C   UNL     1       1.165   2.091   0.002  0.00  0.00    +0.017 A 
ATOM      8  C   UNL     1       2.385   1.414  -0.013  0.00  0.00    +0.078 A 
ATOM      9  C   UNL     1       2.400   0.013  -0.021  0.00  0.00    +0.129 A 
ATOM     10  C   UNL     1       1.204  -0.686  -0.013  0.00  0.00    +0.046 A 
ATOM     11  C   UNL     1       0.002  -0.004   0.002  0.00  0.00    +0.004 A 
BRANCH   9  12
ATOM     12  O   UNL     1       3.581  -0.657  -0.035  0.00  0.00    -0.506 OA
ATOM     13  H   UNL     1       3.932  -0.855   0.844  0.00  0.00    +0.292 HD
ENDBRANCH   9  12
ENDBRANCH   1   8
BRANCH   4  14
ATOM     14  N   UNL     1       5.601   5.103  -0.015  0.00  0.00    -0.232 NA
ATOM     15  H   UNL     1       5.015   5.876  -0.000  0.00  0.00    +0.173 HD
ENDBRANCH   4  14
BRANCH   3  16
ATOM     16  C   UNL     1       7.193   2.489  -0.061  0.00  0.00    +0.124 C 
ATOM     17  N   UNL     1       8.323   2.369  -0.076  0.00  0.00    -0.189 NA
ENDBRANCH   3  16
TORSDOF 4
