REMARK  Name = ZINC34920259
REMARK  13 active torsions:
REMARK  status: ('A' for Active; 'I' for Inactive)
REMARK    1  A    between atoms: C_1  and  C_2
REMARK    2  A    between atoms: C_3  and  C_33
REMARK    3  A    between atoms: C_4  and  C_21
REMARK    4  A    between atoms: C_10  and  C_11
REMARK    5  A    between atoms: C_24  and  O_29
REMARK    6  A    between atoms: C_25  and  O_27
REMARK    7  A    between atoms: O_27  and  C_28
REMARK    8  A    between atoms: O_29  and  C_30
REMARK    9  A    between atoms: C_30  and  C_31
REMARK   10  A    between atoms: C_33  and  O_35
REMARK   11  A    between atoms: O_35  and  C_36
REMARK   12  A    between atoms: C_36  and  C_37
REMARK   13  A    between atoms: C_36  and  C_38
REMARK                            x       y       z     vdW  Elec       q    Type
REMARK                         _______ _______ _______ _____ _____    ______ ____
ROOT
ATOM      1  C   UNL     1      -0.237   1.041   0.196  0.00  0.00    +0.066 C 
ATOM      2  C   UNL     1      -0.187  -0.464   0.130  0.00  0.00    +0.053 C 
ATOM      3  C   UNL     1      -1.344  -1.174  -0.031  0.00  0.00    +0.085 C 
ATOM      4  C   UNL     1      -1.251  -2.681  -0.092  0.00  0.00    +0.162 C 
ATOM      5  N   UNL     1       0.106  -3.284   0.028  0.00  0.00    -0.275 N 
ATOM      6  C   UNL     1       0.391  -4.592  -0.004  0.00  0.00    +0.268 A 
ATOM      7  O   UNL     1      -0.489  -5.422  -0.140  0.00  0.00    -0.266 OA
ATOM      8  C   UNL     1       1.798  -4.995   0.131  0.00  0.00    +0.081 A 
ATOM      9  C   UNL     1       2.344  -6.238   0.131  0.00  0.00    +0.028 C 
ATOM     10  S   UNL     1       2.596  -3.406   0.294  0.00  0.00    -0.046 S 
ATOM     11  C   UNL     1       1.138  -2.387   0.184  0.00  0.00    +0.178 A 
ATOM     12  N   UNL     1       0.980  -1.088   0.223  0.00  0.00    -0.228 NA
ENDROOT
BRANCH   9  13
ATOM     13  C   UNL     1       3.768  -6.416   0.443  0.00  0.00    -0.024 A 
ATOM     14  C   UNL     1       4.486  -5.385   1.060  0.00  0.00    +0.011 A 
ATOM     15  C   UNL     1       5.822  -5.558   1.350  0.00  0.00    +0.039 A 
ATOM     16  C   UNL     1       6.455  -6.750   1.032  0.00  0.00    +0.123 A 
ATOM     17  C   UNL     1       5.750  -7.776   0.421  0.00  0.00    +0.039 A 
ATOM     18  C   UNL     1       4.412  -7.619   0.130  0.00  0.00    +0.011 A 
ATOM     19  F   UNL     1       7.765  -6.913   1.319  0.00  0.00    -0.205 F 
ENDBRANCH   9  13
BRANCH   4  20
ATOM     20  C   UNL     1      -1.842  -3.128  -1.404  0.00  0.00    -0.016 A 
ATOM     21  C   UNL     1      -3.087  -3.730  -1.431  0.00  0.00    +0.010 A 
ATOM     22  C   UNL     1      -3.633  -4.142  -2.632  0.00  0.00    +0.050 A 
ATOM     23  C   UNL     1      -2.933  -3.952  -3.813  0.00  0.00    +0.162 A 
ATOM     24  C   UNL     1      -1.680  -3.347  -3.786  0.00  0.00    +0.162 A 
ATOM     25  C   UNL     1      -1.141  -2.931  -2.579  0.00  0.00    +0.055 A 
BRANCH  24  26
ATOM     26  O   UNL     1      -0.990  -3.158  -4.942  0.00  0.00    -0.491 OA
ATOM     27  C   UNL     1       0.334  -2.633  -4.829  0.00  0.00    +0.277 C 
ENDBRANCH  24  26
BRANCH  23  28
ATOM     28  O   UNL     1      -3.469  -4.358  -4.995  0.00  0.00    -0.484 OA
BRANCH  28  29
ATOM     29  C   UNL     1      -4.758  -4.972  -4.947  0.00  0.00    +0.256 C 
BRANCH  29  30
ATOM     30  C   UNL     1      -5.186  -5.352  -6.341  0.00  0.00    +0.006 C 
ATOM     31  C   UNL     1      -5.714  -6.530  -6.566  0.00  0.00    +0.007 C 
ENDBRANCH  29  30
ENDBRANCH  28  29
ENDBRANCH  23  28
ENDBRANCH   4  20
BRANCH   3  32
ATOM     32  C   UNL     1      -2.583  -0.521  -0.135  0.00  0.00    +0.339 C 
ATOM     33  O   UNL     1      -2.642   0.692  -0.045  0.00  0.00    -0.245 OA
BRANCH  32  34
ATOM     34  O   UNL     1      -3.710  -1.239  -0.335  0.00  0.00    -0.459 OA
BRANCH  34  35
ATOM     35  C   UNL     1      -4.922  -0.506  -0.523  0.00  0.00    +0.171 C 
ATOM     36  C   UNL     1      -5.891  -1.331  -1.371  0.00  0.00    +0.052 C 
ATOM     37  C   UNL     1      -5.557  -0.214   0.839  0.00  0.00    +0.052 C 
ENDBRANCH  34  35
ENDBRANCH  32  34
ENDBRANCH   3  32
TORSDOF 9
