REMARK  Name = ZINC34805237
REMARK  12 active torsions:
REMARK  status: ('A' for Active; 'I' for Inactive)
REMARK    1  A    between atoms: C_1  and  C_2
REMARK    2  A    between atoms: C_2  and  O_3
REMARK    3  A    between atoms: O_3  and  C_4
REMARK    4  A    between atoms: C_4  and  C_6
REMARK    5  A    between atoms: C_10  and  N_11
REMARK    6  A    between atoms: C_12  and  C_14
REMARK    7  A    between atoms: C_14  and  C_16
REMARK    8  A    between atoms: C_14  and  N_17
REMARK    9  A    between atoms: N_17  and  C_18
REMARK   10  A    between atoms: C_18  and  C_20
REMARK   11  A    between atoms: C_18  and  C_21
REMARK   12  A    between atoms: C_32  and  C_36
REMARK                            x       y       z     vdW  Elec       q    Type
REMARK                         _______ _______ _______ _____ _____    ______ ____
ROOT
ATOM      1  N   UNL     1       3.699  -2.525   1.103  0.00  0.00    -0.281 N 
ATOM      2  C   UNL     1       4.991  -2.817   1.347  0.00  0.00    +0.203 C 
ATOM      3  O   UNL     1       5.310  -3.319   2.405  0.00  0.00    -0.277 OA
ATOM      4  H   UNL     1       3.443  -2.124   0.257  0.00  0.00    +0.155 HD
ENDROOT
BRANCH   1   9
ATOM      5  C   UNL     1       1.368  -2.568   1.983  0.00  0.00    +0.091 A 
ATOM      6  C   UNL     1       0.564  -2.955   3.131  0.00  0.00    -0.021 A 
ATOM      7  C   UNL     1       1.274  -3.494   4.145  0.00  0.00    -0.004 A 
ATOM      8  S   UNL     1       2.949  -3.481   3.578  0.00  0.00    -0.077 S 
ATOM      9  C   UNL     1       2.733  -2.798   2.059  0.00  0.00    +0.086 A 
ATOM     10  C   UNL     1       0.739  -3.986   5.455  0.00  0.00    +0.046 C 
ATOM     11  C   UNL     1      -0.687  -3.443   5.628  0.00  0.00    -0.009 C 
ATOM     12  C   UNL     1      -1.473  -3.692   4.337  0.00  0.00    +0.008 C 
ATOM     13  C   UNL     1      -0.945  -2.786   3.223  0.00  0.00    +0.037 C 
ATOM     14  C   UNL     1      -1.371  -4.160   6.793  0.00  0.00    +0.008 C 
BRANCH   5  15
ATOM     15  C   UNL     1       0.760  -1.967   0.794  0.00  0.00    +0.342 C 
ATOM     16  O   UNL     1       0.370  -2.676  -0.114  0.00  0.00    -0.245 OA
BRANCH  15  17
ATOM     17  O   UNL     1       0.633  -0.627   0.705  0.00  0.00    -0.461 OA
BRANCH  17  19
ATOM     18  C   UNL     1      -0.026   1.417  -0.402  0.00  0.00    +0.048 C 
ATOM     19  C   UNL     1       0.032  -0.110  -0.483  0.00  0.00    +0.229 C 
ENDBRANCH  17  19
ENDBRANCH  15  17
ENDBRANCH   5  15
ENDBRANCH   1   9
BRANCH   2  20
ATOM     20  C   UNL     1       6.041  -2.520   0.307  0.00  0.00    +0.014 C 
ATOM     21  C   UNL     1       6.051  -1.020   0.007  0.00  0.00    -0.004 C 
BRANCH  20  22
ATOM     22  N   UNL     1       7.359  -2.928   0.811  0.00  0.00    +0.388 N 
ATOM     23  H   UNL     1       8.074  -2.626   0.167  0.00  0.00    -0.084 HD
ATOM     24  H   UNL     1       7.519  -2.505   1.714  0.00  0.00    -0.084 HD
BRANCH  22  25
ATOM     25  C   UNL     1       7.403  -4.390   0.941  0.00  0.00    -0.068 C 
ATOM     26  C   UNL     1       7.308  -5.028  -0.446  0.00  0.00    -0.013 C 
BRANCH  25  27
ATOM     27  C   UNL     1       8.718  -4.804   1.605  0.00  0.00    -0.041 C 
ATOM     28  C   UNL     1       9.893  -4.333   0.745  0.00  0.00    +0.009 C 
ATOM     29  C   UNL     1      11.208  -4.747   1.409  0.00  0.00    -0.010 C 
ATOM     30  C   UNL     1      11.254  -6.270   1.544  0.00  0.00    +0.007 C 
ATOM     31  C   UNL     1      10.079  -6.741   2.403  0.00  0.00    -0.010 C 
ATOM     32  C   UNL     1       8.764  -6.327   1.740  0.00  0.00    +0.009 C 
ATOM     33  C   UNL     1      10.173  -6.103   3.791  0.00  0.00    +0.007 C 
ATOM     34  C   UNL     1      10.128  -4.580   3.655  0.00  0.00    -0.010 C 
ATOM     35  C   UNL     1      11.303  -4.108   2.796  0.00  0.00    +0.007 C 
ATOM     36  C   UNL     1       8.812  -4.166   2.992  0.00  0.00    +0.009 C 
ENDBRANCH  25  27
ENDBRANCH  22  25
ENDBRANCH  20  22
ENDBRANCH   2  20
TORSDOF 8
