REMARK  Name = ZINC39638755
REMARK  9 active torsions:
REMARK  status: ('A' for Active; 'I' for Inactive)
REMARK    1  A    between atoms: C_1  and  C_2
REMARK    2  A    between atoms: C_2  and  O_3
REMARK    3  A    between atoms: O_3  and  C_4
REMARK    4  A    between atoms: C_9  and  C_10
REMARK    5  A    between atoms: C_10  and  N_11
REMARK    6  A    between atoms: C_12  and  C_14
REMARK    7  A    between atoms: C_25  and  C_27
REMARK    8  A    between atoms: C_28  and  C_38
REMARK    9  A    between atoms: C_31  and  C_32
REMARK                            x       y       z     vdW  Elec       q    Type
REMARK                         _______ _______ _______ _____ _____    ______ ____
ROOT
ATOM      1  C   UNL     1       5.325   0.475  -3.325  0.00  0.00    +0.100 C 
ATOM      2  C   UNL     1       5.139   1.408  -2.107  0.00  0.00    +0.121 C 
ATOM      3  N   UNL     1       6.146   2.478  -2.298  0.00  0.00    -0.296 N 
ATOM      4  C   UNL     1       6.125   2.749  -3.755  0.00  0.00    +0.115 C 
ATOM      5  C   UNL     1       5.972   1.359  -4.404  0.00  0.00    -0.004 C 
ATOM      6  C   UNL     1       7.340   0.804  -4.792  0.00  0.00    -0.010 C 
ATOM      7  C   UNL     1       7.938   1.667  -5.906  0.00  0.00    -0.082 C 
ATOM      8  N   UNL     1       7.039   1.663  -7.067  0.00  0.00    +0.379 N 
ATOM      9  C   UNL     1       5.757   2.283  -6.710  0.00  0.00    -0.082 C 
ATOM     10  C   UNL     1       5.067   1.446  -5.629  0.00  0.00    -0.010 C 
ATOM     11  C   UNL     1       6.909   3.071  -1.358  0.00  0.00    +0.252 C 
ATOM     12  O   UNL     1       7.697   3.942  -1.675  0.00  0.00    -0.270 OA
ATOM     13  H   UNL     1       7.463   2.182  -7.821  0.00  0.00    -0.086 HD
ATOM     14  H   UNL     1       6.880   0.712  -7.364  0.00  0.00    -0.086 HD
ENDROOT
BRANCH  11  15
ATOM     15  C   UNL     1       6.790   2.664   0.052  0.00  0.00    +0.106 A 
ATOM     16  C   UNL     1       7.504   1.687   0.680  0.00  0.00    +0.147 A 
ATOM     17  O   UNL     1       7.101   1.626   1.952  0.00  0.00    -0.359 OA
ATOM     18  N   UNL     1       6.092   2.590   2.174  0.00  0.00    -0.077 NA
ATOM     19  C   UNL     1       5.881   3.238   1.057  0.00  0.00    +0.126 A 
ATOM     20  C   UNL     1       8.564   0.823   0.048  0.00  0.00    +0.090 C 
BRANCH  19  21
ATOM     21  C   UNL     1       4.910   4.338   0.843  0.00  0.00    +0.004 A 
ATOM     22  C   UNL     1       5.213   5.379  -0.033  0.00  0.00    +0.010 A 
ATOM     23  C   UNL     1       4.305   6.400  -0.228  0.00  0.00    +0.001 A 
ATOM     24  C   UNL     1       3.096   6.392   0.444  0.00  0.00    +0.000 A 
ATOM     25  C   UNL     1       2.790   5.362   1.315  0.00  0.00    +0.001 A 
ATOM     26  C   UNL     1       3.688   4.332   1.513  0.00  0.00    +0.010 A 
ENDBRANCH  19  21
ENDBRANCH  11  15
BRANCH   1  28
ATOM     27  N   UNL     1       3.912  -1.240  -4.411  0.00  0.00    -0.311 N 
ATOM     28  C   UNL     1       3.991  -0.042  -3.799  0.00  0.00    +0.218 C 
ATOM     29  O   UNL     1       2.990   0.621  -3.630  0.00  0.00    -0.275 OA
ATOM     30  H   UNL     1       4.713  -1.769  -4.547  0.00  0.00    +0.149 HD
BRANCH  27  31
ATOM     31  C   UNL     1       2.615  -1.742  -4.873  0.00  0.00    +0.143 C 
BRANCH  31  37
ATOM     32  C   UNL     1       2.919  -4.226  -4.730  0.00  0.00    +0.125 A 
ATOM     33  C   UNL     1       3.084  -5.468  -5.327  0.00  0.00    +0.046 A 
ATOM     34  C   UNL     1       3.132  -5.570  -6.704  0.00  0.00    +0.004 A 
ATOM     35  C   UNL     1       3.018  -4.436  -7.487  0.00  0.00    +0.001 A 
ATOM     36  C   UNL     1       2.854  -3.197  -6.894  0.00  0.00    +0.009 A 
ATOM     37  C   UNL     1       2.799  -3.091  -5.518  0.00  0.00    +0.011 A 
BRANCH  32  38
ATOM     38  O   UNL     1       2.870  -4.123  -3.376  0.00  0.00    -0.492 OA
BRANCH  38  40
ATOM     39  C   UNL     1       2.922  -5.021  -1.133  0.00  0.00    +0.048 C 
ATOM     40  C   UNL     1       3.001  -5.334  -2.628  0.00  0.00    +0.225 C 
ENDBRANCH  38  40
ENDBRANCH  32  38
ENDBRANCH  31  37
ENDBRANCH  27  31
ENDBRANCH   1  28
TORSDOF 7
