REMARK  Name = ZINC15015392
REMARK  7 active torsions:
REMARK  status: ('A' for Active; 'I' for Inactive)
REMARK    1  A    between atoms: C_1  and  C_2
REMARK    2  A    between atoms: N_12  and  N_13
REMARK    3  A    between atoms: C_14  and  C_16
REMARK    4  A    between atoms: C_16  and  N_26
REMARK    5  A    between atoms: C_17  and  C_18
REMARK    6  A    between atoms: C_19  and  C_20
REMARK    7  A    between atoms: C_27  and  C_29
REMARK                            x       y       z     vdW  Elec       q    Type
REMARK                         _______ _______ _______ _____ _____    ______ ____
ROOT
ATOM      1  C   UNL     1       0.146  -5.536   6.144  0.00  0.00    +0.098 C 
ATOM      2  C   UNL     1       0.158  -6.777   6.705  0.00  0.00    +0.028 C 
ENDROOT
BRANCH   1   4
ATOM      3  N   UNL     1       0.193  -4.162   4.132  0.00  0.00    -0.201 N 
ATOM      4  C   UNL     1       0.204  -5.390   4.687  0.00  0.00    +0.277 C 
ATOM      5  O   UNL     1       0.263  -6.378   3.978  0.00  0.00    -0.267 OA
ATOM      6  H   UNL     1       0.146  -3.375   4.697  0.00  0.00    +0.178 HD
BRANCH   3  18
ATOM      7  C   UNL     1       0.246   1.020  -0.678  0.00  0.00    +0.045 C 
ATOM      8  C   UNL     1       0.285  -0.482  -0.571  0.00  0.00    -0.029 A 
ATOM      9  C   UNL     1       0.356  -1.252  -1.715  0.00  0.00    +0.006 A 
ATOM     10  C   UNL     1       0.394  -2.634  -1.634  0.00  0.00    +0.021 A 
ATOM     11  C   UNL     1       0.360  -3.256  -0.400  0.00  0.00    +0.052 A 
ATOM     12  C   UNL     1       0.288  -2.488   0.758  0.00  0.00    +0.047 A 
ATOM     13  C   UNL     1       0.256  -1.089   0.679  0.00  0.00    +0.047 A 
ATOM     14  N   UNL     1       0.192  -0.558   1.963  0.00  0.00    -0.279 N 
ATOM     15  C   UNL     1       0.185  -1.526   2.895  0.00  0.00    +0.269 C 
ATOM     16  O   UNL     1       0.134  -1.360   4.099  0.00  0.00    -0.268 OA
ATOM     17  C   UNL     1       0.236  -2.827   2.199  0.00  0.00    +0.154 C 
ATOM     18  N   UNL     1       0.248  -4.022   2.739  0.00  0.00    -0.174 NA
ATOM     19 CL   UNL     1       0.405  -4.988  -0.295  0.00  0.00    -0.083 Cl
ATOM     20  H   UNL     1       0.157   0.391   2.160  0.00  0.00    +0.155 HD
ENDBRANCH   3  18
ENDBRANCH   1   4
BRANCH   1  21
ATOM     21  N   UNL     1       0.079  -4.402   6.957  0.00  0.00    -0.277 N 
ATOM     22  C   UNL     1      -0.951  -3.543   6.831  0.00  0.00    +0.248 C 
ATOM     23  O   UNL     1      -1.869  -3.801   6.077  0.00  0.00    -0.270 OA
ATOM     24  H   UNL     1       0.774  -4.234   7.613  0.00  0.00    +0.155 HD
BRANCH  22  25
ATOM     25  C   UNL     1      -0.964  -2.286   7.609  0.00  0.00    +0.037 A 
ATOM     26  C   UNL     1       0.091  -1.984   8.471  0.00  0.00    +0.013 A 
ATOM     27  C   UNL     1       0.073  -0.810   9.194  0.00  0.00    +0.001 A 
ATOM     28  C   UNL     1      -0.989   0.068   9.067  0.00  0.00    +0.000 A 
ATOM     29  C   UNL     1      -2.039  -0.225   8.215  0.00  0.00    +0.001 A 
ATOM     30  C   UNL     1      -2.030  -1.393   7.481  0.00  0.00    +0.013 A 
ENDBRANCH  22  25
ENDBRANCH   1  21
BRANCH   2  31
ATOM     31  C   UNL     1       0.209  -6.917   8.107  0.00  0.00    +0.003 C 
ATOM     32  C   UNL     1       0.323  -8.146   8.661  0.00  0.00    +0.008 C 
BRANCH  32  33
ATOM     33  C   UNL     1       0.487  -8.285  10.116  0.00  0.00    -0.025 A 
ATOM     34  C   UNL     1       0.414  -7.158  10.942  0.00  0.00    +0.008 A 
ATOM     35  C   UNL     1       0.569  -7.297  12.305  0.00  0.00    +0.001 A 
ATOM     36  C   UNL     1       0.796  -8.546  12.856  0.00  0.00    +0.000 A 
ATOM     37  C   UNL     1       0.870  -9.666  12.046  0.00  0.00    +0.001 A 
ATOM     38  C   UNL     1       0.711  -9.545  10.681  0.00  0.00    +0.008 A 
ENDBRANCH  32  33
ENDBRANCH   2  31
TORSDOF 6
