REMARK  Name = ZINC13552774
REMARK  7 active torsions:
REMARK  status: ('A' for Active; 'I' for Inactive)
REMARK    1  A    between atoms: C_4  and  C_7
REMARK    2  A    between atoms: C_7  and  C_9
REMARK    3  A    between atoms: C_11  and  C_23
REMARK    4  A    between atoms: C_17  and  C_18
REMARK    5  A    between atoms: C_17  and  O_22
REMARK    6  A    between atoms: C_26  and  C_28
REMARK    7  A    between atoms: C_32  and  N_34
REMARK                            x       y       z     vdW  Elec       q    Type
REMARK                         _______ _______ _______ _____ _____    ______ ____
ROOT
ATOM      1  C   UNL     1       3.767   1.858  -0.023  0.00  0.00    +0.147 C 
ATOM      2  C   UNL     1       4.233   2.096   1.417  0.00  0.00    +0.156 C 
ATOM      3  N   UNL     1       4.538   0.808   2.042  0.00  0.00    -0.289 N 
ATOM      4  C   UNL     1       4.961  -0.237   1.316  0.00  0.00    +0.302 C 
ATOM      5  O   UNL     1       5.212  -1.281   1.886  0.00  0.00    -0.253 OA
ATOM      6  N   UNL     1       5.119  -0.176  -0.015  0.00  0.00    -0.264 N 
ATOM      7  C   UNL     1       4.845   1.056  -0.758  0.00  0.00    +0.243 C 
ATOM      8  H   UNL     1       4.434   0.709   3.001  0.00  0.00    +0.151 HD
ATOM      9  H   UNL     1       5.419  -0.963  -0.495  0.00  0.00    +0.153 HD
ENDROOT
BRANCH   2  10
ATOM     10  C   UNL     1       3.140   2.785   2.193  0.00  0.00    +0.127 A 
ATOM     11  C   UNL     1       3.080   4.104   2.464  0.00  0.00    +0.047 A 
ATOM     12  C   UNL     1       1.901   4.320   3.206  0.00  0.00    +0.050 A 
ATOM     13  C   UNL     1       1.300   3.108   3.348  0.00  0.00    +0.135 A 
ATOM     14  O   UNL     1       2.060   2.188   2.724  0.00  0.00    -0.458 OA
BRANCH  13  15
ATOM     15  C   UNL     1       0.031   2.848   4.059  0.00  0.00    +0.019 A 
ATOM     16  C   UNL     1      -0.661   3.898   4.665  0.00  0.00    +0.012 A 
ATOM     17  C   UNL     1      -1.847   3.648   5.323  0.00  0.00    +0.003 A 
ATOM     18  C   UNL     1      -2.347   2.360   5.391  0.00  0.00    +0.033 A 
ATOM     19  C   UNL     1      -1.664   1.314   4.796  0.00  0.00    +0.127 A 
ATOM     20  C   UNL     1      -0.478   1.550   4.131  0.00  0.00    +0.044 A 
BRANCH  19  21
ATOM     21  N   UNL     1      -2.205  -0.061   4.874  0.00  0.00    +0.056 N 
ATOM     22  O   UNL     1      -1.605  -0.983   4.351  0.00  0.00    -0.126 OA
ATOM     23  O   UNL     1      -3.252  -0.271   5.460  0.00  0.00    -0.126 OA
ENDBRANCH  19  21
ENDBRANCH  13  15
ENDBRANCH   2  10
BRANCH   7  24
ATOM     24  C   UNL     1       4.353   0.706  -2.164  0.00  0.00    +0.436 C 
ATOM     25  F   UNL     1       4.085   1.883  -2.871  0.00  0.00    -0.166 F 
ATOM     26  F   UNL     1       5.339  -0.027  -2.834  0.00  0.00    -0.166 F 
ATOM     27  F   UNL     1       3.185  -0.059  -2.072  0.00  0.00    -0.166 F 
ENDBRANCH   7  24
BRANCH   1  28
ATOM     28  C   UNL     1       2.475   1.081  -0.015  0.00  0.00    +0.173 C 
ATOM     29  O   UNL     1       2.497  -0.132  -0.021  0.00  0.00    -0.292 OA
BRANCH  28  33
ATOM     30  C   UNL     1      -1.236   3.135   0.029  0.00  0.00    +0.000 A 
ATOM     31  C   UNL     1      -1.215   1.751   0.017  0.00  0.00    +0.001 A 
ATOM     32  C   UNL     1      -0.013   1.076   0.008  0.00  0.00    +0.011 A 
ATOM     33  C   UNL     1       1.188   1.793   0.000  0.00  0.00    +0.018 A 
ATOM     34  C   UNL     1       1.158   3.192   0.008  0.00  0.00    +0.011 A 
ATOM     35  C   UNL     1      -0.052   3.852   0.022  0.00  0.00    +0.001 A 
ENDBRANCH  28  33
ENDBRANCH   1  28
BRANCH   7  36
ATOM     36  O   UNL     1       6.040   1.834  -0.851  0.00  0.00    -0.364 OA
ATOM     37  H   UNL     1       6.767   1.387  -1.306  0.00  0.00    +0.212 HD
ENDBRANCH   7  36
TORSDOF 7
