REMARK  Name = ZINC20462298
REMARK  3 active torsions:
REMARK  status: ('A' for Active; 'I' for Inactive)
REMARK    1  A    between atoms: C_16  and  C_18
REMARK    2  A    between atoms: C_18  and  C_20
REMARK    3  A    between atoms: N_27  and  C_30
REMARK                            x       y       z     vdW  Elec       q    Type
REMARK                         _______ _______ _______ _____ _____    ______ ____
ROOT
ATOM      1  C   UNL     1      -0.443   0.086  -0.052  0.00  0.00    +0.001 A 
ATOM      2  C   UNL     1       0.466   1.128   0.006  0.00  0.00    +0.000 A 
ATOM      3  C   UNL     1       1.825   0.867   0.061  0.00  0.00    +0.006 A 
ATOM      4  C   UNL     1       2.276  -0.432   0.058  0.00  0.00    -0.019 A 
ATOM      5  C   UNL     1       1.365  -1.494  -0.003  0.00  0.00    -0.019 A 
ATOM      6  C   UNL     1      -0.003  -1.222  -0.056  0.00  0.00    +0.008 A 
ATOM      7  C   UNL     1       1.847  -2.890  -0.018  0.00  0.00    +0.023 C 
ATOM      8  C   UNL     1       3.105  -3.159   0.383  0.00  0.00    +0.072 C 
ATOM      9  N   UNL     1       3.874  -2.069   0.768  0.00  0.00    -0.317 N 
ATOM     10  C   UNL     1       3.747  -0.749   0.123  0.00  0.00    +0.117 C 
ATOM     11  C   UNL     1       4.508   0.259   0.981  0.00  0.00    +0.115 C 
ATOM     12  C   UNL     1       5.524  -0.611   1.783  0.00  0.00    +0.118 C 
ATOM     13  C   UNL     1       4.843  -1.992   1.856  0.00  0.00    +0.158 C 
ATOM     14  C   UNL     1       5.444   0.028   3.160  0.00  0.00    +0.232 C 
ATOM     15  O   UNL     1       6.279  -0.066   4.035  0.00  0.00    -0.274 OA
ATOM     16  N   UNL     1       4.293   0.713   3.243  0.00  0.00    -0.208 N 
ATOM     17  C   UNL     1       3.620   0.819   2.071  0.00  0.00    +0.232 C 
ATOM     18  O   UNL     1       2.506   1.272   1.917  0.00  0.00    -0.274 OA
ENDROOT
BRANCH  16  19
ATOM     19  C   UNL     1       3.829   1.281   4.438  0.00  0.00    +0.062 A 
ATOM     20  C   UNL     1       2.971   0.565   5.261  0.00  0.00    +0.027 A 
ATOM     21  C   UNL     1       2.515   1.126   6.438  0.00  0.00    +0.022 A 
ATOM     22  C   UNL     1       2.912   2.403   6.797  0.00  0.00    +0.042 A 
ATOM     23  C   UNL     1       3.767   3.120   5.978  0.00  0.00    +0.042 A 
ATOM     24  C   UNL     1       4.230   2.560   4.802  0.00  0.00    +0.064 A 
ATOM     25 CL   UNL     1       5.308   3.457   3.779  0.00  0.00    -0.082 Cl
ATOM     26 CL   UNL     1       2.336   3.106   8.276  0.00  0.00    -0.083 Cl
ENDBRANCH  16  19
BRANCH  13  27
ATOM     27  C   UNL     1       4.137  -2.144   3.179  0.00  0.00    +0.191 C 
ATOM     28  O   UNL     1       2.952  -1.892   3.268  0.00  0.00    -0.289 OA
BRANCH  27  29
ATOM     29  C   UNL     1       4.854  -2.579   4.316  0.00  0.00    +0.056 A 
ATOM     30  C   UNL     1       4.426  -2.682   5.636  0.00  0.00    +0.019 A 
ATOM     31  C   UNL     1       5.360  -3.142   6.529  0.00  0.00    +0.008 A 
ATOM     32  C   UNL     1       6.603  -3.458   6.082  0.00  0.00    +0.046 A 
ATOM     33  S   UNL     1       6.539  -3.147   4.432  0.00  0.00    -0.094 S 
ENDBRANCH  27  29
ENDBRANCH  13  27
TORSDOF 3
