REMARK  Name = ZINC35938666
REMARK  6 active torsions:
REMARK  status: ('A' for Active; 'I' for Inactive)
REMARK    1  A    between atoms: C_1  and  C_2
REMARK    2  A    between atoms: C_2  and  C_4
REMARK    3  A    between atoms: C_2  and  N_25
REMARK    4  A    between atoms: C_12  and  C_14
REMARK    5  A    between atoms: C_17  and  C_19
REMARK    6  A    between atoms: C_33  and  C_35
REMARK                            x       y       z     vdW  Elec       q    Type
REMARK                         _______ _______ _______ _____ _____    ______ ____
ROOT
ATOM      1  C   UNL     1       1.062  -0.310   0.996  0.00  0.00    +0.202 C 
ATOM      2  O   UNL     1       0.695  -1.075   1.862  0.00  0.00    -0.277 OA
ATOM      3  N   UNL     1       2.309   0.201   1.032  0.00  0.00    -0.300 N 
ATOM      4  C   UNL     1       2.805   1.042  -0.066  0.00  0.00    +0.126 C 
ATOM      5  C   UNL     1       3.280   2.379   0.516  0.00  0.00    +0.126 C 
ATOM      6  N   UNL     1       4.168   2.105   1.655  0.00  0.00    -0.298 N 
ATOM      7  C   UNL     1       3.672   1.264   2.754  0.00  0.00    +0.126 C 
ATOM      8  C   UNL     1       3.194  -0.068   2.174  0.00  0.00    +0.126 C 
ATOM      9  C   UNL     1       5.414   2.616   1.692  0.00  0.00    +0.219 C 
ATOM     10  O   UNL     1       5.813   3.309   0.779  0.00  0.00    -0.275 OA
ENDROOT
BRANCH   9  11
ATOM     11  C   UNL     1       6.313   2.327   2.867  0.00  0.00    +0.083 C 
ATOM     12  C   UNL     1       7.530   1.432   2.622  0.00  0.00    +0.022 C 
ATOM     13  C   UNL     1       7.717   2.934   2.848  0.00  0.00    +0.032 C 
BRANCH  13  14
ATOM     14  C   UNL     1       8.096   3.776   1.656  0.00  0.00    -0.044 A 
ATOM     15  C   UNL     1       8.082   3.225   0.389  0.00  0.00    +0.004 A 
ATOM     16  C   UNL     1       8.429   3.997  -0.704  0.00  0.00    +0.000 A 
ATOM     17  C   UNL     1       8.790   5.320  -0.530  0.00  0.00    +0.000 A 
ATOM     18  C   UNL     1       8.803   5.871   0.738  0.00  0.00    +0.000 A 
ATOM     19  C   UNL     1       8.452   5.100   1.830  0.00  0.00    +0.004 A 
ENDBRANCH  13  14
ENDBRANCH   9  11
BRANCH   1  21
ATOM     20  C   UNL     1      -0.320   1.523   0.057  0.00  0.00    -0.004 C 
ATOM     21  C   UNL     1       0.124   0.070  -0.121  0.00  0.00    +0.018 C 
BRANCH  21  22
ATOM     22  N   UNL     1      -1.052  -0.809  -0.093  0.00  0.00    +0.395 N 
ATOM     23  C   UNL     1      -1.821  -0.548   1.132  0.00  0.00    -0.071 C 
ATOM     24  C   UNL     1      -2.848  -1.677   1.324  0.00  0.00    +0.024 C 
ATOM     25  C   UNL     1      -3.536  -1.888   0.015  0.00  0.00    -0.010 A 
ATOM     26  C   UNL     1      -3.139  -1.401  -1.195  0.00  0.00    -0.047 A 
ATOM     27  C   UNL     1      -3.942  -1.721  -2.287  0.00  0.00    +0.010 A 
ATOM     28  C   UNL     1      -5.049  -2.481  -2.114  0.00  0.00    +0.045 A 
ATOM     29  S   UNL     1      -5.012  -2.791  -0.354  0.00  0.00    -0.101 S 
ATOM     30  C   UNL     1      -1.871  -0.559  -1.285  0.00  0.00    -0.005 C 
ATOM     31  H   UNL     1      -0.748  -1.771  -0.095  0.00  0.00    -0.079 HD
BRANCH  30  32
ATOM     32  C   UNL     1      -1.096  -0.943  -2.519  0.00  0.00    -0.057 A 
ATOM     33  C   UNL     1      -0.432  -2.155  -2.570  0.00  0.00    +0.002 A 
ATOM     34  C   UNL     1       0.278  -2.507  -3.702  0.00  0.00    +0.000 A 
ATOM     35  C   UNL     1       0.325  -1.648  -4.784  0.00  0.00    +0.000 A 
ATOM     36  C   UNL     1      -0.340  -0.437  -4.734  0.00  0.00    +0.000 A 
ATOM     37  C   UNL     1      -1.054  -0.087  -3.604  0.00  0.00    +0.002 A 
ENDBRANCH  30  32
ENDBRANCH  21  22
ENDBRANCH   1  21
TORSDOF 5
