REMARK  Name = ZINC25748375
REMARK  10 active torsions:
REMARK  status: ('A' for Active; 'I' for Inactive)
REMARK    1  A    between atoms: C_1  and  C_2
REMARK    2  A    between atoms: C_2  and  O_3
REMARK    3  A    between atoms: O_3  and  C_4
REMARK    4  A    between atoms: C_4  and  C_6
REMARK    5  A    between atoms: C_13  and  C_15
REMARK    6  A    between atoms: C_15  and  S_16
REMARK    7  A    between atoms: S_16  and  C_17
REMARK    8  A    between atoms: C_20  and  C_29
REMARK    9  A    between atoms: N_21  and  C_22
REMARK   10  A    between atoms: C_29  and  N_30
REMARK                            x       y       z     vdW  Elec       q    Type
REMARK                         _______ _______ _______ _____ _____    ______ ____
ROOT
ATOM      1  C   UNL     1       6.231   1.117   2.095  0.00  0.00    +0.197 A 
ATOM      2  N   UNL     1       6.413   0.041   1.364  0.00  0.00    -0.122 NA
ATOM      3  N   UNL     1       5.366  -0.703   1.413  0.00  0.00    -0.135 NA
ATOM      4  C   UNL     1       4.456  -0.149   2.163  0.00  0.00    +0.122 A 
ATOM      5  N   UNL     1       4.975   1.030   2.629  0.00  0.00    -0.276 N 
ENDROOT
BRANCH   5   6
ATOM      6  C   UNL     1       4.348   1.956   3.477  0.00  0.00    +0.050 A 
ATOM      7  C   UNL     1       3.247   2.672   3.031  0.00  0.00    +0.029 A 
ATOM      8  C   UNL     1       2.627   3.579   3.869  0.00  0.00    +0.040 A 
ATOM      9  C   UNL     1       3.112   3.781   5.150  0.00  0.00    +0.124 A 
ATOM     10  C   UNL     1       4.215   3.071   5.595  0.00  0.00    +0.040 A 
ATOM     11  C   UNL     1       4.833   2.160   4.762  0.00  0.00    +0.029 A 
ATOM     12  F   UNL     1       2.509   4.671   5.967  0.00  0.00    -0.205 F 
ENDBRANCH   5   6
BRANCH   1  13
ATOM     13  S   UNL     1       7.386   2.425   2.340  0.00  0.00    -0.076 S 
BRANCH  13  14
ATOM     14  C   UNL     1       8.764   1.819   1.335  0.00  0.00    +0.173 C 
BRANCH  14  21
ATOM     15  C   UNL     1      12.558   3.883  -0.665  0.00  0.00    +0.115 C 
ATOM     16  C   UNL     1      12.857   2.603  -1.450  0.00  0.00    +0.018 C 
ATOM     17  C   UNL     1      11.600   1.732  -1.507  0.00  0.00    +0.020 C 
ATOM     18  C   UNL     1      11.190   1.341  -0.083  0.00  0.00    +0.108 C 
ATOM     19  N   UNL     1      11.042   2.563   0.719  0.00  0.00    -0.300 N 
ATOM     20  C   UNL     1      12.157   3.519   0.764  0.00  0.00    +0.122 C 
ATOM     21  C   UNL     1       9.902   2.806   1.396  0.00  0.00    +0.226 C 
ATOM     22  O   UNL     1       9.792   3.819   2.054  0.00  0.00    -0.275 OA
BRANCH  15  23
ATOM     23  C   UNL     1      13.787   4.755  -0.637  0.00  0.00    +0.312 C 
ATOM     24  O   UNL     1      14.798   4.391  -1.189  0.00  0.00    -0.250 OA
BRANCH  23  25
ATOM     25  O   UNL     1      13.758   5.935   0.000  0.00  0.00    -0.465 OA
BRANCH  25  27
ATOM     26  C   UNL     1      14.754   8.025   0.757  0.00  0.00    +0.048 C 
ATOM     27  C   UNL     1      14.978   6.723  -0.014  0.00  0.00    +0.229 C 
ENDBRANCH  25  27
ENDBRANCH  23  25
ENDBRANCH  15  23
ENDBRANCH  14  21
ENDBRANCH  13  14
ENDBRANCH   1  13
BRANCH   4  28
ATOM     28  C   UNL     1       3.089  -0.706   2.468  0.00  0.00    -0.001 C 
BRANCH  28  29
ATOM     29  N   UNL     1       3.132  -1.442   3.738  0.00  0.00    +0.384 N 
ATOM     30  C   UNL     1       1.779  -1.678   4.256  0.00  0.00    -0.078 C 
ATOM     31  C   UNL     1       1.866  -2.316   5.644  0.00  0.00    -0.019 C 
ATOM     32  C   UNL     1       2.632  -3.638   5.546  0.00  0.00    -0.004 C 
ATOM     33  C   UNL     1       4.021  -3.371   4.959  0.00  0.00    -0.019 C 
ATOM     34  C   UNL     1       3.871  -2.703   3.590  0.00  0.00    -0.078 C 
ATOM     35  H   UNL     1       3.669  -0.823   4.472  0.00  0.00    -0.081 HD
ENDBRANCH  28  29
ENDBRANCH   4  28
TORSDOF 9
