REMARK  Name = ZINC10315611
REMARK  9 active torsions:
REMARK  status: ('A' for Active; 'I' for Inactive)
REMARK    1  A    between atoms: C_7  and  C_19
REMARK    2  A    between atoms: N_9  and  C_10
REMARK    3  A    between atoms: C_10  and  C_11
REMARK    4  A    between atoms: C_19  and  N_53
REMARK    5  A    between atoms: C_20  and  C_21
REMARK    6  A    between atoms: C_20  and  N_53
REMARK    7  A    between atoms: C_21  and  N_22
REMARK    8  A    between atoms: N_22  and  C_23
REMARK    9  A    between atoms: C_26  and  N_30
REMARK                            x       y       z     vdW  Elec       q    Type
REMARK                         _______ _______ _______ _____ _____    ______ ____
ROOT
ATOM      1  C   UNL     1      -8.467   0.231   3.411  0.00  0.00    +0.001 A 
ATOM      2  C   UNL     1      -9.616  -0.390   2.940  0.00  0.00    +0.002 A 
ATOM      3  C   UNL     1      -9.958  -0.317   1.608  0.00  0.00    +0.026 A 
ATOM      4  C   UNL     1      -9.146   0.386   0.723  0.00  0.00    +0.050 A 
ATOM      5  C   UNL     1      -7.983   1.013   1.205  0.00  0.00    +0.001 A 
ATOM      6  C   UNL     1      -7.655   0.926   2.559  0.00  0.00    +0.010 A 
ATOM      7  C   UNL     1      -7.361   1.657   0.046  0.00  0.00    -0.039 A 
ATOM      8  C   UNL     1      -8.144   1.401  -1.013  0.00  0.00    +0.089 A 
ATOM      9  N   UNL     1      -9.213   0.637  -0.629  0.00  0.00    -0.342 N 
ENDROOT
BRANCH   9  10
ATOM     10  C   UNL     1     -10.274   0.164  -1.522  0.00  0.00    +0.158 C 
BRANCH  10  11
ATOM     11  C   UNL     1     -11.434   1.123  -1.476  0.00  0.00    -0.009 A 
ATOM     12  C   UNL     1     -12.500   0.880  -0.630  0.00  0.00    +0.008 A 
ATOM     13  C   UNL     1     -13.562   1.762  -0.584  0.00  0.00    +0.020 A 
ATOM     14  C   UNL     1     -13.566   2.885  -1.393  0.00  0.00    +0.042 A 
ATOM     15  C   UNL     1     -12.502   3.126  -2.244  0.00  0.00    +0.040 A 
ATOM     16  C   UNL     1     -11.437   2.245  -2.286  0.00  0.00    +0.047 A 
ATOM     17 CL   UNL     1     -10.101   2.548  -3.354  0.00  0.00    -0.083 Cl
ATOM     18 CL   UNL     1     -14.904   3.990  -1.340  0.00  0.00    -0.083 Cl
ENDBRANCH  10  11
ENDBRANCH   9  10
BRANCH   7  19
ATOM     19  C   UNL     1      -6.086   2.461   0.044  0.00  0.00    -0.045 C 
BRANCH  19  20
ATOM     20  N   UNL     1      -4.934   1.540   0.034  0.00  0.00    +0.383 N 
ATOM     21  H   UNL     1      -4.977   0.953  -0.807  0.00  0.00    -0.085 HD
ATOM     22  H   UNL     1      -4.969   0.944   0.869  0.00  0.00    -0.085 HD
BRANCH  20  23
ATOM     23  C   UNL     1      -3.670   2.300   0.032  0.00  0.00    -0.063 C 
BRANCH  23  24
ATOM     24  C   UNL     1      -2.495   1.321   0.021  0.00  0.00    +0.082 C 
BRANCH  24  25
ATOM     25  N   UNL     1      -1.236   2.068   0.019  0.00  0.00    -0.345 N 
ATOM     26  H   UNL     1      -1.247   3.038   0.025  0.00  0.00    +0.146 HD
BRANCH  25  27
ATOM     27  C   UNL     1      -0.017   1.385   0.010  0.00  0.00    +0.046 A 
ATOM     28  C   UNL     1       0.002  -0.004   0.002  0.00  0.00    +0.026 A 
ATOM     29  C   UNL     1       1.208  -0.677  -0.013  0.00  0.00    +0.034 A 
ATOM     30  C   UNL     1       2.397   0.030  -0.021  0.00  0.00    +0.128 A 
ATOM     31  C   UNL     1       2.382   1.413  -0.014  0.00  0.00    +0.054 A 
ATOM     32  C   UNL     1       1.179   2.093   0.002  0.00  0.00    +0.064 A 
ATOM     33 CL   UNL     1       1.162   3.829   0.011  0.00  0.00    -0.082 Cl
BRANCH  30  34
ATOM     34  N   UNL     1       3.687  -0.695  -0.038  0.00  0.00    +0.056 N 
ATOM     35  O   UNL     1       3.701  -1.913  -0.045  0.00  0.00    -0.126 OA
ATOM     36  O   UNL     1       4.734  -0.074  -0.045  0.00  0.00    -0.126 OA
ENDBRANCH  30  34
ENDBRANCH  25  27
ENDBRANCH  24  25
ENDBRANCH  23  24
ENDBRANCH  20  23
ENDBRANCH  19  20
ENDBRANCH   7  19
TORSDOF 9
