REMARK  Name = ZINC21385340
REMARK  8 active torsions:
REMARK  status: ('A' for Active; 'I' for Inactive)
REMARK    1  A    between atoms: C_1  and  O_2
REMARK    2  A    between atoms: O_2  and  C_3
REMARK    3  A    between atoms: C_6  and  N_9
REMARK    4  A    between atoms: N_9  and  C_10
REMARK    5  A    between atoms: C_10  and  C_11
REMARK    6  A    between atoms: C_16  and  C_18
REMARK    7  A    between atoms: C_18  and  N_19
REMARK    8  A    between atoms: C_21  and  N_26
REMARK                            x       y       z     vdW  Elec       q    Type
REMARK                         _______ _______ _______ _____ _____    ______ ____
ROOT
ATOM      1  N   UNL     1       2.540  -2.503   4.231  0.00  0.00    -0.265 N 
ATOM      2  C   UNL     1       3.187  -1.769   5.158  0.00  0.00    +0.240 C 
ATOM      3  O   UNL     1       3.136  -0.558   5.116  0.00  0.00    -0.273 OA
ENDROOT
BRANCH   1   7
ATOM      4  C   UNL     1       0.615  -0.617   1.050  0.00  0.00    +0.120 A 
ATOM      5  C   UNL     1      -0.129  -1.268   2.023  0.00  0.00    +0.047 A 
ATOM      6  C   UNL     1       0.508  -1.893   3.076  0.00  0.00    +0.027 A 
ATOM      7  C   UNL     1       1.893  -1.870   3.162  0.00  0.00    +0.037 A 
ATOM      8  C   UNL     1       2.638  -1.218   2.188  0.00  0.00    +0.027 A 
ATOM      9  C   UNL     1       2.000  -0.599   1.131  0.00  0.00    +0.047 A 
BRANCH   4  11
ATOM     10  C   UNL     1      -1.440  -0.061  -0.009  0.00  0.00    +0.277 C 
ATOM     11  O   UNL     1      -0.013  -0.002   0.012  0.00  0.00    -0.495 OA
ENDBRANCH   4  11
ENDBRANCH   1   7
BRANCH   1  12
ATOM     12  C   UNL     1       2.514  -3.964   4.342  0.00  0.00    +0.156 C 
BRANCH  12  13
ATOM     13  C   UNL     1       3.697  -4.545   3.611  0.00  0.00    +0.007 A 
ATOM     14  C   UNL     1       4.938  -4.823   4.080  0.00  0.00    +0.013 A 
ATOM     15  C   UNL     1       5.876  -5.360   3.219  0.00  0.00    +0.008 A 
ATOM     16  C   UNL     1       5.527  -5.593   1.930  0.00  0.00    +0.045 A 
ATOM     17  S   UNL     1       3.825  -5.053   1.904  0.00  0.00    -0.100 S 
ENDBRANCH  12  13
ENDBRANCH   1  12
BRANCH   2  18
ATOM     18  C   UNL     1       3.974  -2.453   6.247  0.00  0.00    +0.221 C 
BRANCH  18  19
ATOM     19  N   UNL     1       4.578  -1.444   7.120  0.00  0.00    -0.304 N 
ATOM     20  C   UNL     1       5.814  -0.961   6.833  0.00  0.00    +0.122 A 
ATOM     21  C   UNL     1       6.392  -0.029   7.625  0.00  0.00    +0.142 A 
ATOM     22  C   UNL     1       5.714   0.448   8.756  0.00  0.00    +0.039 A 
ATOM     23  C   UNL     1       4.472  -0.038   9.042  0.00  0.00    +0.072 A 
ATOM     24  C   UNL     1       3.898  -1.002   8.195  0.00  0.00    +0.252 A 
ATOM     25  O   UNL     1       2.786  -1.442   8.438  0.00  0.00    -0.268 OA
BRANCH  21  26
ATOM     26  N   UNL     1       7.741   0.487   7.299  0.00  0.00    +0.058 N 
ATOM     27  O   UNL     1       8.326   0.075   6.324  0.00  0.00    -0.126 OA
ATOM     28  O   UNL     1       8.258   1.319   8.007  0.00  0.00    -0.126 OA
ENDBRANCH  21  26
ENDBRANCH  18  19
ENDBRANCH   2  18
TORSDOF 7
