REMARK  Name = ZINC27827236
REMARK  11 active torsions:
REMARK  status: ('A' for Active; 'I' for Inactive)
REMARK    1  A    between atoms: C_1  and  O_2
REMARK    2  A    between atoms: O_2  and  C_3
REMARK    3  A    between atoms: C_6  and  C_11
REMARK    4  A    between atoms: C_8  and  O_9
REMARK    5  A    between atoms: O_9  and  C_10
REMARK    6  A    between atoms: C_11  and  C_12
REMARK    7  A    between atoms: C_12  and  N_13
REMARK    8  A    between atoms: N_13  and  C_14
REMARK    9  A    between atoms: N_24  and  C_25
REMARK   10  A    between atoms: C_25  and  C_26
REMARK   11  A    between atoms: C_26  and  C_27
REMARK                            x       y       z     vdW  Elec       q    Type
REMARK                         _______ _______ _______ _____ _____    ______ ____
ROOT
ATOM      1  C   UNL     1       0.263   4.342   1.870  0.00  0.00    +0.046 C 
ATOM      2  C   UNL     1      -0.215   5.746   1.612  0.00  0.00    -0.059 C 
ATOM      3  C   UNL     1      -1.374   5.659   0.958  0.00  0.00    +0.014 C 
ATOM      4  C   UNL     1      -2.183   6.857   0.519  0.00  0.00    +0.040 C 
ATOM      5  C   UNL     1      -1.696   8.085   1.296  0.00  0.00    +0.005 C 
ATOM      6  C   UNL     1      -0.171   8.178   1.201  0.00  0.00    +0.005 C 
ATOM      7  C   UNL     1       0.457   7.034   2.009  0.00  0.00    +0.031 C 
ATOM      8  C   UNL     1      -1.711   4.249   0.748  0.00  0.00    +0.241 C 
ATOM      9  O   UNL     1      -2.708   3.848   0.180  0.00  0.00    -0.270 OA
ATOM     10  N   UNL     1      -0.754   3.461   1.277  0.00  0.00    -0.308 N 
ENDROOT
BRANCH   1  11
ATOM     11  N   UNL     1       1.563   4.125   1.221  0.00  0.00    +0.394 N 
ATOM     12  H   UNL     1       2.002   5.102   0.974  0.00  0.00    -0.083 HD
ATOM     13  H   UNL     1       1.404   3.549   0.297  0.00  0.00    -0.083 HD
BRANCH  11  14
ATOM     14  C   UNL     1       2.475   3.388   2.106  0.00  0.00    -0.075 C 
BRANCH  14  15
ATOM     15  C   UNL     1       3.816   3.181   1.398  0.00  0.00    +0.016 C 
BRANCH  15  19
ATOM     16  C   UNL     1       6.471   1.032   3.970  0.00  0.00    +0.161 A 
ATOM     17  C   UNL     1       5.639   0.346   3.100  0.00  0.00    +0.049 A 
ATOM     18  C   UNL     1       4.782   1.044   2.269  0.00  0.00    +0.007 A 
ATOM     19  C   UNL     1       4.752   2.425   2.305  0.00  0.00    -0.045 A 
ATOM     20  C   UNL     1       5.583   3.116   3.168  0.00  0.00    +0.053 A 
ATOM     21  C   UNL     1       6.441   2.422   4.006  0.00  0.00    +0.162 A 
BRANCH  16  23
ATOM     22  C   UNL     1       7.292  -1.079   4.696  0.00  0.00    +0.277 C 
ATOM     23  O   UNL     1       7.315   0.347   4.788  0.00  0.00    -0.491 OA
ENDBRANCH  16  23
BRANCH  21  24
ATOM     24  O   UNL     1       7.256   3.100   4.859  0.00  0.00    -0.491 OA
ATOM     25  C   UNL     1       7.171   4.526   4.841  0.00  0.00    +0.277 C 
ENDBRANCH  21  24
ENDBRANCH  15  19
ENDBRANCH  14  15
ENDBRANCH  11  14
ENDBRANCH   1  11
BRANCH  10  26
ATOM     26  C   UNL     1      -0.735   1.996   1.269  0.00  0.00    +0.111 C 
BRANCH  26  27
ATOM     27  C   UNL     1      -0.018   1.503   0.010  0.00  0.00    +0.054 C 
BRANCH  27  28
ATOM     28  C   UNL     1       0.002  -0.004   0.002  0.00  0.00    -0.046 A 
ATOM     29  C   UNL     1       1.057  -0.684   0.582  0.00  0.00    +0.005 A 
ATOM     30  C   UNL     1       1.073  -2.066   0.580  0.00  0.00    +0.020 A 
ATOM     31  C   UNL     1       0.040  -2.769  -0.013  0.00  0.00    +0.041 A 
ATOM     32  C   UNL     1      -1.013  -2.088  -0.599  0.00  0.00    +0.020 A 
ATOM     33  C   UNL     1      -1.031  -0.706  -0.591  0.00  0.00    +0.005 A 
ATOM     34 CL   UNL     1       0.063  -4.505  -0.022  0.00  0.00    -0.084 Cl
ENDBRANCH  27  28
ENDBRANCH  26  27
ENDBRANCH  10  26
TORSDOF 9
