REMARK  Name = ZINC66557474
REMARK  5 active torsions:
REMARK  status: ('A' for Active; 'I' for Inactive)
REMARK    1  A    between atoms: C_1  and  C_2
REMARK    2  A    between atoms: C_6  and  C_7
REMARK    3  A    between atoms: N_9  and  N_10
REMARK    4  A    between atoms: C_11  and  C_13
REMARK    5  A    between atoms: C_13  and  C_18
REMARK                            x       y       z     vdW  Elec       q    Type
REMARK                         _______ _______ _______ _____ _____    ______ ____
ROOT
ATOM      1  C   UNL     1       0.202  -1.149   7.334  0.00  0.00    +0.073 C 
ATOM      2  C   UNL     1      -1.028  -0.500   8.001  0.00  0.00    +0.021 C 
ATOM      3  C   UNL     1      -1.788  -1.691   8.637  0.00  0.00    +0.001 C 
ATOM      4  C   UNL     1      -0.639  -2.592   9.154  0.00  0.00    +0.001 C 
ATOM      5  C   UNL     1       0.449  -2.479   8.067  0.00  0.00    +0.021 C 
ENDROOT
BRANCH   1   6
ATOM      6  C   UNL     1       1.403  -0.250   7.477  0.00  0.00    -0.029 A 
ATOM      7  C   UNL     1       1.771   0.216   8.726  0.00  0.00    +0.008 A 
ATOM      8  C   UNL     1       2.870   1.042   8.861  0.00  0.00    +0.050 A 
ATOM      9  C   UNL     1       3.608   1.406   7.744  0.00  0.00    +0.162 A 
ATOM     10  C   UNL     1       3.239   0.936   6.489  0.00  0.00    +0.162 A 
ATOM     11  C   UNL     1       2.137   0.103   6.361  0.00  0.00    +0.054 A 
ATOM     12  O   UNL     1       3.953   1.274   5.381  0.00  0.00    -0.485 OA
ATOM     13  C   UNL     1       4.829   2.401   5.498  0.00  0.00    +0.270 C 
ATOM     14  C   UNL     1       5.619   2.261   6.807  0.00  0.00    +0.270 C 
ATOM     15  O   UNL     1       4.686   2.224   7.892  0.00  0.00    -0.485 OA
ENDBRANCH   1   6
BRANCH   1  17
ATOM     16  N   UNL     1      -0.444  -0.392   5.069  0.00  0.00    -0.233 N 
ATOM     17  C   UNL     1      -0.078  -1.408   5.876  0.00  0.00    +0.240 C 
ATOM     18  O   UNL     1       0.026  -2.530   5.428  0.00  0.00    -0.273 OA
ATOM     19  H   UNL     1      -0.597   0.491   5.441  0.00  0.00    +0.173 HD
BRANCH  16  22
ATOM     20  C   UNL     1      -0.968   0.405   2.888  0.00  0.00    +0.267 C 
ATOM     21  O   UNL     1      -1.160   1.513   3.354  0.00  0.00    -0.268 OA
ATOM     22  N   UNL     1      -0.603  -0.611   3.695  0.00  0.00    -0.230 N 
ATOM     23  H   UNL     1      -0.450  -1.494   3.324  0.00  0.00    +0.173 HD
BRANCH  20  29
ATOM     24  C   UNL     1      -1.799   2.520   0.758  0.00  0.00    +0.045 C 
ATOM     25  C   UNL     1      -1.501   1.074   0.459  0.00  0.00    -0.031 A 
ATOM     26  C   UNL     1      -1.568   0.561  -0.815  0.00  0.00    +0.011 A 
ATOM     27  C   UNL     1      -1.287  -0.750  -1.014  0.00  0.00    +0.046 A 
ATOM     28  S   UNL     1      -0.922  -1.330   0.520  0.00  0.00    -0.092 S 
ATOM     29  C   UNL     1      -1.135   0.176   1.450  0.00  0.00    +0.078 A 
ENDBRANCH  20  29
ENDBRANCH  16  22
ENDBRANCH   1  17
TORSDOF 4
