REMARK  Name = ZINC27660080
REMARK  5 active torsions:
REMARK  status: ('A' for Active; 'I' for Inactive)
REMARK    1  A    between atoms: C_1  and  C_2
REMARK    2  A    between atoms: C_10  and  C_12
REMARK    3  A    between atoms: C_12  and  S_13
REMARK    4  A    between atoms: S_13  and  C_14
REMARK    5  A    between atoms: C_18  and  C_20
REMARK                            x       y       z     vdW  Elec       q    Type
REMARK                         _______ _______ _______ _____ _____    ______ ____
ROOT
ATOM      1  S   UNL     1      -0.990   7.850  -1.602  0.00  0.00    -0.082 S 
ENDROOT
BRANCH   1   2
ATOM      2  C   UNL     1      -1.407   9.537  -1.311  0.00  0.00    +0.167 A 
ATOM      3  N   UNL     1      -1.926  10.396  -2.232  0.00  0.00    -0.339 N 
ATOM      4  H   UNL     1      -2.119  10.051  -3.258  0.00  0.00    +0.167 HD
ATOM      5  C   UNL     1      -2.106  11.606  -1.607  0.00  0.00    +0.113 A 
ATOM      6  C   UNL     1      -1.692  11.453  -0.325  0.00  0.00    +0.090 A 
ATOM      7  N   UNL     1      -1.273  10.172  -0.172  0.00  0.00    -0.222 NA
BRANCH   6   8
ATOM      8  C   UNL     1      -1.702  12.499   0.727  0.00  0.00    +0.002 A 
ATOM      9  C   UNL     1      -2.162  13.782   0.433  0.00  0.00    +0.010 A 
ATOM     10  C   UNL     1      -2.173  14.750   1.416  0.00  0.00    +0.001 A 
ATOM     11  C   UNL     1      -1.719  14.453   2.688  0.00  0.00    +0.000 A 
ATOM     12  C   UNL     1      -1.256  13.183   2.984  0.00  0.00    +0.001 A 
ATOM     13  C   UNL     1      -1.245  12.206   2.010  0.00  0.00    +0.010 A 
ENDBRANCH   6   8
ENDBRANCH   1   2
BRANCH   1  14
ATOM     14  C   UNL     1      -0.380   7.390   0.039  0.00  0.00    +0.133 C 
BRANCH  14  24
ATOM     15  C   UNL     1       2.420   1.398  -0.013  0.00  0.00    +0.064 C 
ATOM     16  C   UNL     1       1.010   1.930   0.003  0.00  0.00    +0.033 A 
ATOM     17  C   UNL     1      -0.013   1.076   0.008  0.00  0.00    +0.070 A 
ATOM     18  S   UNL     1      -1.414   2.183   0.019  0.00  0.00    -0.057 S 
ATOM     19  C   UNL     1      -0.502   3.711   0.025  0.00  0.00    +0.180 A 
ATOM     20  N   UNL     1       0.800   3.288   0.011  0.00  0.00    -0.259 N 
ATOM     21  C   UNL     1       1.758   4.263   0.007  0.00  0.00    +0.259 A 
ATOM     22  O   UNL     1       2.940   3.959  -0.006  0.00  0.00    -0.267 OA
ATOM     23  C   UNL     1       1.383   5.607   0.016  0.00  0.00    +0.095 A 
ATOM     24  C   UNL     1       0.046   5.944   0.030  0.00  0.00    +0.059 A 
ATOM     25  N   UNL     1      -0.861   4.971   0.034  0.00  0.00    -0.227 NA
ENDBRANCH  14  24
ENDBRANCH   1  14
TORSDOF 4
