REMARK  Name = ZINC67299072
REMARK  7 active torsions:
REMARK  status: ('A' for Active; 'I' for Inactive)
REMARK    1  A    between atoms: C_1  and  O_2
REMARK    2  A    between atoms: O_2  and  C_3
REMARK    3  A    between atoms: N_11  and  C_12
REMARK    4  A    between atoms: C_17  and  C_18
REMARK    5  A    between atoms: C_22  and  C_24
REMARK    6  A    between atoms: N_26  and  C_27
REMARK    7  A    between atoms: C_27  and  C_28
REMARK                            x       y       z     vdW  Elec       q    Type
REMARK                         _______ _______ _______ _____ _____    ______ ____
ROOT
ATOM      1  C   UNL     1       1.645  -0.534   0.586  0.00  0.00    +0.163 A 
ATOM      2  C   UNL     1       2.469   0.179   1.440  0.00  0.00    +0.049 A 
ATOM      3  C   UNL     1       3.123  -0.456   2.485  0.00  0.00    +0.004 A 
ATOM      4  C   UNL     1       2.963  -1.808   2.688  0.00  0.00    +0.012 A 
ATOM      5  C   UNL     1       2.136  -2.546   1.832  0.00  0.00    +0.022 A 
ATOM      6  C   UNL     1       1.465  -1.900   0.778  0.00  0.00    +0.179 A 
ATOM      7  O   UNL     1       0.653  -2.612  -0.042  0.00  0.00    -0.435 OA
ATOM      8  C   UNL     1       0.933  -3.931  -0.194  0.00  0.00    +0.212 A 
ATOM      9  N   UNL     1       0.846  -4.511  -1.372  0.00  0.00    -0.325 N 
ATOM     10  C   UNL     1       1.339  -4.695   1.002  0.00  0.00    +0.097 A 
ATOM     11  C   UNL     1       1.956  -3.987   2.023  0.00  0.00    +0.030 A 
ATOM     12  H   UNL     1       1.121  -5.436  -1.479  0.00  0.00    +0.169 HD
ENDROOT
BRANCH   9  13
ATOM     13  C   UNL     1       0.368  -3.812  -2.445  0.00  0.00    +0.054 A 
ATOM     14  C   UNL     1      -0.829  -3.098  -2.341  0.00  0.00    +0.026 A 
ATOM     15  C   UNL     1      -1.305  -2.395  -3.428  0.00  0.00    +0.002 A 
ATOM     16  C   UNL     1      -0.601  -2.395  -4.619  0.00  0.00    +0.001 A 
ATOM     17  C   UNL     1       0.585  -3.100  -4.729  0.00  0.00    +0.014 A 
ATOM     18  C   UNL     1       1.077  -3.802  -3.649  0.00  0.00    +0.078 A 
BRANCH  18  19
ATOM     19  C   UNL     1       2.372  -4.564  -3.769  0.00  0.00    +0.419 C 
ATOM     20  F   UNL     1       2.889  -4.403  -5.058  0.00  0.00    -0.166 F 
ATOM     21  F   UNL     1       3.289  -4.073  -2.833  0.00  0.00    -0.166 F 
ATOM     22  F   UNL     1       2.139  -5.921  -3.526  0.00  0.00    -0.166 F 
ENDBRANCH  18  19
ENDBRANCH   9  13
BRANCH  10  23
ATOM     23  C   UNL     1       1.110  -6.146   1.102  0.00  0.00    +0.250 C 
ATOM     24  O   UNL     1       0.628  -6.752   0.163  0.00  0.00    -0.270 OA
ATOM     25  N   UNL     1       1.434  -6.804   2.233  0.00  0.00    -0.304 N 
ATOM     26  H   UNL     1       1.885  -6.337   2.953  0.00  0.00    +0.149 HD
BRANCH  25  27
ATOM     27  C   UNL     1       1.105  -8.225   2.374  0.00  0.00    +0.179 C 
BRANCH  27  28
ATOM     28  C   UNL     1       1.571  -8.717   3.720  0.00  0.00    +0.122 A 
ATOM     29  C   UNL     1       0.847  -8.712   4.853  0.00  0.00    +0.046 A 
ATOM     30  C   UNL     1       1.668  -9.259   5.866  0.00  0.00    +0.041 A 
ATOM     31  C   UNL     1       2.845  -9.565   5.291  0.00  0.00    +0.195 A 
ATOM     32  O   UNL     1       2.779  -9.240   3.990  0.00  0.00    -0.466 OA
ENDBRANCH  27  28
ENDBRANCH  25  27
ENDBRANCH  10  23
BRANCH   1  34
ATOM     33  C   UNL     1       1.240   1.504  -0.572  0.00  0.00    +0.277 C 
ATOM     34  O   UNL     1       1.008   0.100  -0.435  0.00  0.00    -0.491 OA
ENDBRANCH   1  34
TORSDOF 6
