REMARK  Name = ZINC66761769
REMARK  7 active torsions:
REMARK  status: ('A' for Active; 'I' for Inactive)
REMARK    1  A    between atoms: C_1  and  C_2
REMARK    2  A    between atoms: C_4  and  S_24
REMARK    3  A    between atoms: C_6  and  C_7
REMARK    4  A    between atoms: C_11  and  C_18
REMARK    5  A    between atoms: C_15  and  C_16
REMARK    6  A    between atoms: C_15  and  C_17
REMARK    7  A    between atoms: S_24  and  N_27
REMARK                            x       y       z     vdW  Elec       q    Type
REMARK                         _______ _______ _______ _____ _____    ______ ____
ROOT
ATOM      1  C   UNL     1      -0.619  -0.388   2.583  0.00  0.00    +0.254 C 
ATOM      2  O   UNL     1      -0.500   0.812   2.748  0.00  0.00    -0.269 OA
ATOM      3  N   UNL     1      -0.418  -1.234   3.613  0.00  0.00    -0.287 N 
ATOM      4  C   UNL     1      -0.448  -2.691   3.413  0.00  0.00    +0.145 C 
ATOM      5  C   UNL     1      -1.388  -3.303   4.458  0.00  0.00    +0.166 C 
ATOM      6  O   UNL     1      -1.007  -2.848   5.758  0.00  0.00    -0.368 OA
ATOM      7  C   UNL     1      -1.115  -1.434   5.939  0.00  0.00    +0.186 C 
ATOM      8  C   UNL     1      -0.155  -0.727   4.969  0.00  0.00    +0.055 C 
ATOM      9  C   UNL     1       1.293  -1.027   5.360  0.00  0.00    +0.034 C 
ATOM     10  C   UNL     1      -0.399   0.783   5.011  0.00  0.00    +0.034 C 
ENDROOT
BRANCH   1  16
ATOM     11  C   UNL     1      -2.821   0.729   0.683  0.00  0.00    +0.045 C 
ATOM     12  C   UNL     1      -1.947  -0.460   0.377  0.00  0.00    -0.029 A 
ATOM     13  C   UNL     1      -2.054  -1.162  -0.800  0.00  0.00    +0.040 A 
ATOM     14  C   UNL     1      -1.236  -2.223  -1.011  0.00  0.00    +0.143 A 
ATOM     15  S   UNL     1      -0.297  -2.302   0.380  0.00  0.00    -0.064 S 
ATOM     16  C   UNL     1      -0.982  -0.913   1.263  0.00  0.00    +0.079 A 
BRANCH  14  17
ATOM     17  S   UNL     1      -1.173  -3.277  -2.421  0.00  0.00    +0.062 S 
ATOM     18  O   UNL     1      -0.613  -4.508  -1.984  0.00  0.00    -0.153 OA
ATOM     19  O   UNL     1      -2.448  -3.198  -3.044  0.00  0.00    -0.153 OA
BRANCH  17  20
ATOM     20  N   UNL     1      -0.087  -2.613  -3.480  0.00  0.00    -0.203 NA
ATOM     21  H   UNL     1       0.420  -3.186  -4.077  0.00  0.00    +0.144 HD
ATOM     22  H   UNL     1       0.043  -1.652  -3.504  0.00  0.00    +0.144 HD
ENDBRANCH  17  20
ENDBRANCH  14  17
ENDBRANCH   1  16
BRANCH   5  23
ATOM     23  C   UNL     1      -1.294  -4.806   4.402  0.00  0.00    -0.017 A 
ATOM     24  C   UNL     1      -0.305  -5.463   5.109  0.00  0.00    +0.006 A 
ATOM     25  C   UNL     1      -0.218  -6.842   5.057  0.00  0.00    +0.000 A 
ATOM     26  C   UNL     1      -1.121  -7.563   4.298  0.00  0.00    +0.000 A 
ATOM     27  C   UNL     1      -2.111  -6.906   3.592  0.00  0.00    +0.000 A 
ATOM     28  C   UNL     1      -2.200  -5.527   3.647  0.00  0.00    +0.006 A 
ENDBRANCH   5  23
TORSDOF 4
