REMARK  Name = ZINC08879086
REMARK  6 active torsions:
REMARK  status: ('A' for Active; 'I' for Inactive)
REMARK    1  A    between atoms: C_1  and  C_2
REMARK    2  A    between atoms: C_2  and  C_4
REMARK    3  A    between atoms: C_2  and  N_12
REMARK    4  A    between atoms: C_13  and  C_15
REMARK    5  A    between atoms: N_18  and  S_21
REMARK    6  A    between atoms: S_21  and  C_24
REMARK                            x       y       z     vdW  Elec       q    Type
REMARK                         _______ _______ _______ _____ _____    ______ ____
ROOT
ATOM      1  C   UNL     1      -0.046   4.264   1.096  0.00  0.00    +0.077 C 
ATOM      2  C   UNL     1       1.217   3.403   1.176  0.00  0.00    +0.030 C 
ATOM      3  C   UNL     1       1.234   2.417   0.003  0.00  0.00    +0.110 C 
ATOM      4  N   UNL     1      -0.020   1.652   0.011  0.00  0.00    -0.176 NA
ATOM      5  C   UNL     1      -1.295   2.383   0.021  0.00  0.00    +0.110 C 
ATOM      6  C   UNL     1      -1.283   3.369   1.199  0.00  0.00    +0.030 C 
ENDROOT
BRANCH   1   8
ATOM      7  N   UNL     1      -1.071   6.127   2.360  0.00  0.00    -0.308 N 
ATOM      8  C   UNL     1      -0.049   5.258   2.229  0.00  0.00    +0.217 C 
ATOM      9  O   UNL     1       0.868   5.276   3.022  0.00  0.00    -0.275 OA
ATOM     10  H   UNL     1      -1.804   6.112   1.726  0.00  0.00    +0.149 HD
BRANCH   7  12
ATOM     11  C   UNL     1      -1.662   6.438   4.713  0.00  0.00    +0.033 C 
ATOM     12  C   UNL     1      -1.074   7.093   3.462  0.00  0.00    +0.102 C 
BRANCH  12  13
ATOM     13  C   UNL     1      -1.909   8.287   3.080  0.00  0.00    -0.009 A 
ATOM     14  C   UNL     1      -2.909   8.157   2.133  0.00  0.00    +0.008 A 
ATOM     15  C   UNL     1      -3.679   9.251   1.787  0.00  0.00    +0.020 A 
ATOM     16  C   UNL     1      -3.443  10.479   2.379  0.00  0.00    +0.042 A 
ATOM     17  C   UNL     1      -2.440  10.611   3.321  0.00  0.00    +0.040 A 
ATOM     18  C   UNL     1      -1.672   9.514   3.672  0.00  0.00    +0.047 A 
ATOM     19 CL   UNL     1      -0.413   9.679   4.856  0.00  0.00    -0.083 Cl
ATOM     20 CL   UNL     1      -4.407  11.855   1.938  0.00  0.00    -0.083 Cl
ENDBRANCH  12  13
ENDBRANCH   7  12
ENDBRANCH   1   8
BRANCH   4  21
ATOM     21  S   UNL     1       0.002  -0.004   0.002  0.00  0.00    +0.064 S 
ATOM     22  O   UNL     1      -1.243  -0.424  -0.539  0.00  0.00    -0.153 OA
ATOM     23  O   UNL     1       1.248  -0.390  -0.563  0.00  0.00    -0.153 OA
BRANCH  21  24
ATOM     24  C   UNL     1       0.025  -0.534   1.682  0.00  0.00    +0.141 A 
ATOM     25  C   UNL     1      -1.046  -1.239   2.199  0.00  0.00    +0.034 A 
ATOM     26  C   UNL     1      -1.028  -1.656   3.517  0.00  0.00    +0.040 A 
ATOM     27  C   UNL     1       0.062  -1.368   4.321  0.00  0.00    +0.126 A 
ATOM     28  C   UNL     1       1.134  -0.661   3.804  0.00  0.00    +0.078 A 
ATOM     29  C   UNL     1       1.118  -0.249   2.483  0.00  0.00    +0.152 A 
ATOM     30  F   UNL     1       2.167   0.436   1.976  0.00  0.00    -0.203 F 
ATOM     31  F   UNL     1       0.078  -1.775   5.609  0.00  0.00    -0.205 F 
ENDBRANCH  21  24
ENDBRANCH   4  21
TORSDOF 5
