REMARK  Name = ZINC24124048
REMARK  4 active torsions:
REMARK  status: ('A' for Active; 'I' for Inactive)
REMARK    1  A    between atoms: C_10  and  C_11
REMARK    2  A    between atoms: C_17  and  C_20
REMARK    3  A    between atoms: N_22  and  N_23
REMARK    4  A    between atoms: C_24  and  C_26
REMARK                            x       y       z     vdW  Elec       q    Type
REMARK                         _______ _______ _______ _____ _____    ______ ____
ROOT
ATOM      1  C   UNL     1       4.944   0.132  -0.046  0.00  0.00    +0.247 C 
ATOM      2  O   UNL     1       4.930   1.346  -0.117  0.00  0.00    -0.270 OA
ATOM      3  N   UNL     1       6.119  -0.524   0.042  0.00  0.00    -0.297 N 
ATOM      4  C   UNL     1       6.159  -1.992   0.030  0.00  0.00    +0.108 C 
ATOM      5  C   UNL     1       6.937  -2.474   1.258  0.00  0.00    +0.020 C 
ATOM      6  C   UNL     1       8.315  -1.808   1.277  0.00  0.00    +0.016 C 
ATOM      7  C   UNL     1       8.148  -0.290   1.376  0.00  0.00    +0.094 C 
ATOM      8  C   UNL     1       7.384   0.216   0.144  0.00  0.00    +0.120 C 
ENDROOT
BRANCH   1  18
ATOM      9  C   UNL     1       0.648   0.204   2.721  0.00  0.00    +0.001 A 
ATOM     10  C   UNL     1       1.837   0.929   2.748  0.00  0.00    +0.001 A 
ATOM     11  C   UNL     1       2.834   0.675   1.854  0.00  0.00    +0.009 A 
ATOM     12  C   UNL     1       2.663  -0.330   0.892  0.00  0.00    -0.006 A 
ATOM     13  C   UNL     1       1.455  -1.069   0.863  0.00  0.00    -0.017 A 
ATOM     14  C   UNL     1       0.449  -0.779   1.800  0.00  0.00    +0.008 A 
ATOM     15  C   UNL     1       1.283  -2.077  -0.101  0.00  0.00    +0.008 A 
ATOM     16  C   UNL     1       2.273  -2.340  -1.000  0.00  0.00    +0.001 A 
ATOM     17  C   UNL     1       3.465  -1.626  -0.987  0.00  0.00    +0.014 A 
ATOM     18  C   UNL     1       3.678  -0.622  -0.054  0.00  0.00    +0.045 A 
ENDBRANCH   1  18
BRANCH   7  19
ATOM     19  C   UNL     1       9.505   0.362   1.429  0.00  0.00    +0.234 C 
ATOM     20  O   UNL     1      10.508  -0.319   1.391  0.00  0.00    -0.274 OA
ATOM     21  N   UNL     1       9.605   1.703   1.518  0.00  0.00    -0.234 N 
ATOM     22  H   UNL     1       8.803   2.248   1.548  0.00  0.00    +0.173 HD
BRANCH  21  23
ATOM     23  N   UNL     1      10.867   2.310   1.567  0.00  0.00    -0.229 N 
ATOM     24  C   UNL     1      10.967   3.651   1.656  0.00  0.00    +0.276 C 
ATOM     25  O   UNL     1       9.961   4.335   1.694  0.00  0.00    -0.267 OA
ATOM     26  H   UNL     1      11.669   1.765   1.536  0.00  0.00    +0.173 HD
BRANCH  24  27
ATOM     27  C   UNL     1      12.288   4.286   1.707  0.00  0.00    +0.104 A 
ATOM     28  C   UNL     1      12.539   5.639   1.804  0.00  0.00    +0.047 A 
ATOM     29  C   UNL     1      13.928   5.799   1.822  0.00  0.00    +0.036 A 
ATOM     30  C   UNL     1      14.489   4.569   1.738  0.00  0.00    +0.098 A 
ATOM     31  N   UNL     1      13.503   3.641   1.673  0.00  0.00    -0.356 N 
ATOM     32  H   UNL     1      13.632   2.681   1.611  0.00  0.00    +0.166 HD
ATOM     33 BR   UNL     1      14.858   7.441   1.943  0.00  0.00    -0.049 Br
ENDBRANCH  24  27
ENDBRANCH  21  23
ENDBRANCH   7  19
TORSDOF 4
