REMARK  Name = ZINC09980936
REMARK  10 active torsions:
REMARK  status: ('A' for Active; 'I' for Inactive)
REMARK    1  A    between atoms: C_1  and  C_2
REMARK    2  A    between atoms: C_3  and  C_32
REMARK    3  A    between atoms: C_5  and  N_11
REMARK    4  A    between atoms: C_6  and  C_7
REMARK    5  A    between atoms: C_7  and  O_9
REMARK    6  A    between atoms: O_9  and  C_10
REMARK    7  A    between atoms: C_12  and  C_14
REMARK    8  A    between atoms: C_14  and  S_15
REMARK    9  A    between atoms: S_15  and  C_16
REMARK   10  A    between atoms: C_22  and  C_27
REMARK                            x       y       z     vdW  Elec       q    Type
REMARK                         _______ _______ _______ _____ _____    ______ ____
ROOT
ATOM      1  S   UNL     1      -2.689   0.750   0.019  0.00  0.00    -0.078 S 
ENDROOT
BRANCH   1   2
ATOM      2  C   UNL     1      -4.064   1.851   0.031  0.00  0.00    +0.170 A 
ATOM      3  N   UNL     1      -5.332   1.346   0.029  0.00  0.00    -0.301 N 
ATOM      4  H   UNL     1      -5.462   0.385   0.020  0.00  0.00    +0.171 HD
ATOM      5  C   UNL     1      -6.406   2.157   0.044  0.00  0.00    +0.261 A 
ATOM      6  O   UNL     1      -7.532   1.690   0.047  0.00  0.00    -0.267 OA
ATOM      7  C   UNL     1      -6.210   3.572   0.051  0.00  0.00    +0.080 A 
ATOM      8  C   UNL     1      -7.206   4.640   0.061  0.00  0.00    +0.010 A 
ATOM      9  C   UNL     1      -6.780   5.927   0.065  0.00  0.00    +0.057 A 
ATOM     10  S   UNL     1      -5.004   5.775   0.056  0.00  0.00    -0.076 S 
ATOM     11  C   UNL     1      -4.873   4.006   0.047  0.00  0.00    +0.117 A 
ATOM     12  N   UNL     1      -3.856   3.152   0.037  0.00  0.00    -0.216 NA
BRANCH   8  13
ATOM     13  C   UNL     1      -8.649   4.324   0.066  0.00  0.00    +0.021 A 
ATOM     14  C   UNL     1      -9.634   4.800   0.891  0.00  0.00    +0.016 A 
ATOM     15  C   UNL     1     -10.927   4.359   0.702  0.00  0.00    +0.008 A 
ATOM     16  C   UNL     1     -11.182   3.463  -0.285  0.00  0.00    +0.046 A 
ATOM     17  S   UNL     1      -9.563   3.218  -0.996  0.00  0.00    -0.097 S 
ENDBRANCH   8  13
ENDBRANCH   1   2
BRANCH   1  18
ATOM     18  C   UNL     1      -1.330   1.944   0.019  0.00  0.00    +0.173 C 
BRANCH  18  20
ATOM     19  N   UNL     1       1.143   1.898   0.001  0.00  0.00    -0.279 N 
ATOM     20  C   UNL     1      -0.014   1.209   0.009  0.00  0.00    +0.228 C 
ATOM     21  O   UNL     1       0.002  -0.004   0.002  0.00  0.00    -0.275 OA
ATOM     22  H   UNL     1       1.130   2.868   0.007  0.00  0.00    +0.155 HD
BRANCH  19  27
ATOM     23  C   UNL     1       6.166   1.262  -0.051  0.00  0.00    +0.045 C 
ATOM     24  C   UNL     1       4.730   0.805  -0.039  0.00  0.00    -0.025 A 
ATOM     25  C   UNL     1       4.410  -0.501  -0.043  0.00  0.00    -0.008 A 
ATOM     26  S   UNL     1       2.630  -0.488  -0.018  0.00  0.00    -0.078 S 
ATOM     27  C   UNL     1       2.353   1.222  -0.014  0.00  0.00    +0.086 A 
ATOM     28  C   UNL     1       3.639   1.751  -0.023  0.00  0.00    +0.091 A 
ATOM     29  C   UNL     1       5.336  -1.690  -0.058  0.00  0.00    +0.052 C 
BRANCH  28  30
ATOM     30  C   UNL     1       3.876   3.196  -0.018  0.00  0.00    +0.342 C 
ATOM     31  O   UNL     1       3.984   3.791   1.037  0.00  0.00    -0.245 OA
BRANCH  30  32
ATOM     32  O   UNL     1       3.973   3.868  -1.184  0.00  0.00    -0.464 OA
ATOM     33  C   UNL     1       4.207   5.298  -1.103  0.00  0.00    +0.280 C 
ENDBRANCH  30  32
ENDBRANCH  28  30
ENDBRANCH  19  27
ENDBRANCH  18  20
ENDBRANCH   1  18
TORSDOF 7
