REMARK  Name = ZINC63271667
REMARK  3 active torsions:
REMARK  status: ('A' for Active; 'I' for Inactive)
REMARK    1  A    between atoms: N_18  and  C_19
REMARK    2  A    between atoms: C_19  and  C_20
REMARK    3  A    between atoms: N_22  and  C_23
REMARK                            x       y       z     vdW  Elec       q    Type
REMARK                         _______ _______ _______ _____ _____    ______ ____
ROOT
ATOM      1  C   UNL     1      -0.004   1.364   0.313  0.00  0.00    +0.022 A 
ATOM      2  C   UNL     1       1.120   2.110   0.275  0.00  0.00    +0.027 A 
ATOM      3  C   UNL     1       2.397   1.488   0.221  0.00  0.00    +0.043 A 
ATOM      4  N   UNL     1       3.610   1.988   0.158  0.00  0.00    -0.376 N 
ATOM      5  C   UNL     1       4.569   0.888   0.201  0.00  0.00    +0.124 C 
ATOM      6  C   UNL     1       5.497   0.891  -1.019  0.00  0.00    +0.138 C 
ATOM      7  N   UNL     1       6.133  -0.433  -1.107  0.00  0.00    -0.283 N 
ATOM      8  C   UNL     1       5.318  -1.644  -1.258  0.00  0.00    +0.114 C 
ATOM      9  C   UNL     1       4.337  -1.748  -0.075  0.00  0.00    +0.052 C 
ATOM     10  C   UNL     1       3.732  -0.379   0.138  0.00  0.00    -0.035 C 
ATOM     11  C   UNL     1       2.450   0.005   0.201  0.00  0.00    +0.001 A 
ATOM     12  C   UNL     1       1.179  -0.731   0.248  0.00  0.00    +0.030 A 
ATOM     13  C   UNL     1       0.018  -0.038   0.301  0.00  0.00    +0.042 A 
ATOM     14 CL   UNL     1      -1.483  -0.909   0.358  0.00  0.00    -0.084 Cl
ATOM     15  C   UNL     1       7.475  -0.535  -1.048  0.00  0.00    +0.303 C 
ATOM     16  O   UNL     1       8.161   0.469  -1.025  0.00  0.00    -0.253 OA
ATOM     17  N   UNL     1       8.058  -1.750  -1.015  0.00  0.00    -0.291 N 
ATOM     18  H   UNL     1       7.518  -2.550  -1.108  0.00  0.00    +0.151 HD
ATOM     19  H   UNL     1       3.831   2.931   0.093  0.00  0.00    +0.160 HD
ENDROOT
BRANCH  17  20
ATOM     20  C   UNL     1       9.508  -1.862  -0.837  0.00  0.00    +0.202 C 
BRANCH  20  21
ATOM     21  C   UNL     1       9.903  -3.317  -0.835  0.00  0.00    +0.234 C 
ATOM     22  O   UNL     1       9.056  -4.175  -0.969  0.00  0.00    -0.274 OA
ATOM     23  N   UNL     1      11.196  -3.663  -0.685  0.00  0.00    -0.284 N 
ATOM     24  H   UNL     1      11.864  -2.982  -0.507  0.00  0.00    +0.155 HD
BRANCH  23  25
ATOM     25  C   UNL     1      11.574  -4.995  -0.785  0.00  0.00    +0.034 C 
ATOM     26  C   UNL     1      12.504  -5.380  -1.725  0.00  0.00    +0.029 C 
ATOM     27  C   UNL     1      12.765  -6.754  -1.774  0.00  0.00    -0.016 C 
ATOM     28  C   UNL     1      13.864  -7.467  -2.095  0.00  0.00    +0.025 C 
ATOM     29  C   UNL     1      13.681  -8.808  -1.705  0.00  0.00    +0.106 C 
ATOM     30  N   UNL     1      12.483  -9.025  -1.235  0.00  0.00    -0.279 NA
ATOM     31  C   UNL     1      11.726  -7.790  -1.375  0.00  0.00    +0.158 C 
ATOM     32  C   UNL     1      11.059  -7.307  -0.122  0.00  0.00    +0.006 C 
ATOM     33  C   UNL     1      10.988  -5.993   0.114  0.00  0.00    +0.021 C 
ENDBRANCH  23  25
ENDBRANCH  20  21
ENDBRANCH  17  20
TORSDOF 3
