REMARK  Name = ZINC19945097
REMARK  5 active torsions:
REMARK  status: ('A' for Active; 'I' for Inactive)
REMARK    1  A    between atoms: C_3  and  N_24
REMARK    2  A    between atoms: C_6  and  C_7
REMARK    3  A    between atoms: C_7  and  C_8
REMARK    4  A    between atoms: N_10  and  C_11
REMARK    5  A    between atoms: C_14  and  N_18
REMARK                            x       y       z     vdW  Elec       q    Type
REMARK                         _______ _______ _______ _____ _____    ______ ____
ROOT
ATOM      1  C   UNL     1       1.708   6.151   0.714  0.00  0.00    +0.222 C 
ATOM      2  O   UNL     1       2.228   7.213   0.985  0.00  0.00    -0.275 OA
ATOM      3  N   UNL     1       1.142   5.411   1.688  0.00  0.00    -0.285 N 
ATOM      4  H   UNL     1       0.603   4.486   1.433  0.00  0.00    +0.155 HD
ENDROOT
BRANCH   3   5
ATOM      5  C   UNL     1       1.239   5.819   3.025  0.00  0.00    +0.035 A 
ATOM      6  C   UNL     1       1.352   4.871   4.033  0.00  0.00    +0.025 A 
ATOM      7  C   UNL     1       1.454   5.272   5.350  0.00  0.00    +0.026 A 
ATOM      8  C   UNL     1       1.432   6.624   5.668  0.00  0.00    +0.048 A 
ATOM      9  C   UNL     1       1.314   7.572   4.660  0.00  0.00    +0.064 A 
ATOM     10  C   UNL     1       1.218   7.170   3.341  0.00  0.00    +0.045 A 
ATOM     11 CL   UNL     1       1.287   9.262   5.056  0.00  0.00    -0.082 Cl
BRANCH   8  12
ATOM     12  N   UNL     1       1.530   7.031   7.004  0.00  0.00    -0.329 N 
ATOM     13  C   UNL     1       2.831   6.657   7.574  0.00  0.00    +0.105 C 
ATOM     14  C   UNL     1       2.959   7.242   8.982  0.00  0.00    +0.019 C 
ATOM     15  C   UNL     1       1.824   6.705   9.858  0.00  0.00    +0.003 C 
ATOM     16  C   UNL     1       0.481   7.067   9.217  0.00  0.00    +0.019 C 
ATOM     17  C   UNL     1       0.424   6.487   7.802  0.00  0.00    +0.105 C 
ENDBRANCH   8  12
ENDBRANCH   3   5
BRANCH   1  18
ATOM     18  C   UNL     1       1.693   5.660  -0.711  0.00  0.00    +0.131 C 
BRANCH  18  24
ATOM     19  C   UNL     1       3.746   6.568  -1.819  0.00  0.00    +0.006 A 
ATOM     20  C   UNL     1       4.380   7.490  -2.631  0.00  0.00    +0.033 A 
ATOM     21  C   UNL     1       3.654   8.509  -3.218  0.00  0.00    +0.126 A 
ATOM     22  C   UNL     1       2.294   8.606  -2.994  0.00  0.00    +0.033 A 
ATOM     23  C   UNL     1       1.659   7.684  -2.183  0.00  0.00    +0.006 A 
ATOM     24  C   UNL     1       2.385   6.665  -1.595  0.00  0.00    -0.038 A 
BRANCH  21  25
ATOM     25  N   UNL     1       4.334   9.496  -4.087  0.00  0.00    +0.056 N 
ATOM     26  O   UNL     1       5.533   9.411  -4.284  0.00  0.00    -0.126 OA
ATOM     27  O   UNL     1       3.694  10.394  -4.605  0.00  0.00    -0.126 OA
ENDBRANCH  21  25
ENDBRANCH  18  24
ENDBRANCH   1  18
TORSDOF 5
