REMARK  Name = ZINC22934505
REMARK  9 active torsions:
REMARK  status: ('A' for Active; 'I' for Inactive)
REMARK    1  A    between atoms: C_1  and  N_2
REMARK    2  A    between atoms: N_2  and  C_3
REMARK    3  A    between atoms: N_2  and  S_4
REMARK    4  A    between atoms: S_4  and  C_7
REMARK    5  A    between atoms: N_12  and  C_14
REMARK    6  A    between atoms: C_14  and  N_15
REMARK    7  A    between atoms: N_18  and  C_21
REMARK    8  A    between atoms: C_21  and  C_22
REMARK    9  A    between atoms: C_21  and  C_28
REMARK                            x       y       z     vdW  Elec       q    Type
REMARK                         _______ _______ _______ _____ _____    ______ ____
ROOT
ATOM      1  N   UNL     1      -0.668   4.243   0.393  0.00  0.00    +0.393 N 
ATOM      2  C   UNL     1      -0.915   2.799   0.514  0.00  0.00    -0.061 C 
ATOM      3  C   UNL     1       0.026   2.043  -0.426  0.00  0.00    +0.067 C 
ATOM      4  N   UNL     1      -0.193   2.498  -1.806  0.00  0.00    -0.295 NA
ATOM      5  C   UNL     1       0.054   3.942  -1.927  0.00  0.00    +0.067 C 
ATOM      6  C   UNL     1      -0.887   4.699  -0.987  0.00  0.00    -0.061 C 
ATOM      7  H   UNL     1       0.386   4.429   0.649  0.00  0.00    -0.079 HD
ENDROOT
BRANCH   1   8
ATOM      8  C   UNL     1      -1.501   5.000   1.336  0.00  0.00    +0.047 C 
BRANCH   8  14
ATOM      9  C   UNL     1      -1.384   3.661   4.775  0.00  0.00    +0.121 A 
ATOM     10  C   UNL     1      -0.209   4.244   5.273  0.00  0.00    +0.032 A 
ATOM     11  C   UNL     1       0.521   5.066   4.466  0.00  0.00    +0.035 A 
ATOM     12  C   UNL     1       0.082   5.312   3.155  0.00  0.00    +0.085 A 
ATOM     13  S   UNL     1       0.986   6.341   2.128  0.00  0.00    -0.033 S 
ATOM     14  N   UNL     1      -1.050   4.738   2.705  0.00  0.00    -0.356 N 
ATOM     15  C   UNL     1      -1.783   3.923   3.509  0.00  0.00    +0.113 A 
BRANCH   9  16
ATOM     16  S   UNL     1      -2.342   2.595   5.799  0.00  0.00    +0.062 S 
ATOM     17  O   UNL     1      -3.086   1.755   4.928  0.00  0.00    -0.153 OA
ATOM     18  O   UNL     1      -1.460   2.079   6.786  0.00  0.00    -0.153 OA
BRANCH  16  20
ATOM     19  C   UNL     1      -4.757   3.796   6.003  0.00  0.00    +0.131 C 
ATOM     20  N   UNL     1      -3.442   3.542   6.597  0.00  0.00    -0.183 NA
ATOM     21  C   UNL     1      -3.101   4.126   7.896  0.00  0.00    +0.131 C 
ENDBRANCH  16  20
ENDBRANCH   9  16
ENDBRANCH   8  14
ENDBRANCH   1   8
BRANCH   4  22
ATOM     22  C   UNL     1       0.640   1.741  -2.750  0.00  0.00    +0.117 C 
BRANCH  22  23
ATOM     23  C   UNL     1       0.244   0.287  -2.714  0.00  0.00    -0.026 A 
ATOM     24  C   UNL     1      -1.093  -0.066  -2.734  0.00  0.00    +0.005 A 
ATOM     25  C   UNL     1      -1.456  -1.399  -2.706  0.00  0.00    +0.000 A 
ATOM     26  C   UNL     1      -0.483  -2.380  -2.648  0.00  0.00    +0.000 A 
ATOM     27  C   UNL     1       0.853  -2.027  -2.623  0.00  0.00    +0.000 A 
ATOM     28  C   UNL     1       1.217  -0.693  -2.656  0.00  0.00    +0.005 A 
ENDBRANCH  22  23
BRANCH  22  29
ATOM     29  C   UNL     1       0.441   2.281  -4.142  0.00  0.00    -0.026 A 
ATOM     30  C   UNL     1      -0.836   2.517  -4.616  0.00  0.00    +0.005 A 
ATOM     31  C   UNL     1      -1.018   3.018  -5.892  0.00  0.00    +0.000 A 
ATOM     32  C   UNL     1       0.076   3.274  -6.697  0.00  0.00    +0.000 A 
ATOM     33  C   UNL     1       1.353   3.033  -6.224  0.00  0.00    +0.000 A 
ATOM     34  C   UNL     1       1.535   2.537  -4.947  0.00  0.00    +0.005 A 
ENDBRANCH  22  29
ENDBRANCH   4  22
TORSDOF 7
