REMARK  Name = ZINC39872040
REMARK  6 active torsions:
REMARK  status: ('A' for Active; 'I' for Inactive)
REMARK    1  A    between atoms: C_1  and  C_2
REMARK    2  A    between atoms: C_2  and  C_3
REMARK    3  A    between atoms: C_2  and  C_4
REMARK    4  A    between atoms: C_2  and  C_5
REMARK    5  A    between atoms: C_8  and  C_11
REMARK    6  A    between atoms: N_26  and  C_27
REMARK                            x       y       z     vdW  Elec       q    Type
REMARK                         _______ _______ _______ _____ _____    ______ ____
ROOT
ATOM      1  C   UNL     1       2.707  -1.868  -4.752  0.00  0.00    +0.150 C 
ATOM      2  C   UNL     1       3.611  -3.008  -4.416  0.00  0.00    +0.072 A 
ATOM      3  C   UNL     1       3.330  -4.328  -3.842  0.00  0.00    +0.199 A 
ATOM      4  O   UNL     1       2.203  -4.766  -3.699  0.00  0.00    -0.287 OA
ATOM      5  C   UNL     1       4.551  -5.078  -3.451  0.00  0.00    +0.064 A 
ATOM      6  C   UNL     1       4.449  -6.257  -2.713  0.00  0.00    +0.015 A 
ATOM      7  C   UNL     1       5.582  -6.934  -2.357  0.00  0.00    +0.001 A 
ATOM      8  C   UNL     1       6.829  -6.452  -2.728  0.00  0.00    +0.004 A 
ATOM      9  C   UNL     1       6.948  -5.290  -3.458  0.00  0.00    +0.047 A 
ATOM     10  C   UNL     1       5.807  -4.583  -3.835  0.00  0.00    +0.139 A 
ATOM     11  O   UNL     1       5.947  -3.450  -4.561  0.00  0.00    -0.450 OA
ATOM     12  C   UNL     1       4.886  -2.637  -4.738  0.00  0.00    +0.199 A 
ATOM     13  C   UNL     1       4.847  -1.267  -5.276  0.00  0.00    +0.287 C 
ATOM     14  O   UNL     1       5.816  -0.639  -5.655  0.00  0.00    -0.266 OA
ATOM     15  N   UNL     1       3.576  -0.809  -5.290  0.00  0.00    -0.253 N 
ENDROOT
BRANCH   1  19
ATOM     16  C   UNL     1       0.707  -0.490  -1.238  0.00  0.00    -0.042 A 
ATOM     17  C   UNL     1       0.036  -1.284  -2.148  0.00  0.00    +0.004 A 
ATOM     18  C   UNL     1       0.683  -1.730  -3.286  0.00  0.00    +0.006 A 
ATOM     19  C   UNL     1       2.001  -1.381  -3.513  0.00  0.00    -0.022 A 
ATOM     20  C   UNL     1       2.672  -0.586  -2.603  0.00  0.00    +0.006 A 
ATOM     21  C   UNL     1       2.024  -0.137  -1.467  0.00  0.00    +0.004 A 
BRANCH  16  23
ATOM     22  C   UNL     1      -0.019   1.526   0.010  0.00  0.00    +0.015 C 
ATOM     23  C   UNL     1       0.002  -0.004   0.002  0.00  0.00    -0.013 C 
ATOM     24  C   UNL     1       0.742  -0.511   1.242  0.00  0.00    +0.015 C 
ATOM     25  C   UNL     1      -1.433  -0.534   0.013  0.00  0.00    +0.015 C 
ENDBRANCH  16  23
ENDBRANCH   1  19
BRANCH  15  26
ATOM     26  C   UNL     1       3.159   0.448  -5.737  0.00  0.00    +0.038 A 
ATOM     27  C   UNL     1       1.815   0.792  -5.690  0.00  0.00    +0.023 A 
ATOM     28  C   UNL     1       1.406   2.035  -6.133  0.00  0.00    +0.002 A 
ATOM     29  C   UNL     1       2.334   2.936  -6.622  0.00  0.00    +0.000 A 
ATOM     30  C   UNL     1       3.674   2.596  -6.670  0.00  0.00    +0.002 A 
ATOM     31  C   UNL     1       4.090   1.357  -6.224  0.00  0.00    +0.023 A 
ENDBRANCH  15  26
TORSDOF 3
