REMARK  Name = ZINC64889520
REMARK  7 active torsions:
REMARK  status: ('A' for Active; 'I' for Inactive)
REMARK    1  A    between atoms: C_1  and  C_2
REMARK    2  A    between atoms: C_4  and  C_35
REMARK    3  A    between atoms: C_5  and  C_28
REMARK    4  A    between atoms: C_6  and  S_8
REMARK    5  A    between atoms: S_8  and  N_11
REMARK    6  A    between atoms: C_14  and  C_17
REMARK    7  A    between atoms: N_19  and  C_20
REMARK                            x       y       z     vdW  Elec       q    Type
REMARK                         _______ _______ _______ _____ _____    ______ ____
ROOT
ATOM      1  N   UNL     1       1.334   0.710   2.922  0.00  0.00    -0.180 NA
ATOM      2  C   UNL     1       1.990   1.879   2.320  0.00  0.00    +0.110 C 
ATOM      3  C   UNL     1       2.850   2.565   3.386  0.00  0.00    +0.030 C 
ATOM      4  C   UNL     1       1.982   2.890   4.604  0.00  0.00    +0.077 C 
ATOM      5  C   UNL     1       1.424   1.594   5.195  0.00  0.00    +0.030 C 
ATOM      6  C   UNL     1       0.544   0.897   4.146  0.00  0.00    +0.110 C 
ENDROOT
BRANCH   4   7
ATOM      7  C   UNL     1       2.817   3.597   5.641  0.00  0.00    +0.216 C 
ATOM      8  O   UNL     1       3.990   3.818   5.427  0.00  0.00    -0.276 OA
ATOM      9  N   UNL     1       2.259   3.982   6.806  0.00  0.00    -0.312 N 
ATOM     10  H   UNL     1       1.321   3.805   6.977  0.00  0.00    +0.149 HD
BRANCH   9  11
ATOM     11  C   UNL     1       3.071   4.669   7.814  0.00  0.00    +0.073 C 
ATOM     12  C   UNL     1       3.799   3.634   8.674  0.00  0.00    +0.022 C 
ATOM     13  C   UNL     1       4.929   4.317   9.446  0.00  0.00    +0.002 C 
ATOM     14  C   UNL     1       5.683   5.267   8.514  0.00  0.00    +0.000 C 
ATOM     15  C   UNL     1       5.452   6.712   8.961  0.00  0.00    +0.000 C 
ATOM     16  C   UNL     1       4.049   7.156   8.542  0.00  0.00    +0.000 C 
ATOM     17  C   UNL     1       3.014   6.530   9.480  0.00  0.00    +0.002 C 
ATOM     18  C   UNL     1       2.164   5.523   8.703  0.00  0.00    +0.022 C 
ENDBRANCH   9  11
ENDBRANCH   4   7
BRANCH   1  19
ATOM     19  S   UNL     1       1.477  -0.788   2.231  0.00  0.00    +0.044 S 
ATOM     20  O   UNL     1       1.427  -1.697   3.321  0.00  0.00    -0.157 OA
ATOM     21  O   UNL     1       2.637  -0.701   1.414  0.00  0.00    -0.157 OA
BRANCH  19  27
ATOM     22  C   UNL     1      -1.716  -1.581   3.196  0.00  0.00    +0.063 C 
ATOM     23  C   UNL     1      -1.260  -0.758   2.019  0.00  0.00    +0.046 C 
ATOM     24  N   UNL     1      -1.862   0.270   1.515  0.00  0.00    -0.259 NA
ATOM     25  C   UNL     1      -1.226   0.809   0.467  0.00  0.00    +0.049 C 
ATOM     26  C   UNL     1      -0.084   0.147   0.170  0.00  0.00    +0.066 C 
ATOM     27  C   UNL     1      -0.003  -0.968   1.198  0.00  0.00    +0.228 C 
ATOM     28  C   UNL     1      -1.723   2.011  -0.293  0.00  0.00    +0.066 C 
BRANCH  26  29
ATOM     29  C   UNL     1       0.867   0.443  -0.901  0.00  0.00    +0.247 C 
ATOM     30  O   UNL     1       1.912   1.013  -0.647  0.00  0.00    -0.270 OA
ATOM     31  N   UNL     1       0.585   0.086  -2.170  0.00  0.00    -0.298 N 
ATOM     32  C   UNL     1      -0.681  -0.500  -2.634  0.00  0.00    +0.108 C 
ATOM     33  C   UNL     1      -0.534  -0.767  -4.147  0.00  0.00    +0.020 C 
ATOM     34  C   UNL     1       1.003  -0.842  -4.339  0.00  0.00    +0.020 C 
ATOM     35  C   UNL     1       1.494   0.222  -3.322  0.00  0.00    +0.108 C 
ENDBRANCH  26  29
ENDBRANCH  19  27
ENDBRANCH   1  19
TORSDOF 5
