REMARK  Name = ZINC20028166
REMARK  5 active torsions:
REMARK  status: ('A' for Active; 'I' for Inactive)
REMARK    1  A    between atoms: C_12  and  C_14
REMARK    2  A    between atoms: C_17  and  S_20
REMARK    3  A    between atoms: S_20  and  C_21
REMARK    4  A    between atoms: N_22  and  C_23
REMARK    5  A    between atoms: C_23  and  C_24
REMARK                            x       y       z     vdW  Elec       q    Type
REMARK                         _______ _______ _______ _____ _____    ______ ____
ROOT
ATOM      1  C   UNL     1      -0.016   1.337   0.009  0.00  0.00    +0.033 C 
ATOM      2  C   UNL     1       0.002  -0.004   0.002  0.00  0.00    +0.031 C 
ATOM      3  C   UNL     1      -1.248  -0.784   0.004  0.00  0.00    +0.090 C 
ATOM      4  C   UNL     1      -1.184  -2.116  -0.216  0.00  0.00    +0.249 C 
ATOM      5  O   UNL     1      -2.323  -2.848  -0.251  0.00  0.00    -0.270 OA
ATOM      6  N   UNL     1       0.035  -2.733  -0.405  0.00  0.00    -0.215 N 
ATOM      7  C   UNL     1       1.191  -2.001  -0.483  0.00  0.00    +0.199 C 
ATOM      8  N   UNL     1       1.214  -0.716  -0.013  0.00  0.00    -0.287 N 
ATOM      9  N   UNL     1       2.257  -2.522  -1.054  0.00  0.00    -0.186 NA
ATOM     10  C   UNL     1       2.216  -3.752  -1.594  0.00  0.00    +0.194 C 
ATOM     11  N   UNL     1       1.215  -4.564  -1.389  0.00  0.00    -0.335 N 
ATOM     12  C   UNL     1       0.120  -4.196  -0.487  0.00  0.00    +0.211 C 
ATOM     13  N   UNL     1       3.263  -4.170  -2.390  0.00  0.00    -0.311 N 
ATOM     14  H   UNL     1       3.248  -5.054  -2.788  0.00  0.00    +0.149 HD
ATOM     15  H   UNL     1       2.038  -0.311   0.300  0.00  0.00    +0.155 HD
ATOM     16  H   UNL     1       1.195  -5.423  -1.839  0.00  0.00    +0.164 HD
ENDROOT
BRANCH  12  17
ATOM     17  C   UNL     1       0.385  -4.763   0.884  0.00  0.00    -0.007 A 
ATOM     18  C   UNL     1      -0.087  -4.106   2.005  0.00  0.00    +0.008 A 
ATOM     19  C   UNL     1       0.154  -4.622   3.263  0.00  0.00    +0.015 A 
ATOM     20  C   UNL     1       0.872  -5.804   3.401  0.00  0.00    +0.008 A 
ATOM     21  C   UNL     1       1.345  -6.462   2.272  0.00  0.00    +0.015 A 
ATOM     22  C   UNL     1       1.095  -5.942   1.017  0.00  0.00    +0.008 A 
BRANCH  20  23
ATOM     23  S   UNL     1       1.183  -6.466   5.004  0.00  0.00    -0.129 S 
ATOM     24  C   UNL     1       2.132  -7.978   4.678  0.00  0.00    +0.090 C 
ENDBRANCH  20  23
ENDBRANCH  12  17
BRANCH  13  25
ATOM     25  C   UNL     1       4.398  -3.276  -2.635  0.00  0.00    +0.139 C 
BRANCH  25  26
ATOM     26  C   UNL     1       5.397  -3.966  -3.528  0.00  0.00    -0.030 A 
ATOM     27  C   UNL     1       6.408  -4.729  -2.974  0.00  0.00    +0.006 A 
ATOM     28  C   UNL     1       7.324  -5.362  -3.792  0.00  0.00    +0.020 A 
ATOM     29  C   UNL     1       7.230  -5.232  -5.166  0.00  0.00    +0.041 A 
ATOM     30  C   UNL     1       6.218  -4.468  -5.720  0.00  0.00    +0.020 A 
ATOM     31  C   UNL     1       5.299  -3.840  -4.901  0.00  0.00    +0.006 A 
ATOM     32 CL   UNL     1       8.381  -6.026  -6.195  0.00  0.00    -0.084 Cl
ENDBRANCH  25  26
ENDBRANCH  13  25
TORSDOF 4
