REMARK  Name = ZINC04029378
REMARK  7 active torsions:
REMARK  status: ('A' for Active; 'I' for Inactive)
REMARK    1  A    between atoms: C_1  and  C_2
REMARK    2  A    between atoms: C_4  and  C_30
REMARK    3  A    between atoms: N_5  and  C_7
REMARK    4  A    between atoms: C_7  and  C_8
REMARK    5  A    between atoms: C_10  and  C_16
REMARK    6  A    between atoms: C_13  and  O_14
REMARK    7  A    between atoms: O_14  and  C_15
REMARK                            x       y       z     vdW  Elec       q    Type
REMARK                         _______ _______ _______ _____ _____    ______ ____
ROOT
ATOM      1  C   UNL     1       0.984   2.158  -0.377  0.00  0.00    +0.016 A 
ATOM      2  C   UNL     1      -0.272   1.605  -0.537  0.00  0.00    +0.011 A 
ATOM      3  C   UNL     1      -1.370   2.423  -0.727  0.00  0.00    -0.055 A 
ATOM      4  C   UNL     1      -1.216   3.797  -0.746  0.00  0.00    +0.006 A 
ATOM      5  C   UNL     1       0.037   4.355  -0.585  0.00  0.00    +0.046 A 
ATOM      6  C   UNL     1       1.141   3.536  -0.400  0.00  0.00    +0.125 A 
ENDROOT
BRANCH   3   7
ATOM      7  C   UNL     1      -2.738   1.816  -0.908  0.00  0.00    +0.007 C 
ATOM      8  C   UNL     1      -3.095   1.801  -2.376  0.00  0.00    +0.010 A 
ATOM      9  C   UNL     1      -4.315   2.154  -2.841  0.00  0.00    -0.022 A 
ATOM     10  C   UNL     1      -4.280   2.017  -4.280  0.00  0.00    +0.003 A 
ATOM     11  C   UNL     1      -5.232   2.238  -5.280  0.00  0.00    +0.010 A 
ATOM     12  C   UNL     1      -4.841   1.997  -6.574  0.00  0.00    +0.001 A 
ATOM     13  C   UNL     1      -3.566   1.554  -6.888  0.00  0.00    +0.002 A 
ATOM     14  C   UNL     1      -2.604   1.327  -5.919  0.00  0.00    +0.026 A 
ATOM     15  C   UNL     1      -2.973   1.564  -4.596  0.00  0.00    +0.047 A 
ATOM     16  N   UNL     1      -2.287   1.445  -3.421  0.00  0.00    -0.359 N 
ATOM     17  H   UNL     1      -1.366   1.153  -3.339  0.00  0.00    +0.166 HD
ATOM     18  C   UNL     1      -5.449   2.596  -1.950  0.00  0.00    +0.018 C 
ATOM     19  C   UNL     1      -5.105   2.192  -0.510  0.00  0.00    -0.076 C 
ATOM     20  N   UNL     1      -3.733   2.634  -0.181  0.00  0.00    +0.387 N 
ATOM     21  H   UNL     1      -3.622   3.619  -0.449  0.00  0.00    -0.084 HD
ATOM     22  H   UNL     1      -3.579   2.534   0.829  0.00  0.00    -0.084 HD
ENDBRANCH   3   7
BRANCH   6  23
ATOM     23  O   UNL     1       2.376   4.082  -0.243  0.00  0.00    -0.495 OA
ATOM     24  C   UNL     1       2.463   5.508  -0.278  0.00  0.00    +0.277 C 
ENDBRANCH   6  23
BRANCH   1  25
ATOM     25  C   UNL     1       2.181   1.265  -0.175  0.00  0.00    +0.182 C 
BRANCH  25  30
ATOM     26  C   UNL     1       5.115   1.838  -4.207  0.00  0.00    +0.069 C 
ATOM     27  C   UNL     1       4.119   1.286  -3.221  0.00  0.00    +0.078 A 
ATOM     28  C   UNL     1       3.398   0.095  -3.362  0.00  0.00    +0.084 A 
ATOM     29  C   UNL     1       2.611  -0.048  -2.270  0.00  0.00    +0.055 A 
ATOM     30  N   UNL     1       2.827   1.016  -1.466  0.00  0.00    -0.262 N 
ATOM     31  N   UNL     1       3.772   1.841  -2.088  0.00  0.00    -0.174 NA
ATOM     32  C   UNL     1       1.665  -1.189  -2.000  0.00  0.00    +0.067 C 
ATOM     33 CL   UNL     1       3.495  -1.005  -4.702  0.00  0.00    -0.080 Cl
ENDBRANCH  25  30
ENDBRANCH   1  25
TORSDOF 4
