REMARK  Name = ZINC10140947
REMARK  11 active torsions:
REMARK  status: ('A' for Active; 'I' for Inactive)
REMARK    1  A    between atoms: C_1  and  C_2
REMARK    2  A    between atoms: C_2  and  N_57
REMARK    3  A    between atoms: C_3  and  C_4
REMARK    4  A    between atoms: C_3  and  N_57
REMARK    5  A    between atoms: N_6  and  C_7
REMARK    6  A    between atoms: C_12  and  C_13
REMARK    7  A    between atoms: C_17  and  C_18
REMARK    8  A    between atoms: C_17  and  N_57
REMARK    9  A    between atoms: N_20  and  C_21
REMARK   10  A    between atoms: C_21  and  C_23
REMARK   11  A    between atoms: C_21  and  C_30
REMARK                            x       y       z     vdW  Elec       q    Type
REMARK                         _______ _______ _______ _____ _____    ______ ____
ROOT
ATOM      1  N   UNL     1       2.034  -3.115  -4.312  0.00  0.00    +0.391 N 
ATOM      2  H   UNL     1       3.060  -3.074  -4.274  0.00  0.00    -0.080 HD
ENDROOT
BRANCH   1   4
ATOM      3  C   UNL     1       2.309  -0.696  -4.089  0.00  0.00    -0.017 C 
ATOM      4  C   UNL     1       1.520  -1.810  -4.780  0.00  0.00    -0.081 C 
ENDBRANCH   1   4
BRANCH   1   5
ATOM      5  C   UNL     1       1.631  -4.182  -5.251  0.00  0.00    +0.020 C 
BRANCH   5   6
ATOM      6  C   UNL     1       2.352  -3.978  -6.559  0.00  0.00    +0.201 C 
ATOM      7  O   UNL     1       3.104  -3.036  -6.696  0.00  0.00    -0.278 OA
ATOM      8  N   UNL     1       2.161  -4.841  -7.576  0.00  0.00    -0.287 N 
ATOM      9  H   UNL     1       1.608  -5.627  -7.447  0.00  0.00    +0.155 HD
BRANCH   8  10
ATOM     10  C   UNL     1       2.762  -4.604  -8.817  0.00  0.00    +0.045 A 
ATOM     11  C   UNL     1       4.016  -4.010  -8.882  0.00  0.00    +0.024 A 
ATOM     12  C   UNL     1       4.608  -3.781 -10.108  0.00  0.00    +0.002 A 
ATOM     13  C   UNL     1       3.949  -4.134 -11.272  0.00  0.00    +0.001 A 
ATOM     14  C   UNL     1       2.698  -4.721 -11.211  0.00  0.00    +0.014 A 
ATOM     15  C   UNL     1       2.103  -4.956  -9.988  0.00  0.00    +0.076 A 
BRANCH  15  16
ATOM     16  C   UNL     1       0.739  -5.595  -9.923  0.00  0.00    +0.419 C 
ATOM     17  F   UNL     1       0.284  -5.856 -11.220  0.00  0.00    -0.166 F 
ATOM     18  F   UNL     1       0.820  -6.794  -9.206  0.00  0.00    -0.166 F 
ATOM     19  F   UNL     1      -0.152  -4.728  -9.282  0.00  0.00    -0.166 F 
ENDBRANCH  15  16
ENDBRANCH   8  10
ENDBRANCH   5   6
ENDBRANCH   1   5
BRANCH   1  20
ATOM     20  C   UNL     1       1.514  -3.408  -2.960  0.00  0.00    +0.019 C 
BRANCH  20  21
ATOM     21  C   UNL     1       2.382  -4.464  -2.328  0.00  0.00    +0.197 C 
ATOM     22  O   UNL     1       3.265  -4.990  -2.972  0.00  0.00    -0.278 OA
ATOM     23  N   UNL     1       2.178  -4.825  -1.045  0.00  0.00    -0.306 N 
ATOM     24  H   UNL     1       1.472  -4.405  -0.530  0.00  0.00    +0.150 HD
BRANCH  23  25
ATOM     25  C   UNL     1       3.022  -5.853  -0.430  0.00  0.00    +0.140 C 
BRANCH  25  26
ATOM     26  C   UNL     1       2.272  -6.506   0.703  0.00  0.00    -0.022 A 
ATOM     27  C   UNL     1       1.493  -5.739   1.549  0.00  0.00    +0.008 A 
ATOM     28  C   UNL     1       0.802  -6.338   2.585  0.00  0.00    +0.038 A 
ATOM     29  C   UNL     1       0.898  -7.705   2.781  0.00  0.00    +0.123 A 
ATOM     30  C   UNL     1       1.683  -8.472   1.937  0.00  0.00    +0.038 A 
ATOM     31  C   UNL     1       2.369  -7.872   0.898  0.00  0.00    +0.008 A 
ATOM     32  F   UNL     1       0.227  -8.291   3.797  0.00  0.00    -0.205 F 
ENDBRANCH  25  26
BRANCH  25  33
ATOM     33  C   UNL     1       4.280  -5.217   0.101  0.00  0.00    +0.014 A 
ATOM     34  C   UNL     1       5.553  -5.683   0.066  0.00  0.00    +0.013 A 
ATOM     35  C   UNL     1       6.562  -4.920   0.623  0.00  0.00    +0.008 A 
ATOM     36  C   UNL     1       6.249  -3.729   1.188  0.00  0.00    +0.045 A 
ATOM     37  S   UNL     1       4.483  -3.655   0.941  0.00  0.00    -0.099 S 
ENDBRANCH  25  33
ENDBRANCH  23  25
ENDBRANCH  20  21
ENDBRANCH   1  20
TORSDOF 10
