REMARK  Name = ZINC30881864
REMARK  14 active torsions:
REMARK  status: ('A' for Active; 'I' for Inactive)
REMARK    1  A    between atoms: C_1  and  C_2
REMARK    2  A    between atoms: C_4  and  C_26
REMARK    3  A    between atoms: C_6  and  C_23
REMARK    4  A    between atoms: C_9  and  C_11
REMARK    5  A    between atoms: C_11  and  C_12
REMARK    6  A    between atoms: N_14  and  C_15
REMARK    7  A    between atoms: N_14  and  C_16
REMARK    8  A    between atoms: C_16  and  C_17
REMARK    9  A    between atoms: C_23  and  C_24
REMARK   10  A    between atoms: C_23  and  C_25
REMARK   11  A    between atoms: C_26  and  N_27
REMARK   12  A    between atoms: N_30  and  C_31
REMARK   13  A    between atoms: C_34  and  C_37
REMARK   14  A    between atoms: C_37  and  C_39
REMARK                            x       y       z     vdW  Elec       q    Type
REMARK                         _______ _______ _______ _____ _____    ______ ____
ROOT
ATOM      1  C   UNL     1      -0.403   4.545   2.975  0.00  0.00    +0.039 C 
ATOM      2  C   UNL     1      -0.779   3.130   2.620  0.00  0.00    -0.073 C 
ATOM      3  C   UNL     1      -0.816   2.807   1.367  0.00  0.00    -0.022 C 
ATOM      4  C   UNL     1      -1.182   1.443   0.860  0.00  0.00    +0.032 C 
ATOM      5  C   UNL     1      -1.084   0.417   1.991  0.00  0.00    +0.000 C 
ATOM      6  C   UNL     1      -1.842   0.962   3.208  0.00  0.00    +0.012 C 
ATOM      7  C   UNL     1      -1.088   2.182   3.742  0.00  0.00    +0.023 C 
ENDROOT
BRANCH   5   8
ATOM      8  C   UNL     1      -1.712  -0.904   1.543  0.00  0.00    -0.013 C 
ATOM      9  C   UNL     1      -1.495  -1.965   2.624  0.00  0.00    +0.007 C 
ATOM     10  C   UNL     1      -3.212  -0.705   1.317  0.00  0.00    +0.007 C 
ENDBRANCH   5   8
BRANCH   7  11
ATOM     11  C   UNL     1       0.220   1.725   4.391  0.00  0.00    +0.103 C 
BRANCH  11  12
ATOM     12  C   UNL     1      -0.087   0.922   5.629  0.00  0.00    +0.216 C 
ATOM     13  O   UNL     1      -1.238   0.728   5.955  0.00  0.00    -0.276 OA
ATOM     14  N   UNL     1       0.919   0.421   6.373  0.00  0.00    -0.300 N 
ATOM     15  C   UNL     1       2.310   0.656   5.979  0.00  0.00    +0.132 C 
BRANCH  14  16
ATOM     16  C   UNL     1       0.621  -0.359   7.577  0.00  0.00    +0.144 C 
BRANCH  16  17
ATOM     17  C   UNL     1       0.499  -1.817   7.213  0.00  0.00    -0.012 A 
ATOM     18  C   UNL     1       1.614  -2.642   7.239  0.00  0.00    +0.008 A 
ATOM     19  C   UNL     1       1.455  -3.976   6.897  0.00  0.00    +0.020 A 
ATOM     20  C   UNL     1       0.200  -4.436   6.543  0.00  0.00    +0.111 A 
ATOM     21  N   UNL     1      -0.837  -3.622   6.530  0.00  0.00    -0.263 NA
ATOM     22  C   UNL     1      -0.725  -2.349   6.855  0.00  0.00    +0.115 A 
ENDBRANCH  16  17
ENDBRANCH  14  16
ENDBRANCH  11  12
ENDBRANCH   7  11
BRANCH   4  23
ATOM     23  C   UNL     1      -0.227   1.048  -0.268  0.00  0.00    +0.113 C 
BRANCH  23  24
ATOM     24  N   UNL     1      -0.395   1.968  -1.395  0.00  0.00    -0.299 N 
ATOM     25  C   UNL     1       0.348   1.813  -2.509  0.00  0.00    +0.304 C 
ATOM     26  O   UNL     1       1.157   0.909  -2.578  0.00  0.00    -0.253 OA
ATOM     27  N   UNL     1       0.193   2.660  -3.546  0.00  0.00    -0.269 N 
ATOM     28  H   UNL     1      -1.128   2.787  -1.332  0.00  0.00    +0.150 HD
ATOM     29  H   UNL     1      -0.485   3.522  -3.456  0.00  0.00    +0.156 HD
BRANCH  27  30
ATOM     30  C   UNL     1       0.891   2.444  -4.731  0.00  0.00    +0.035 A 
ATOM     31  C   UNL     1       0.286   2.722  -5.954  0.00  0.00    +0.024 A 
ATOM     32  C   UNL     1       0.969   2.518  -7.119  0.00  0.00    +0.013 A 
ATOM     33  C   UNL     1       2.276   2.016  -7.083  0.00  0.00    +0.017 A 
ATOM     34  C   UNL     1       2.879   1.732  -5.851  0.00  0.00    +0.013 A 
ATOM     35  C   UNL     1       2.190   1.945  -4.691  0.00  0.00    +0.024 A 
BRANCH  33  36
ATOM     36  C   UNL     1       3.012   1.788  -8.333  0.00  0.00    +0.160 C 
ATOM     37  O   UNL     1       4.144   1.353  -8.300  0.00  0.00    -0.292 OA
ATOM     38  C   UNL     1       2.361   2.094  -9.657  0.00  0.00    +0.091 C 
ENDBRANCH  33  36
ENDBRANCH  27  30
ENDBRANCH  23  24
ENDBRANCH   4  23
TORSDOF 9
