REMARK  Name = ZINC39659052
REMARK  6 active torsions:
REMARK  status: ('A' for Active; 'I' for Inactive)
REMARK    1  A    between atoms: C_1  and  C_2
REMARK    2  A    between atoms: C_2  and  C_32
REMARK    3  A    between atoms: C_5  and  C_8
REMARK    4  A    between atoms: C_8  and  N_9
REMARK    5  A    between atoms: C_10  and  C_12
REMARK    6  A    between atoms: C_23  and  C_25
REMARK                            x       y       z     vdW  Elec       q    Type
REMARK                         _______ _______ _______ _____ _____    ______ ____
ROOT
ATOM      1  C   UNL     1       2.881  -3.477   4.842  0.00  0.00    +0.100 C 
ATOM      2  C   UNL     1       3.553  -4.677   4.138  0.00  0.00    +0.121 C 
ATOM      3  N   UNL     1       4.474  -5.239   5.154  0.00  0.00    -0.296 N 
ATOM      4  C   UNL     1       3.721  -5.143   6.427  0.00  0.00    +0.115 C 
ATOM      5  C   UNL     1       2.992  -3.788   6.344  0.00  0.00    -0.004 C 
ATOM      6  C   UNL     1       1.603  -3.897   6.965  0.00  0.00    -0.010 C 
ATOM      7  C   UNL     1       1.740  -4.147   8.470  0.00  0.00    -0.082 C 
ATOM      8  N   UNL     1       2.488  -3.044   9.085  0.00  0.00    +0.379 N 
ATOM      9  C   UNL     1       3.854  -3.005   8.549  0.00  0.00    -0.082 C 
ATOM     10  C   UNL     1       3.806  -2.706   7.048  0.00  0.00    -0.010 C 
ATOM     11  C   UNL     1       5.716  -5.727   4.963  0.00  0.00    +0.247 C 
ATOM     12  O   UNL     1       6.251  -5.620   3.877  0.00  0.00    -0.270 OA
ATOM     13  H   UNL     1       2.024  -2.171   8.884  0.00  0.00    -0.086 HD
ATOM     14  H   UNL     1       2.524  -3.181  10.084  0.00  0.00    -0.086 HD
ENDROOT
BRANCH  11  15
ATOM     15  C   UNL     1       6.428  -6.391   6.076  0.00  0.00    +0.038 A 
ATOM     16  C   UNL     1       5.713  -6.902   7.160  0.00  0.00    +0.013 A 
ATOM     17  C   UNL     1       6.382  -7.522   8.195  0.00  0.00    +0.002 A 
ATOM     18  C   UNL     1       7.761  -7.637   8.160  0.00  0.00    +0.015 A 
ATOM     19  C   UNL     1       8.477  -7.132   7.089  0.00  0.00    +0.019 A 
ATOM     20  C   UNL     1       7.818  -6.516   6.043  0.00  0.00    +0.028 A 
ATOM     21 BR   UNL     1      10.361  -7.293   7.052  0.00  0.00    -0.050 Br
ENDBRANCH  11  15
BRANCH   1  23
ATOM     22  N   UNL     1       0.829  -2.169   4.398  0.00  0.00    -0.312 N 
ATOM     23  C   UNL     1       1.434  -3.373   4.433  0.00  0.00    +0.218 C 
ATOM     24  O   UNL     1       0.814  -4.372   4.136  0.00  0.00    -0.275 OA
ATOM     25  H   UNL     1       1.325  -1.370   4.635  0.00  0.00    +0.149 HD
BRANCH  22  26
ATOM     26  C   UNL     1      -0.578  -2.068   4.001  0.00  0.00    +0.138 C 
BRANCH  26  31
ATOM     27  C   UNL     1      -2.768   0.982   6.712  0.00  0.00    +0.074 C 
ATOM     28  C   UNL     1      -1.998   0.963   5.390  0.00  0.00    +0.165 C 
ATOM     29  O   UNL     1      -2.909   0.752   4.304  0.00  0.00    -0.347 OA
ATOM     30  C   UNL     1      -2.501  -0.455   3.630  0.00  0.00    +0.196 C 
ATOM     31  C   UNL     1      -1.016  -0.603   4.044  0.00  0.00    +0.164 C 
ATOM     32  O   UNL     1      -1.039  -0.108   5.405  0.00  0.00    -0.342 OA
ATOM     33  C   UNL     1      -1.274   2.297   5.198  0.00  0.00    +0.074 C 
ENDBRANCH  26  31
ENDBRANCH  22  26
ENDBRANCH   1  23
TORSDOF 4
