REMARK  Name = ZINC08970582
REMARK  9 active torsions:
REMARK  status: ('A' for Active; 'I' for Inactive)
REMARK    1  A    between atoms: C_1  and  N_53
REMARK    2  A    between atoms: C_6  and  C_28
REMARK    3  A    between atoms: C_7  and  C_26
REMARK    4  A    between atoms: C_8  and  S_10
REMARK    5  A    between atoms: S_10  and  C_11
REMARK    6  A    between atoms: C_11  and  C_12
REMARK    7  A    between atoms: N_14  and  C_15
REMARK    8  A    between atoms: C_20  and  O_21
REMARK    9  A    between atoms: O_21  and  C_22
REMARK                            x       y       z     vdW  Elec       q    Type
REMARK                         _______ _______ _______ _____ _____    ______ ____
ROOT
ATOM      1  C   UNL     1       4.480  -2.431   6.013  0.00  0.00    -0.096 C 
ATOM      2  C   UNL     1       4.208  -1.380   3.846  0.00  0.00    -0.073 C 
ATOM      3  C   UNL     1       3.173  -1.173   2.741  0.00  0.00    +0.037 C 
ATOM      4  C   UNL     1       2.013  -0.362   3.265  0.00  0.00    +0.043 A 
ATOM      5  C   UNL     1       1.796  -0.213   4.615  0.00  0.00    -0.034 A 
ATOM      6  C   UNL     1       0.703   0.543   5.058  0.00  0.00    +0.006 A 
ATOM      7  C   UNL     1      -0.142   1.132   4.094  0.00  0.00    +0.091 A 
ATOM      8  C   UNL     1       0.157   0.933   2.735  0.00  0.00    +0.116 A 
ATOM      9  N   UNL     1       1.200   0.203   2.381  0.00  0.00    -0.244 NA
ATOM     10  C   UNL     1       2.702  -0.832   5.645  0.00  0.00    -0.041 C 
ATOM     11  N   UNL     1       3.503  -1.905   5.033  0.00  0.00    +0.381 N 
ATOM     12  H   UNL     1       2.878  -2.666   4.742  0.00  0.00    -0.082 HD
ENDROOT
BRANCH   6  13
ATOM     13  C   UNL     1       0.440   0.719   6.503  0.00  0.00    -0.009 A 
ATOM     14  C   UNL     1       0.529   1.977   7.098  0.00  0.00    +0.016 A 
ATOM     15  C   UNL     1       0.270   2.065   8.421  0.00  0.00    +0.046 A 
ATOM     16  S   UNL     1      -0.091   0.373   8.853  0.00  0.00    -0.104 S 
ATOM     17  C   UNL     1       0.108  -0.348   7.290  0.00  0.00    +0.053 A 
ENDBRANCH   6  13
BRANCH   7  18
ATOM     18  C   UNL     1      -1.274   1.914   4.490  0.00  0.00    +0.102 C 
ATOM     19  N   UNL     1      -2.173   2.534   4.804  0.00  0.00    -0.191 NA
ENDBRANCH   7  18
BRANCH   8  20
ATOM     20  S   UNL     1      -0.870   1.653   1.497  0.00  0.00    -0.095 S 
BRANCH  20  21
ATOM     21  C   UNL     1      -0.021   1.072   0.008  0.00  0.00    +0.172 C 
BRANCH  21  22
ATOM     22  C   UNL     1      -0.744   1.582  -1.213  0.00  0.00    +0.228 C 
ATOM     23  O   UNL     1      -1.734   2.270  -1.088  0.00  0.00    -0.275 OA
ATOM     24  N   UNL     1      -0.288   1.272  -2.443  0.00  0.00    -0.282 N 
ATOM     25  H   UNL     1       0.547   0.790  -2.544  0.00  0.00    +0.155 HD
BRANCH  24  26
ATOM     26  C   UNL     1      -1.023   1.647  -3.576  0.00  0.00    +0.076 A 
ATOM     27  C   UNL     1      -2.391   1.853  -3.482  0.00  0.00    +0.027 A 
ATOM     28  C   UNL     1      -3.112   2.227  -4.600  0.00  0.00    +0.002 A 
ATOM     29  C   UNL     1      -2.475   2.387  -5.816  0.00  0.00    +0.004 A 
ATOM     30  C   UNL     1      -1.112   2.179  -5.919  0.00  0.00    +0.048 A 
ATOM     31  C   UNL     1      -0.381   1.808  -4.802  0.00  0.00    +0.151 A 
BRANCH  31  32
ATOM     32  O   UNL     1       0.959   1.602  -4.902  0.00  0.00    -0.404 OA
BRANCH  32  33
ATOM     33  C   UNL     1       1.549   1.785  -6.191  0.00  0.00    +0.575 C 
ATOM     34  F   UNL     1       1.339   3.101  -6.617  0.00  0.00    -0.133 F 
ATOM     35  F   UNL     1       2.924   1.534  -6.114  0.00  0.00    -0.133 F 
ATOM     36  F   UNL     1       0.964   0.900  -7.102  0.00  0.00    -0.133 F 
ENDBRANCH  32  33
ENDBRANCH  31  32
ENDBRANCH  24  26
ENDBRANCH  21  22
ENDBRANCH  20  21
ENDBRANCH   8  20
TORSDOF 8
