REMARK  Name = ZINC28060404
REMARK  2 active torsions:
REMARK  status: ('A' for Active; 'I' for Inactive)
REMARK    1  A    between atoms: C_9  and  C_12
REMARK    2  A    between atoms: C_19  and  C_27
REMARK                            x       y       z     vdW  Elec       q    Type
REMARK                         _______ _______ _______ _____ _____    ______ ____
ROOT
ATOM      1  C   UNL     1       6.082   3.585   0.445  0.00  0.00    +0.001 A 
ATOM      2  C   UNL     1       5.857   3.396  -0.908  0.00  0.00    +0.004 A 
ATOM      3  C   UNL     1       5.368   2.190  -1.377  0.00  0.00    +0.046 A 
ATOM      4  C   UNL     1       5.101   1.165  -0.489  0.00  0.00    +0.131 A 
ATOM      5  C   UNL     1       5.330   1.354   0.880  0.00  0.00    +0.038 A 
ATOM      6  C   UNL     1       5.820   2.569   1.344  0.00  0.00    +0.013 A 
ATOM      7  C   UNL     1       5.040   0.231   1.804  0.00  0.00    +0.050 C 
ATOM      8  C   UNL     1       4.266  -0.765   1.368  0.00  0.00    +0.026 C 
ATOM      9  C   UNL     1       3.711  -0.707  -0.037  0.00  0.00    +0.234 C 
ATOM     10  O   UNL     1       4.618  -0.032  -0.908  0.00  0.00    -0.479 OA
ATOM     11  C   UNL     1       3.919  -1.954   2.231  0.00  0.00    +0.181 C 
ATOM     12  N   UNL     1       4.767  -1.980   3.414  0.00  0.00    -0.201 N 
ATOM     13  C   UNL     1       5.542  -0.938   3.813  0.00  0.00    +0.240 A 
ATOM     14  N   UNL     1       6.152  -1.303   4.904  0.00  0.00    -0.092 NA
ATOM     15  N   UNL     1       5.820  -2.508   5.219  0.00  0.00    -0.021 NA
ATOM     16  N   UNL     1       4.981  -2.985   4.356  0.00  0.00    -0.042 NA
ATOM     17  N   UNL     1       5.589   0.244   3.092  0.00  0.00    -0.282 N 
ATOM     18  H   UNL     1       6.033   1.167   3.491  0.00  0.00    +0.155 HD
ENDROOT
BRANCH   9  19
ATOM     19  C   UNL     1       2.396   0.029  -0.021  0.00  0.00    -0.003 A 
ATOM     20  C   UNL     1       1.212  -0.669  -0.161  0.00  0.00    +0.010 A 
ATOM     21  C   UNL     1       0.005   0.005  -0.146  0.00  0.00    +0.039 A 
ATOM     22  C   UNL     1      -0.017   1.380   0.010  0.00  0.00    +0.123 A 
ATOM     23  C   UNL     1       1.170   2.079   0.150  0.00  0.00    +0.039 A 
ATOM     24  C   UNL     1       2.376   1.403   0.135  0.00  0.00    +0.010 A 
ATOM     25  F   UNL     1      -1.195   2.041   0.019  0.00  0.00    -0.205 F 
ENDBRANCH   9  19
BRANCH  11  26
ATOM     26  C   UNL     1       2.475  -1.859   2.653  0.00  0.00    +0.019 A 
ATOM     27  C   UNL     1       1.457  -2.720   2.411  0.00  0.00    +0.013 A 
ATOM     28  C   UNL     1       0.200  -2.428   2.906  0.00  0.00    +0.008 A 
ATOM     29  C   UNL     1       0.020  -1.282   3.608  0.00  0.00    +0.045 A 
ATOM     30  S   UNL     1       1.661  -0.579   3.594  0.00  0.00    -0.099 S 
ENDBRANCH  11  26
TORSDOF 2
