REMARK  Name = ZINC09441712
REMARK  6 active torsions:
REMARK  status: ('A' for Active; 'I' for Inactive)
REMARK    1  A    between atoms: C_2  and  N_26
REMARK    2  A    between atoms: C_5  and  N_8
REMARK    3  A    between atoms: C_9  and  C_11
REMARK    4  A    between atoms: C_11  and  O_12
REMARK    5  A    between atoms: O_12  and  C_13
REMARK    6  A    between atoms: C_13  and  C_15
REMARK                            x       y       z     vdW  Elec       q    Type
REMARK                         _______ _______ _______ _____ _____    ______ ____
ROOT
ATOM      1  N   UNL     1      -1.191   1.867   0.018  0.00  0.00    -0.281 N 
ATOM      2  C   UNL     1      -0.540   1.923   1.197  0.00  0.00    +0.255 C 
ATOM      3  O   UNL     1      -1.039   1.434   2.189  0.00  0.00    -0.272 OA
ATOM      4  H   UNL     1      -0.827   2.320  -0.759  0.00  0.00    +0.155 HD
ENDROOT
BRANCH   1   9
ATOM      5  C   UNL     1      -3.562  -0.896  -0.509  0.00  0.00    +0.050 A 
ATOM      6  C   UNL     1      -4.766  -0.252  -0.292  0.00  0.00    +0.128 A 
ATOM      7  C   UNL     1      -4.787   1.093   0.026  0.00  0.00    +0.050 A 
ATOM      8  C   UNL     1      -3.603   1.799   0.130  0.00  0.00    +0.042 A 
ATOM      9  C   UNL     1      -2.392   1.155  -0.086  0.00  0.00    +0.062 A 
ATOM     10  C   UNL     1      -2.375  -0.196  -0.411  0.00  0.00    +0.042 A 
ATOM     11 BR   UNL     1      -0.729  -1.076  -0.714  0.00  0.00    -0.048 Br
ATOM     12 BR   UNL     1      -3.633   3.639   0.566  0.00  0.00    -0.048 Br
BRANCH   6  13
ATOM     13  N   UNL     1      -6.036  -1.005  -0.403  0.00  0.00    +0.056 N 
ATOM     14  O   UNL     1      -7.098  -0.439  -0.213  0.00  0.00    -0.126 OA
ATOM     15  O   UNL     1      -6.020  -2.190  -0.683  0.00  0.00    -0.126 OA
ENDBRANCH   6  13
ENDBRANCH   1   9
BRANCH   2  16
ATOM     16  C   UNL     1       0.810   2.586   1.282  0.00  0.00    +0.328 C 
BRANCH  16  17
ATOM     17  O   UNL     1       1.301   2.511   2.646  0.00  0.00    -0.455 OA
BRANCH  17  18
ATOM     18  C   UNL     1       2.501   3.060   2.893  0.00  0.00    +0.311 C 
ATOM     19  O   UNL     1       3.120   3.586   1.999  0.00  0.00    -0.251 OA
BRANCH  18  20
ATOM     20  C   UNL     1       3.076   3.021   4.285  0.00  0.00    +0.105 C 
ATOM     21  C   UNL     1       2.216   3.869   5.254  0.00  0.00    +0.023 C 
ATOM     22  C   UNL     1       3.202   4.973   5.753  0.00  0.00    +0.013 C 
ATOM     23  C   UNL     1       4.536   4.145   5.836  0.00  0.00    +0.016 C 
ATOM     24  C   UNL     1       4.473   3.719   4.323  0.00  0.00    +0.026 C 
ATOM     25  C   UNL     1       4.223   5.087   3.677  0.00  0.00    -0.027 C 
ATOM     26  C   UNL     1       3.491   5.810   4.501  0.00  0.00    -0.027 C 
ENDBRANCH  18  20
ENDBRANCH  17  18
ENDBRANCH  16  17
ENDBRANCH   2  16
TORSDOF 6
