REMARK  Name = ZINC02450221
REMARK  7 active torsions:
REMARK  status: ('A' for Active; 'I' for Inactive)
REMARK    1  A    between atoms: C_1  and  N_56
REMARK    2  A    between atoms: C_2  and  C_3
REMARK    3  A    between atoms: C_2  and  N_56
REMARK    4  A    between atoms: C_4  and  C_14
REMARK    5  A    between atoms: N_16  and  N_17
REMARK    6  A    between atoms: C_18  and  C_19
REMARK    7  A    between atoms: C_27  and  N_56
REMARK                            x       y       z     vdW  Elec       q    Type
REMARK                         _______ _______ _______ _____ _____    ______ ____
ROOT
ATOM      1  C   UNL     1      -3.990   7.528   0.062  0.00  0.00    +0.063 A 
ATOM      2  C   UNL     1      -3.838   6.171   0.054  0.00  0.00    +0.170 A 
ATOM      3  N   UNL     1      -5.058   5.605   0.051  0.00  0.00    -0.124 NA
ATOM      4  N   UNL     1      -5.960   6.524   0.065  0.00  0.00    -0.058 NA
ATOM      5  N   UNL     1      -5.320   7.772   0.069  0.00  0.00    -0.194 N 
ATOM      6  C   UNL     1      -5.939   9.027   0.079  0.00  0.00    +0.240 A 
ATOM      7  C   UNL     1      -7.384   9.271   0.086  0.00  0.00    +0.206 A 
ATOM      8  N   UNL     1      -7.582  10.560   0.096  0.00  0.00    -0.032 NA
ATOM      9  O   UNL     1      -6.315  11.194   0.095  0.00  0.00    -0.239 OA
ATOM     10  N   UNL     1      -5.328  10.178   0.089  0.00  0.00    -0.027 NA
ATOM     11  N   UNL     1      -8.374   8.295   0.083  0.00  0.00    -0.337 N 
ATOM     12  H   UNL     1      -8.130   7.356   0.075  0.00  0.00    +0.144 HD
ATOM     13  H   UNL     1      -9.309   8.553   0.088  0.00  0.00    +0.144 HD
ENDROOT
BRANCH   2  14
ATOM     14  C   UNL     1      -2.553   5.448   0.044  0.00  0.00    +0.285 C 
ATOM     15  O   UNL     1      -1.506   6.067   0.042  0.00  0.00    -0.267 OA
ATOM     16  N   UNL     1      -2.538   4.100   0.036  0.00  0.00    -0.202 N 
ATOM     17  H   UNL     1      -3.372   3.606   0.038  0.00  0.00    +0.178 HD
BRANCH  16  18
ATOM     18  N   UNL     1      -1.317   3.413   0.027  0.00  0.00    -0.187 NA
ATOM     19  C   UNL     1      -1.302   2.115   0.020  0.00  0.00    +0.138 C 
BRANCH  19  20
ATOM     20  C   UNL     1      -0.017   1.393   0.010  0.00  0.00    -0.004 A 
ATOM     21  C   UNL     1       1.187   2.102   0.002  0.00  0.00    +0.011 A 
ATOM     22  C   UNL     1       2.386   1.420  -0.014  0.00  0.00    +0.022 A 
ATOM     23  C   UNL     1       2.399   0.035  -0.021  0.00  0.00    +0.059 A 
ATOM     24  C   UNL     1       1.209  -0.674  -0.013  0.00  0.00    +0.060 A 
ATOM     25  C   UNL     1       0.002  -0.004   0.002  0.00  0.00    +0.031 A 
ATOM     26 CL   UNL     1       1.235  -2.410  -0.023  0.00  0.00    -0.082 Cl
ATOM     27 CL   UNL     1       3.912  -0.815  -0.040  0.00  0.00    -0.082 Cl
ENDBRANCH  19  20
ENDBRANCH  16  18
ENDBRANCH   2  14
BRANCH   1  28
ATOM     28  C   UNL     1      -2.889   8.556   0.063  0.00  0.00    -0.020 C 
BRANCH  28  30
ATOM     29  C   UNL     1      -1.922   7.723   2.121  0.00  0.00    -0.095 C 
ATOM     30  N   UNL     1      -2.549   8.889   1.462  0.00  0.00    +0.383 N 
ATOM     31  H   UNL     1      -3.409   9.134   1.966  0.00  0.00    -0.081 HD
BRANCH  30  32
ATOM     32  C   UNL     1      -1.627  10.044   1.497  0.00  0.00    -0.068 C 
ATOM     33  C   UNL     1      -0.300   9.693   0.821  0.00  0.00    -0.015 C 
ATOM     34  C   UNL     1       0.634  10.904   0.872  0.00  0.00    -0.002 C 
ATOM     35  C   UNL     1       0.891  11.289   2.331  0.00  0.00    -0.000 C 
ATOM     36  C   UNL     1      -0.436  11.640   3.007  0.00  0.00    -0.002 C 
ATOM     37  C   UNL     1      -1.371  10.430   2.956  0.00  0.00    -0.015 C 
ENDBRANCH  30  32
ENDBRANCH  28  30
ENDBRANCH   1  28
TORSDOF 6
