REMARK  Name = ZINC05563400
REMARK  12 active torsions:
REMARK  status: ('A' for Active; 'I' for Inactive)
REMARK    1  A    between atoms: C_1  and  C_2
REMARK    2  A    between atoms: C_2  and  C_3
REMARK    3  A    between atoms: C_2  and  O_4
REMARK    4  A    between atoms: O_4  and  C_5
REMARK    5  A    between atoms: C_8  and  C_11
REMARK    6  A    between atoms: C_11  and  O_29
REMARK    7  A    between atoms: C_13  and  C_24
REMARK    8  A    between atoms: N_15  and  C_20
REMARK    9  A    between atoms: C_20  and  C_21
REMARK   10  A    between atoms: C_21  and  N_55
REMARK   11  A    between atoms: C_22  and  N_55
REMARK   12  A    between atoms: C_23  and  N_55
REMARK                            x       y       z     vdW  Elec       q    Type
REMARK                         _______ _______ _______ _____ _____    ______ ____
ROOT
ATOM      1  C   UNL     1      -0.436   1.750  -2.131  0.00  0.00    +0.133 C 
ATOM      2  C   UNL     1      -0.987   1.823  -0.866  0.00  0.00    +0.072 C 
ATOM      3  C   UNL     1      -0.277   1.593   0.448  0.00  0.00    +0.151 C 
ATOM      4  N   UNL     1      -1.276   1.782   1.504  0.00  0.00    -0.285 N 
ATOM      5  C   UNL     1      -2.456   2.089   0.938  0.00  0.00    +0.288 C 
ATOM      6  O   UNL     1      -3.484   2.306   1.546  0.00  0.00    -0.266 OA
ATOM      7  C   UNL     1      -2.318   2.125  -0.543  0.00  0.00    +0.249 C 
ATOM      8  O   UNL     1      -3.207   2.373  -1.338  0.00  0.00    -0.282 OA
ENDROOT
BRANCH   1  12
ATOM      9  C   UNL     1       3.559   0.413  -2.630  0.00  0.00    +0.121 A 
ATOM     10  C   UNL     1       2.678  -0.316  -1.837  0.00  0.00    +0.046 A 
ATOM     11  C   UNL     1       1.382   0.114  -1.672  0.00  0.00    +0.015 A 
ATOM     12  C   UNL     1       0.949   1.286  -2.304  0.00  0.00    +0.017 A 
ATOM     13  C   UNL     1       1.838   2.013  -3.106  0.00  0.00    +0.015 A 
ATOM     14  C   UNL     1       3.135   1.577  -3.260  0.00  0.00    +0.046 A 
BRANCH   9  15
ATOM     15  O   UNL     1       4.837  -0.015  -2.789  0.00  0.00    -0.489 OA
BRANCH  15  17
ATOM     16  C   UNL     1       7.136   0.510  -3.318  0.00  0.00    +0.051 C 
ATOM     17  C   UNL     1       5.666   0.736  -3.678  0.00  0.00    +0.167 C 
ATOM     18  C   UNL     1       5.418   0.277  -5.117  0.00  0.00    +0.051 C 
ENDBRANCH  15  17
ENDBRANCH   9  15
ENDBRANCH   1  12
BRANCH   3  19
ATOM     19  C   UNL     1       0.842   2.589   0.611  0.00  0.00    +0.015 A 
ATOM     20  C   UNL     1       2.181   2.381   0.575  0.00  0.00    +0.013 A 
ATOM     21  C   UNL     1       3.031   3.458   0.749  0.00  0.00    +0.008 A 
ATOM     22  C   UNL     1       2.500   4.687   0.960  0.00  0.00    +0.045 A 
ATOM     23  S   UNL     1       0.748   4.346   0.910  0.00  0.00    -0.099 S 
ENDBRANCH   3  19
BRANCH   1  24
ATOM     24  O   UNL     1      -1.169   2.104  -3.208  0.00  0.00    -0.506 OA
ATOM     25  H   UNL     1      -2.079   2.392  -2.912  0.00  0.00    +0.292 HD
ENDBRANCH   1  24
BRANCH   4  26
ATOM     26  C   UNL     1      -1.028   1.657   2.942  0.00  0.00    +0.090 C 
BRANCH  26  27
ATOM     27  C   UNL     1      -0.607   3.015   3.508  0.00  0.00    -0.060 C 
BRANCH  27  30
ATOM     28  C   UNL     1       0.272   4.104   5.483  0.00  0.00    -0.097 C 
ATOM     29  C   UNL     1      -1.599   2.579   5.673  0.00  0.00    -0.097 C 
ATOM     30  N   UNL     1      -0.340   2.868   4.954  0.00  0.00    +0.377 N 
ATOM     31  H   UNL     1       0.311   2.086   5.095  0.00  0.00    -0.083 HD
ENDBRANCH  27  30
ENDBRANCH  26  27
ENDBRANCH   4  26
TORSDOF 8
