REMARK  Name = ZINC63361945
REMARK  7 active torsions:
REMARK  status: ('A' for Active; 'I' for Inactive)
REMARK    1  A    between atoms: C_1  and  C_2
REMARK    2  A    between atoms: C_2  and  C_3
REMARK    3  A    between atoms: C_8  and  N_9
REMARK    4  A    between atoms: C_25  and  C_30
REMARK    5  A    between atoms: C_33  and  C_36
REMARK    6  A    between atoms: C_36  and  C_37
REMARK    7  A    between atoms: C_36  and  C_38
REMARK                            x       y       z     vdW  Elec       q    Type
REMARK                         _______ _______ _______ _____ _____    ______ ____
ROOT
ATOM      1  N   UNL     1      -1.106  -0.548   2.998  0.00  0.00    -0.192 N 
ATOM      2  C   UNL     1      -2.028  -1.521   2.839  0.00  0.00    +0.248 C 
ATOM      3  O   UNL     1      -1.823  -2.698   2.635  0.00  0.00    -0.273 OA
ATOM      4  C   UNL     1      -3.371  -0.836   2.970  0.00  0.00    +0.169 C 
ATOM      5  C   UNL     1      -4.195  -1.044   1.687  0.00  0.00    +0.065 C 
ATOM      6  C   UNL     1      -5.189   0.091   1.631  0.00  0.00    -0.034 C 
ATOM      7  C   UNL     1      -6.513   0.077   1.511  0.00  0.00    -0.001 A 
ATOM      8  C   UNL     1      -7.464  -1.024   1.294  0.00  0.00    +0.010 A 
ATOM      9  C   UNL     1      -8.778  -0.680   1.239  0.00  0.00    +0.001 A 
ATOM     10  C   UNL     1      -9.235   0.635   1.374  0.00  0.00    +0.002 A 
ATOM     11  C   UNL     1      -8.430   1.710   1.567  0.00  0.00    +0.026 A 
ATOM     12  C   UNL     1      -7.026   1.475   1.637  0.00  0.00    +0.043 A 
ATOM     13  N   UNL     1      -6.040   2.308   1.794  0.00  0.00    -0.375 N 
ATOM     14  C   UNL     1      -4.786   1.556   1.732  0.00  0.00    +0.131 C 
ATOM     15  C   UNL     1      -3.973   1.708   3.026  0.00  0.00    +0.135 C 
ATOM     16  N   UNL     1      -3.013   0.593   3.083  0.00  0.00    -0.264 N 
ATOM     17  C   UNL     1      -1.678   0.651   3.172  0.00  0.00    +0.317 C 
ATOM     18  O   UNL     1      -1.057   1.674   3.384  0.00  0.00    -0.252 OA
ATOM     19  H   UNL     1      -6.122   3.265   1.928  0.00  0.00    +0.160 HD
ENDROOT
BRANCH   1  25
ATOM     20  C   UNL     1       0.965  -0.816   1.782  0.00  0.00    -0.026 A 
ATOM     21  C   UNL     1       2.331  -1.026   1.774  0.00  0.00    +0.005 A 
ATOM     22  C   UNL     1       3.012  -1.192   2.966  0.00  0.00    +0.000 A 
ATOM     23  C   UNL     1       2.330  -1.149   4.168  0.00  0.00    +0.002 A 
ATOM     24  C   UNL     1       0.965  -0.940   4.181  0.00  0.00    +0.024 A 
ATOM     25  C   UNL     1       0.279  -0.766   2.987  0.00  0.00    +0.049 A 
BRANCH  20  27
ATOM     26  C   UNL     1       0.114   0.856   0.161  0.00  0.00    +0.009 C 
ATOM     27  C   UNL     1       0.223  -0.636   0.482  0.00  0.00    +0.033 C 
ENDBRANCH  20  27
ENDBRANCH   1  25
BRANCH  15  28
ATOM     28  C   UNL     1      -3.237   3.023   3.021  0.00  0.00    -0.025 A 
ATOM     29  C   UNL     1      -2.354   3.317   1.999  0.00  0.00    +0.006 A 
ATOM     30  C   UNL     1      -1.680   4.524   1.994  0.00  0.00    +0.004 A 
ATOM     31  C   UNL     1      -1.888   5.436   3.011  0.00  0.00    -0.045 A 
ATOM     32  C   UNL     1      -2.772   5.142   4.033  0.00  0.00    +0.004 A 
ATOM     33  C   UNL     1      -3.450   3.938   4.035  0.00  0.00    +0.006 A 
BRANCH  31  34
ATOM     34  C   UNL     1      -1.152   6.751   3.007  0.00  0.00    +0.013 C 
ATOM     35  C   UNL     1      -2.161   7.901   2.965  0.00  0.00    +0.012 C 
ATOM     36  C   UNL     1      -0.302   6.864   4.274  0.00  0.00    +0.012 C 
ENDBRANCH  31  34
ENDBRANCH  15  28
TORSDOF 4
