REMARK  Name = ZINC36029081
REMARK  10 active torsions:
REMARK  status: ('A' for Active; 'I' for Inactive)
REMARK    1  A    between atoms: C_1  and  C_2
REMARK    2  A    between atoms: C_2  and  C_3
REMARK    3  A    between atoms: C_3  and  C_5
REMARK    4  A    between atoms: C_3  and  C_6
REMARK    5  A    between atoms: N_10  and  C_29
REMARK    6  A    between atoms: N_15  and  S_18
REMARK    7  A    between atoms: S_18  and  C_21
REMARK    8  A    between atoms: C_29  and  C_30
REMARK    9  A    between atoms: C_30  and  O_31
REMARK   10  A    between atoms: O_31  and  C_32
REMARK                            x       y       z     vdW  Elec       q    Type
REMARK                         _______ _______ _______ _____ _____    ______ ____
ROOT
ATOM      1  C   UNL     1       0.748  -2.001  -0.758  0.00  0.00    +0.022 C 
ATOM      2  C   UNL     1       1.756  -2.419   0.291  0.00  0.00    +0.201 C 
ATOM      3  O   UNL     1       1.862  -1.942   1.401  0.00  0.00    -0.277 OA
ATOM      4  N   UNL     1       2.516  -3.411  -0.217  0.00  0.00    -0.311 N 
ATOM      5  C   UNL     1       2.079  -3.712  -1.582  0.00  0.00    +0.006 C 
ATOM      6  N   UNL     1       1.271  -2.556  -2.030  0.00  0.00    +0.401 N 
ATOM      7  C   UNL     1       1.219  -4.975  -1.595  0.00  0.00    +0.023 C 
ATOM      8  C   UNL     1       2.051  -6.160  -1.092  0.00  0.00    +0.109 C 
ATOM      9  N   UNL     1       3.280  -6.248  -1.892  0.00  0.00    -0.177 NA
ATOM     10  C   UNL     1       4.137  -5.060  -2.004  0.00  0.00    +0.109 C 
ATOM     11  C   UNL     1       3.288  -3.885  -2.499  0.00  0.00    +0.023 C 
ATOM     12  H   UNL     1       0.514  -2.857  -2.625  0.00  0.00    -0.082 HD
ATOM     13  H   UNL     1       1.850  -1.879  -2.503  0.00  0.00    -0.082 HD
ENDROOT
BRANCH   9  14
ATOM     14  S   UNL     1       3.691  -7.660  -2.653  0.00  0.00    +0.061 S 
ATOM     15  O   UNL     1       5.099  -7.624  -2.842  0.00  0.00    -0.153 OA
ATOM     16  O   UNL     1       3.045  -8.707  -1.943  0.00  0.00    -0.153 OA
BRANCH  14  17
ATOM     17  C   UNL     1       2.966  -7.617  -4.258  0.00  0.00    +0.107 A 
ATOM     18  C   UNL     1       1.692  -8.116  -4.454  0.00  0.00    +0.030 A 
ATOM     19  C   UNL     1       1.123  -8.084  -5.713  0.00  0.00    +0.023 A 
ATOM     20  C   UNL     1       1.827  -7.551  -6.778  0.00  0.00    +0.059 A 
ATOM     21  C   UNL     1       3.103  -7.051  -6.581  0.00  0.00    +0.061 A 
ATOM     22  C   UNL     1       3.670  -7.080  -5.319  0.00  0.00    +0.050 A 
ATOM     23 CL   UNL     1       3.990  -6.383  -7.916  0.00  0.00    -0.082 Cl
ATOM     24 CL   UNL     1       1.113  -7.510  -8.359  0.00  0.00    -0.082 Cl
ENDBRANCH  14  17
ENDBRANCH   9  14
BRANCH   1  25
ATOM     25  C   UNL     1       0.663  -0.476  -0.838  0.00  0.00    -0.020 C 
ATOM     26  C   UNL     1      -0.305  -0.077  -1.953  0.00  0.00    +0.006 C 
BRANCH  25  28
ATOM     27  C   UNL     1       0.191   1.606   0.461  0.00  0.00    +0.004 C 
ATOM     28  C   UNL     1       0.158   0.077   0.497  0.00  0.00    -0.001 C 
ENDBRANCH  25  28
ENDBRANCH   1  25
BRANCH   4  29
ATOM     29  C   UNL     1       3.611  -4.082   0.488  0.00  0.00    +0.134 C 
BRANCH  29  30
ATOM     30  C   UNL     1       4.915  -3.319   0.250  0.00  0.00    +0.178 C 
BRANCH  30  31
ATOM     31  O   UNL     1       4.835  -2.033   0.868  0.00  0.00    -0.381 OA
ATOM     32  C   UNL     1       6.002  -1.228   0.688  0.00  0.00    +0.194 C 
ENDBRANCH  30  31
ENDBRANCH  29  30
ENDBRANCH   4  29
TORSDOF 7
