REMARK  Name = ZINC64623275
REMARK  8 active torsions:
REMARK  status: ('A' for Active; 'I' for Inactive)
REMARK    1  A    between atoms: C_1  and  C_2
REMARK    2  A    between atoms: C_5  and  C_8
REMARK    3  A    between atoms: C_15  and  O_20
REMARK    4  A    between atoms: O_20  and  C_21
REMARK    5  A    between atoms: N_27  and  C_28
REMARK    6  A    between atoms: C_32  and  C_34
REMARK    7  A    between atoms: C_34  and  O_36
REMARK    8  A    between atoms: O_36  and  C_37
REMARK                            x       y       z     vdW  Elec       q    Type
REMARK                         _______ _______ _______ _____ _____    ______ ____
ROOT
ATOM      1  C   UNL     1      -0.808  -4.619  -0.416  0.00  0.00    +0.134 C 
ATOM      2  C   UNL     1       0.701  -4.847  -0.565  0.00  0.00    +0.131 C 
ATOM      3  C   UNL     1       0.981  -6.253  -0.048  0.00  0.00    -0.035 C 
ATOM      4  C   UNL     1       1.588  -6.901  -1.035  0.00  0.00    +0.003 A 
ATOM      5  C   UNL     1       2.159  -8.254  -1.116  0.00  0.00    +0.055 A 
ATOM      6  C   UNL     1       2.709  -8.614  -2.308  0.00  0.00    +0.121 A 
ATOM      7  C   UNL     1       2.757  -7.778  -3.434  0.00  0.00    +0.047 A 
ATOM      8  C   UNL     1       2.266  -6.513  -3.467  0.00  0.00    +0.029 A 
ATOM      9  C   UNL     1       1.648  -6.008  -2.233  0.00  0.00    +0.043 A 
ATOM     10  N   UNL     1       1.118  -4.829  -1.968  0.00  0.00    -0.375 N 
ATOM     11  C   UNL     1       0.530  -6.720   1.314  0.00  0.00    +0.052 C 
ATOM     12  C   UNL     1      -0.967  -6.378   1.427  0.00  0.00    +0.114 C 
ATOM     13  N   UNL     1      -1.192  -5.010   0.950  0.00  0.00    -0.276 N 
ATOM     14  C   UNL     1      -1.754  -4.101   1.771  0.00  0.00    +0.307 C 
ATOM     15  O   UNL     1      -2.111  -3.025   1.332  0.00  0.00    -0.252 OA
ATOM     16  N   UNL     1      -1.919  -4.385   3.078  0.00  0.00    -0.269 N 
ATOM     17  H   UNL     1      -1.548  -5.201   3.448  0.00  0.00    +0.156 HD
ATOM     18  H   UNL     1       1.014  -4.085  -2.582  0.00  0.00    +0.160 HD
ENDROOT
BRANCH   1  23
ATOM     19  C   UNL     1      -2.034   0.962  -1.275  0.00  0.00    +0.044 C 
ATOM     20  C   UNL     1      -1.714  -0.494  -1.051  0.00  0.00    -0.050 A 
ATOM     21  C   UNL     1      -0.660  -0.852  -0.232  0.00  0.00    +0.004 A 
ATOM     22  C   UNL     1      -0.367  -2.187  -0.026  0.00  0.00    +0.006 A 
ATOM     23  C   UNL     1      -1.128  -3.164  -0.639  0.00  0.00    -0.025 A 
ATOM     24  C   UNL     1      -2.183  -2.806  -1.458  0.00  0.00    +0.006 A 
ATOM     25  C   UNL     1      -2.479  -1.471  -1.660  0.00  0.00    +0.004 A 
ENDBRANCH   1  23
BRANCH  16  26
ATOM     26  C   UNL     1      -2.626  -3.501   3.902  0.00  0.00    +0.036 A 
ATOM     27  C   UNL     1      -2.610  -2.137   3.634  0.00  0.00    +0.023 A 
ATOM     28  C   UNL     1      -3.307  -1.261   4.444  0.00  0.00    +0.003 A 
ATOM     29  C   UNL     1      -4.023  -1.733   5.525  0.00  0.00    +0.015 A 
ATOM     30  C   UNL     1      -4.046  -3.101   5.803  0.00  0.00    +0.061 A 
ATOM     31  C   UNL     1      -3.347  -3.987   4.981  0.00  0.00    +0.038 A 
BRANCH  30  32
ATOM     32  C   UNL     1      -4.811  -3.610   6.959  0.00  0.00    +0.339 C 
ATOM     33  O   UNL     1      -4.830  -4.801   7.199  0.00  0.00    -0.245 OA
BRANCH  32  34
ATOM     34  O   UNL     1      -5.489  -2.754   7.748  0.00  0.00    -0.464 OA
ATOM     35  C   UNL     1      -6.207  -3.315   8.848  0.00  0.00    +0.280 C 
ENDBRANCH  32  34
ENDBRANCH  30  32
ENDBRANCH  16  26
BRANCH   6  36
ATOM     36  O   UNL     1       3.245  -9.859  -2.414  0.00  0.00    -0.495 OA
ATOM     37  C   UNL     1       3.817 -10.214  -3.675  0.00  0.00    +0.277 C 
ENDBRANCH   6  36
TORSDOF 5
