REMARK  Name = ZINC00663577
REMARK  10 active torsions:
REMARK  status: ('A' for Active; 'I' for Inactive)
REMARK    1  A    between atoms: C_1  and  O_2
REMARK    2  A    between atoms: O_2  and  C_3
REMARK    3  A    between atoms: C_3  and  C_5
REMARK    4  A    between atoms: C_6  and  C_22
REMARK    5  A    between atoms: C_8  and  N_21
REMARK    6  A    between atoms: C_9  and  C_19
REMARK    7  A    between atoms: C_10  and  C_12
REMARK    8  A    between atoms: C_22  and  S_23
REMARK    9  A    between atoms: S_23  and  C_24
REMARK   10  A    between atoms: C_25  and  C_35
REMARK                            x       y       z     vdW  Elec       q    Type
REMARK                         _______ _______ _______ _____ _____    ______ ____
ROOT
ATOM      1  C   UNL     1      -0.744   6.211  -1.162  0.00  0.00    +0.088 C 
ATOM      2  C   UNL     1      -1.771   7.042  -0.949  0.00  0.00    +0.128 C 
ATOM      3  O   UNL     1      -2.483   7.025   0.188  0.00  0.00    -0.444 OA
ATOM      4  C   UNL     1      -1.960   6.447   1.284  0.00  0.00    +0.198 C 
ATOM      5  C   UNL     1      -0.932   5.568   1.207  0.00  0.00    +0.098 C 
ATOM      6  C   UNL     1      -0.330   5.204  -0.123  0.00  0.00    +0.105 C 
ENDROOT
BRANCH   6   7
ATOM      7  C   UNL     1      -0.809   3.835  -0.532  0.00  0.00    -0.034 A 
ATOM      8  C   UNL     1       0.102   2.817  -0.739  0.00  0.00    +0.007 A 
ATOM      9  C   UNL     1      -0.336   1.562  -1.115  0.00  0.00    +0.038 A 
ATOM     10  C   UNL     1      -1.690   1.324  -1.284  0.00  0.00    +0.123 A 
ATOM     11  C   UNL     1      -2.602   2.346  -1.081  0.00  0.00    +0.038 A 
ATOM     12  C   UNL     1      -2.161   3.599  -0.700  0.00  0.00    +0.007 A 
ATOM     13  F   UNL     1      -2.120   0.097  -1.651  0.00  0.00    -0.205 F 
ENDBRANCH   6   7
BRANCH   4  14
ATOM     14  N   UNL     1      -2.483   6.758   2.515  0.00  0.00    -0.328 N 
ATOM     15  H   UNL     1      -2.116   6.349   3.315  0.00  0.00    +0.145 HD
ATOM     16  H   UNL     1      -3.219   7.385   2.585  0.00  0.00    +0.145 HD
ENDBRANCH   4  14
BRANCH   1  17
ATOM     17  C   UNL     1      -0.034   6.280  -2.385  0.00  0.00    +0.339 C 
ATOM     18  O   UNL     1      -0.564   6.760  -3.370  0.00  0.00    -0.245 OA
BRANCH  17  20
ATOM     19  C   UNL     1       1.887   5.917  -3.725  0.00  0.00    +0.280 C 
ATOM     20  O   UNL     1       1.231   5.815  -2.459  0.00  0.00    -0.465 OA
ENDBRANCH  17  20
ENDBRANCH   1  17
BRANCH   5  21
ATOM     21  C   UNL     1      -0.414   4.979   2.405  0.00  0.00    +0.101 C 
ATOM     22  N   UNL     1      -0.002   4.511   3.355  0.00  0.00    -0.191 NA
ENDBRANCH   5  21
BRANCH   2  23
ATOM     23  C   UNL     1      -2.141   8.032  -2.023  0.00  0.00    +0.150 C 
BRANCH  23  24
ATOM     24  S   UNL     1      -3.631   7.464  -2.879  0.00  0.00    -0.097 S 
BRANCH  24  25
ATOM     25  C   UNL     1      -3.830   8.770  -4.046  0.00  0.00    +0.115 A 
ATOM     26  C   UNL     1      -4.905   8.738  -4.952  0.00  0.00    +0.084 A 
ATOM     27  C   UNL     1      -5.039   9.786  -5.872  0.00  0.00    +0.027 A 
ATOM     28  C   UNL     1      -4.101  10.803  -5.839  0.00  0.00    -0.025 A 
ATOM     29  C   UNL     1      -3.079  10.770  -4.924  0.00  0.00    +0.046 A 
ATOM     30  N   UNL     1      -2.968   9.775  -4.060  0.00  0.00    -0.244 NA
ATOM     31  C   UNL     1      -2.059  11.891  -4.891  0.00  0.00    +0.056 C 
ATOM     32  C   UNL     1      -2.740  13.152  -4.356  0.00  0.00    +0.006 C 
ATOM     33  C   UNL     1      -3.430  13.913  -5.471  0.00  0.00    +0.001 C 
ATOM     34  C   UNL     1      -4.635  13.206  -6.059  0.00  0.00    +0.005 C 
ATOM     35  C   UNL     1      -4.209  11.949  -6.823  0.00  0.00    +0.037 C 
BRANCH  26  36
ATOM     36  C   UNL     1      -5.844   7.657  -4.935  0.00  0.00    +0.102 C 
ATOM     37  N   UNL     1      -6.588   6.799  -4.921  0.00  0.00    -0.191 NA
ENDBRANCH  26  36
ENDBRANCH  24  25
ENDBRANCH  23  24
ENDBRANCH   2  23
TORSDOF 9
