REMARK  Name = ZINC00781630
REMARK  8 active torsions:
REMARK  status: ('A' for Active; 'I' for Inactive)
REMARK    1  A    between atoms: C_1  and  C_2
REMARK    2  A    between atoms: C_3  and  C_30
REMARK    3  A    between atoms: C_4  and  C_23
REMARK    4  A    between atoms: C_10  and  C_15
REMARK    5  A    between atoms: C_20  and  O_21
REMARK    6  A    between atoms: O_21  and  C_22
REMARK    7  A    between atoms: C_30  and  O_32
REMARK    8  A    between atoms: O_32  and  C_33
REMARK                            x       y       z     vdW  Elec       q    Type
REMARK                         _______ _______ _______ _____ _____    ______ ____
ROOT
ATOM      1  C   UNL     1      -0.281   9.798  -3.816  0.00  0.00    +0.061 C 
ATOM      2  C   UNL     1      -0.643   9.277  -2.449  0.00  0.00    +0.016 C 
ATOM      3  C   UNL     1      -0.614  10.105  -1.391  0.00  0.00    +0.065 C 
ATOM      4  C   UNL     1      -0.976   9.624  -0.016  0.00  0.00    +0.092 C 
ATOM      5  C   UNL     1      -0.926   8.119   0.060  0.00  0.00    +0.024 C 
ATOM      6  C   UNL     1      -0.949   7.370  -1.063  0.00  0.00    +0.016 C 
ATOM      7  N   UNL     1      -1.000   7.967  -2.295  0.00  0.00    -0.321 N 
ATOM      8  C   UNL     1      -0.923   5.864  -0.993  0.00  0.00    +0.060 C 
ATOM      9  C   UNL     1      -0.135   5.420   0.241  0.00  0.00    +0.035 C 
ATOM     10  C   UNL     1      -0.798   6.024   1.484  0.00  0.00    +0.088 C 
ATOM     11  C   UNL     1      -0.858   7.519   1.330  0.00  0.00    +0.162 C 
ATOM     12  O   UNL     1      -0.849   8.222   2.321  0.00  0.00    -0.292 OA
ATOM     13  H   UNL     1      -1.333   7.381  -3.164  0.00  0.00    +0.152 HD
ENDROOT
BRANCH   4  14
ATOM     14  C   UNL     1      -2.369  10.090   0.321  0.00  0.00    -0.035 A 
ATOM     15  C   UNL     1      -3.440   9.680  -0.451  0.00  0.00    +0.007 A 
ATOM     16  C   UNL     1      -4.719  10.103  -0.140  0.00  0.00    +0.038 A 
ATOM     17  C   UNL     1      -4.925  10.946   0.939  0.00  0.00    +0.123 A 
ATOM     18  C   UNL     1      -3.851  11.360   1.708  0.00  0.00    +0.038 A 
ATOM     19  C   UNL     1      -2.574  10.932   1.398  0.00  0.00    +0.007 A 
ATOM     20  F   UNL     1      -6.174  11.364   1.240  0.00  0.00    -0.205 F 
ENDBRANCH   4  14
BRANCH   9  21
ATOM     21  C   UNL     1      -0.151   3.916   0.339  0.00  0.00    -0.002 A 
ATOM     22  C   UNL     1      -1.354   3.242   0.433  0.00  0.00    +0.007 A 
ATOM     23  C   UNL     1      -1.369   1.863   0.517  0.00  0.00    +0.001 A 
ATOM     24  C   UNL     1      -0.182   1.154   0.518  0.00  0.00    +0.004 A 
ATOM     25  C   UNL     1       1.023   1.823   0.424  0.00  0.00    +0.046 A 
ATOM     26  C   UNL     1       1.041   3.208   0.335  0.00  0.00    +0.124 A 
BRANCH  26  27
ATOM     27  O   UNL     1       2.225   3.868   0.243  0.00  0.00    -0.495 OA
ATOM     28  C   UNL     1       3.413   3.074   0.245  0.00  0.00    +0.277 C 
ENDBRANCH  26  27
ENDBRANCH   9  21
BRANCH   3  29
ATOM     29  C   UNL     1      -0.236  11.456  -1.576  0.00  0.00    +0.338 C 
ATOM     30  O   UNL     1       0.160  11.833  -2.663  0.00  0.00    -0.245 OA
BRANCH  29  31
ATOM     31  O   UNL     1      -0.314  12.325  -0.547  0.00  0.00    -0.458 OA
BRANCH  31  32
ATOM     32  C   UNL     1       0.084  13.673  -0.805  0.00  0.00    +0.177 C 
ATOM     33  C   UNL     1       1.574  13.861  -0.453  0.00  0.00    +0.044 C 
ATOM     34  C   UNL     1       1.645  15.286   0.150  0.00  0.00    +0.004 C 
ATOM     35  C   UNL     1       0.331  15.379   0.965  0.00  0.00    +0.004 C 
ATOM     36  C   UNL     1      -0.706  14.638   0.096  0.00  0.00    +0.044 C 
ENDBRANCH  31  32
ENDBRANCH  29  31
ENDBRANCH   3  29
TORSDOF 6
