REMARK  Name = ZINC66140543
REMARK  6 active torsions:
REMARK  status: ('A' for Active; 'I' for Inactive)
REMARK    1  A    between atoms: C_1  and  C_2
REMARK    2  A    between atoms: C_2  and  C_4
REMARK    3  A    between atoms: C_2  and  O_17
REMARK    4  A    between atoms: C_6  and  C_10
REMARK    5  A    between atoms: C_14  and  N_16
REMARK    6  A    between atoms: O_17  and  C_18
REMARK                            x       y       z     vdW  Elec       q    Type
REMARK                         _______ _______ _______ _____ _____    ______ ____
ROOT
ATOM      1  C   UNL     1       0.767  -0.717  -1.225  0.00  0.00    +0.077 A 
ATOM      2  C   UNL     1       0.268  -1.088  -2.424  0.00  0.00    +0.056 A 
ATOM      3  C   UNL     1       1.349  -1.476  -3.240  0.00  0.00    +0.093 A 
ATOM      4  N   UNL     1       2.455  -1.337  -2.540  0.00  0.00    -0.174 NA
ATOM      5  N   UNL     1       2.109  -0.855  -1.271  0.00  0.00    -0.277 N 
ATOM      6  H   UNL     1       2.727  -0.657  -0.549  0.00  0.00    +0.189 HD
ENDROOT
BRANCH   3   7
ATOM      7  C   UNL     1       1.257  -1.956  -4.641  0.00  0.00    +0.004 A 
ATOM      8  C   UNL     1       0.016  -2.051  -5.267  0.00  0.00    +0.010 A 
ATOM      9  C   UNL     1      -0.068  -2.498  -6.571  0.00  0.00    +0.002 A 
ATOM     10  C   UNL     1       1.076  -2.853  -7.259  0.00  0.00    +0.023 A 
ATOM     11  C   UNL     1       2.318  -2.761  -6.643  0.00  0.00    +0.025 A 
ATOM     12  C   UNL     1       2.412  -2.308  -5.335  0.00  0.00    +0.032 A 
BRANCH  11  13
ATOM     13  N   UNL     1       3.473  -3.121  -7.342  0.00  0.00    -0.358 N 
ATOM     14  H   UNL     1       3.408  -3.435  -8.257  0.00  0.00    +0.142 HD
ATOM     15  H   UNL     1       4.340  -3.057  -6.911  0.00  0.00    +0.142 HD
ENDBRANCH  11  13
ENDBRANCH   3   7
BRANCH   1  17
ATOM     16  C   UNL     1      -0.288   1.273  -0.187  0.00  0.00    +0.059 C 
ATOM     17  C   UNL     1      -0.034  -0.229  -0.045  0.00  0.00    +0.218 C 
BRANCH  17  18
ATOM     18  O   UNL     1       0.693  -0.477   1.160  0.00  0.00    -0.482 OA
BRANCH  18  19
ATOM     19  C   UNL     1      -0.031  -0.600   2.304  0.00  0.00    +0.140 A 
ATOM     20  C   UNL     1      -1.399  -0.371   2.288  0.00  0.00    +0.048 A 
ATOM     21  C   UNL     1      -2.133  -0.496   3.451  0.00  0.00    +0.023 A 
ATOM     22  C   UNL     1      -1.505  -0.849   4.633  0.00  0.00    +0.043 A 
ATOM     23  C   UNL     1      -0.141  -1.077   4.652  0.00  0.00    +0.043 A 
ATOM     24  C   UNL     1       0.597  -0.959   3.488  0.00  0.00    +0.084 A 
ATOM     25 CL   UNL     1       2.308  -1.254   3.511  0.00  0.00    -0.080 Cl
ATOM     26 CL   UNL     1      -2.430  -1.004   6.093  0.00  0.00    -0.083 Cl
ENDBRANCH  18  19
ENDBRANCH  17  18
ENDBRANCH   1  17
TORSDOF 5
