REMARK  Name = ZINC13571378
REMARK  9 active torsions:
REMARK  status: ('A' for Active; 'I' for Inactive)
REMARK    1  A    between atoms: C_1  and  C_2
REMARK    2  A    between atoms: C_8  and  C_29
REMARK    3  A    between atoms: C_11  and  C_12
REMARK    4  A    between atoms: C_11  and  O_24
REMARK    5  A    between atoms: C_13  and  C_23
REMARK    6  A    between atoms: C_14  and  C_19
REMARK    7  A    between atoms: C_17  and  C_18
REMARK    8  A    between atoms: C_19  and  O_21
REMARK    9  A    between atoms: O_21  and  C_22
REMARK                            x       y       z     vdW  Elec       q    Type
REMARK                         _______ _______ _______ _____ _____    ______ ____
ROOT
ATOM      1  C   UNL     1      -0.651  -0.076  -5.546  0.00  0.00    +0.089 C 
ATOM      2  C   UNL     1      -1.443  -0.034  -4.265  0.00  0.00    +0.136 A 
ATOM      3  C   UNL     1      -1.037  -0.464  -3.049  0.00  0.00    +0.091 A 
ATOM      4  C   UNL     1      -2.147  -0.198  -2.203  0.00  0.00    +0.172 A 
ATOM      5  N   UNL     1      -3.066   0.336  -2.964  0.00  0.00    -0.063 NA
ATOM      6  O   UNL     1      -2.689   0.437  -4.109  0.00  0.00    -0.358 OA
ATOM      7  N   UNL     1      -2.239  -0.459  -0.837  0.00  0.00    -0.234 N 
ATOM      8  C   UNL     1      -1.155  -0.969   0.008  0.00  0.00    +0.158 C 
ATOM      9  C   UNL     1      -1.719  -1.092   1.405  0.00  0.00    +0.072 C 
ATOM     10  C   UNL     1      -1.053  -1.535   2.534  0.00  0.00    +0.135 C 
ATOM     11  C   UNL     1      -3.052  -0.668   1.327  0.00  0.00    +0.250 C 
ATOM     12  O   UNL     1      -3.842  -0.622   2.253  0.00  0.00    -0.282 OA
ATOM     13  C   UNL     1      -3.336  -0.283  -0.081  0.00  0.00    +0.293 C 
ATOM     14  O   UNL     1      -4.403   0.130  -0.487  0.00  0.00    -0.266 OA
ENDROOT
BRANCH  10  15
ATOM     15  C   UNL     1      -1.753  -1.595   3.824  0.00  0.00    +0.041 A 
ATOM     16  C   UNL     1      -2.142  -2.764   4.517  0.00  0.00    -0.008 A 
ATOM     17  C   UNL     1      -2.756  -2.362   5.666  0.00  0.00    +0.128 A 
ATOM     18  N   UNL     1      -2.764  -0.983   5.695  0.00  0.00    -0.352 N 
ATOM     19  H   UNL     1      -3.144  -0.438   6.401  0.00  0.00    +0.166 HD
ATOM     20  C   UNL     1      -2.162  -0.514   4.590  0.00  0.00    +0.024 A 
ATOM     21  C   UNL     1      -1.965   0.939   4.243  0.00  0.00    +0.064 C 
ATOM     22  C   UNL     1      -1.917  -4.186   4.072  0.00  0.00    +0.047 C 
BRANCH  17  23
ATOM     23  C   UNL     1      -3.318  -3.244   6.694  0.00  0.00    +0.356 C 
ATOM     24  O   UNL     1      -3.253  -4.451   6.560  0.00  0.00    -0.243 OA
BRANCH  23  25
ATOM     25  O   UNL     1      -3.908  -2.717   7.787  0.00  0.00    -0.463 OA
ATOM     26  C   UNL     1      -4.442  -3.651   8.762  0.00  0.00    +0.280 C 
ENDBRANCH  23  25
ENDBRANCH  17  23
ENDBRANCH  10  15
BRANCH   8  27
ATOM     27  C   UNL     1       0.002  -0.004   0.002  0.00  0.00    +0.015 A 
ATOM     28  C   UNL     1       1.332  -0.266  -0.012  0.00  0.00    +0.013 A 
ATOM     29  C   UNL     1       2.223   0.790  -0.015  0.00  0.00    +0.008 A 
ATOM     30  C   UNL     1       1.742   2.057  -0.004  0.00  0.00    +0.045 A 
ATOM     31  S   UNL     1      -0.022   1.781   0.012  0.00  0.00    -0.099 S 
ENDBRANCH   8  27
BRANCH  10  32
ATOM     32  O   UNL     1       0.241  -1.913   2.449  0.00  0.00    -0.506 OA
ATOM     33  H   UNL     1       0.563  -2.203   3.350  0.00  0.00    +0.292 HD
ENDBRANCH  10  32
TORSDOF 5
