REMARK  Name = ZINC39528669
REMARK  9 active torsions:
REMARK  status: ('A' for Active; 'I' for Inactive)
REMARK    1  A    between atoms: C_1  and  C_2
REMARK    2  A    between atoms: C_4  and  S_25
REMARK    3  A    between atoms: C_7  and  N_8
REMARK    4  A    between atoms: C_12  and  S_15
REMARK    5  A    between atoms: S_15  and  O_18
REMARK    6  A    between atoms: O_18  and  C_19
REMARK    7  A    between atoms: S_25  and  C_28
REMARK    8  A    between atoms: C_28  and  C_29
REMARK    9  A    between atoms: C_28  and  C_30
REMARK                            x       y       z     vdW  Elec       q    Type
REMARK                         _______ _______ _______ _____ _____    ______ ____
ROOT
ATOM      1  N   UNL     1       0.025  -0.016   2.415  0.00  0.00    -0.331 N 
ATOM      2  C   UNL     1      -1.235   0.335   3.088  0.00  0.00    +0.086 C 
ATOM      3  C   UNL     1      -1.150  -0.123   4.548  0.00  0.00    -0.061 C 
ATOM      4  N   UNL     1       0.049   0.450   5.171  0.00  0.00    +0.398 N 
ATOM      5  C   UNL     1       1.254  -0.081   4.519  0.00  0.00    +0.133 C 
ATOM      6  C   UNL     1       1.288   0.374   3.061  0.00  0.00    +0.115 C 
ATOM      7  H   UNL     1       0.030   1.454   5.073  0.00  0.00    -0.083 HD
ATOM      8  H   UNL     1       0.065   0.210   6.151  0.00  0.00    -0.083 HD
ENDROOT
BRANCH   1  15
ATOM      9  C   UNL     1      -0.018   1.503   0.010  0.00  0.00    +0.046 C 
ATOM     10  C   UNL     1       0.002  -0.004   0.002  0.00  0.00    -0.028 A 
ATOM     11  C   UNL     1       0.006  -0.689  -1.198  0.00  0.00    +0.032 A 
ATOM     12  C   UNL     1       0.024  -2.071  -1.206  0.00  0.00    +0.089 A 
ATOM     13  C   UNL     1       0.039  -2.773  -0.014  0.00  0.00    +0.029 A 
ATOM     14  C   UNL     1       0.036  -2.095   1.188  0.00  0.00    +0.025 A 
ATOM     15  C   UNL     1       0.023  -0.706   1.200  0.00  0.00    +0.033 A 
BRANCH  12  16
ATOM     16  S   UNL     1       0.027  -2.941  -2.738  0.00  0.00    -0.001 S 
ATOM     17  O   UNL     1      -0.557  -4.202  -2.441  0.00  0.00    -0.169 OA
ATOM     18  O   UNL     1      -0.592  -2.054  -3.660  0.00  0.00    -0.169 OA
BRANCH  16  19
ATOM     19  C   UNL     1       1.781  -3.148  -3.153  0.00  0.00    +0.130 C 
ATOM     20  C   UNL     1       2.476  -3.946  -2.048  0.00  0.00    +0.032 C 
ATOM     21  C   UNL     1       1.906  -3.899  -4.480  0.00  0.00    +0.032 C 
ENDBRANCH  16  19
ENDBRANCH  12  16
ENDBRANCH   1  15
BRANCH   5  22
ATOM     22  S   UNL     1       2.727   0.532   5.381  0.00  0.00    +0.109 S 
ATOM     23  O   UNL     1       3.891  -0.111   4.879  0.00  0.00    -0.138 OA
ATOM     24  O   UNL     1       2.674   1.947   5.497  0.00  0.00    -0.138 OA
BRANCH  22  25
ATOM     25  O   UNL     1       2.587   0.020   6.808  0.00  0.00    -0.347 OA
BRANCH  25  26
ATOM     26  C   UNL     1       2.849  -1.306   6.948  0.00  0.00    +0.156 A 
ATOM     27  C   UNL     1       1.827  -2.234   6.811  0.00  0.00    +0.048 A 
ATOM     28  C   UNL     1       2.096  -3.582   6.953  0.00  0.00    +0.004 A 
ATOM     29  C   UNL     1       3.382  -4.005   7.233  0.00  0.00    +0.000 A 
ATOM     30  C   UNL     1       4.402  -3.082   7.371  0.00  0.00    +0.004 A 
ATOM     31  C   UNL     1       4.140  -1.734   7.223  0.00  0.00    +0.048 A 
ENDBRANCH  25  26
ENDBRANCH  22  25
ENDBRANCH   5  22
TORSDOF 6
