REMARK  Name = ZINC13143734
REMARK  13 active torsions:
REMARK  status: ('A' for Active; 'I' for Inactive)
REMARK    1  A    between atoms: C_1  and  C_2
REMARK    2  A    between atoms: C_6  and  O_38
REMARK    3  A    between atoms: C_7  and  O_36
REMARK    4  A    between atoms: N_12  and  C_13
REMARK    5  A    between atoms: C_13  and  C_14
REMARK    6  A    between atoms: C_16  and  C_22
REMARK    7  A    between atoms: C_19  and  O_20
REMARK    8  A    between atoms: O_20  and  C_21
REMARK    9  A    between atoms: N_23  and  N_24
REMARK   10  A    between atoms: C_25  and  C_27
REMARK   11  A    between atoms: C_32  and  N_33
REMARK   12  A    between atoms: O_36  and  C_37
REMARK   13  A    between atoms: O_38  and  C_39
REMARK                            x       y       z     vdW  Elec       q    Type
REMARK                         _______ _______ _______ _____ _____    ______ ____
ROOT
ATOM      1  C   UNL     1       0.951   0.893   5.481  0.00  0.00    -0.022 A 
ATOM      2  C   UNL     1       0.549  -0.345   5.935  0.00  0.00    +0.014 A 
ATOM      3  C   UNL     1       1.363  -1.061   6.817  0.00  0.00    -0.005 A 
ATOM      4  C   UNL     1       2.581  -0.517   7.235  0.00  0.00    +0.013 A 
ATOM      5  C   UNL     1       2.974   0.721   6.776  0.00  0.00    +0.046 A 
ATOM      6  C   UNL     1       2.164   1.427   5.895  0.00  0.00    +0.121 A 
ENDROOT
BRANCH   6   7
ATOM      7  O   UNL     1       2.559   2.645   5.440  0.00  0.00    -0.495 OA
ATOM      8  C   UNL     1       3.818   3.134   5.906  0.00  0.00    +0.277 C 
ENDBRANCH   6   7
BRANCH   3   9
ATOM      9  C   UNL     1       0.938  -2.385   7.306  0.00  0.00    +0.138 C 
ATOM     10  N   UNL     1       1.695  -3.048   8.125  0.00  0.00    -0.187 NA
BRANCH  10  11
ATOM     11  N   UNL     1       1.291  -4.307   8.590  0.00  0.00    -0.203 N 
ATOM     12  C   UNL     1       2.078  -4.995   9.441  0.00  0.00    +0.265 C 
ATOM     13  O   UNL     1       3.138  -4.524   9.805  0.00  0.00    -0.268 OA
ATOM     14  H   UNL     1       0.446  -4.682   8.299  0.00  0.00    +0.178 HD
BRANCH  12  15
ATOM     15  C   UNL     1       1.651  -6.323   9.931  0.00  0.00    +0.068 A 
ATOM     16  C   UNL     1       0.411  -6.476  10.553  0.00  0.00    +0.015 A 
ATOM     17  C   UNL     1       0.019  -7.718  11.008  0.00  0.00    +0.001 A 
ATOM     18  C   UNL     1       0.852  -8.811  10.848  0.00  0.00    +0.002 A 
ATOM     19  C   UNL     1       2.083  -8.667  10.231  0.00  0.00    +0.033 A 
ATOM     20  C   UNL     1       2.485  -7.431   9.767  0.00  0.00    +0.138 A 
BRANCH  20  21
ATOM     21  N   UNL     1       3.799  -7.280   9.103  0.00  0.00    +0.057 N 
ATOM     22  O   UNL     1       4.570  -8.210   9.071  0.00  0.00    -0.126 OA
ATOM     23  O   UNL     1       4.100  -6.226   8.592  0.00  0.00    -0.126 OA
ENDBRANCH  20  21
ENDBRANCH  12  15
ENDBRANCH  10  11
ENDBRANCH   3   9
BRANCH   1  24
ATOM     24  C   UNL     1       0.074   1.666   4.530  0.00  0.00    -0.038 C 
BRANCH  24  35
ATOM     25  C   UNL     1       0.057   3.815   2.578  0.00  0.00    -0.008 C 
ATOM     26  C   UNL     1      -0.203   2.344   2.247  0.00  0.00    -0.040 C 
ATOM     27  C   UNL     1       0.188   2.080   0.817  0.00  0.00    -0.054 A 
ATOM     28  C   UNL     1      -0.132   3.029  -0.142  0.00  0.00    +0.051 A 
ATOM     29  C   UNL     1       0.206   2.826  -1.468  0.00  0.00    +0.162 A 
ATOM     30  C   UNL     1       0.872   1.662  -1.841  0.00  0.00    +0.162 A 
ATOM     31  C   UNL     1       1.190   0.718  -0.880  0.00  0.00    +0.053 A 
ATOM     32  C   UNL     1       0.849   0.927   0.448  0.00  0.00    -0.044 A 
ATOM     33  C   UNL     1       1.223  -0.124   1.462  0.00  0.00    +0.017 C 
ATOM     34  C   UNL     1       0.428   0.094   2.750  0.00  0.00    -0.073 C 
ATOM     35  N   UNL     1       0.574   1.499   3.159  0.00  0.00    +0.387 N 
ATOM     36  H   UNL     1       1.546   1.764   3.118  0.00  0.00    -0.080 HD
BRANCH  30  37
ATOM     37  O   UNL     1       1.207   1.453  -3.142  0.00  0.00    -0.491 OA
ATOM     38  C   UNL     1       1.888   0.235  -3.448  0.00  0.00    +0.277 C 
ENDBRANCH  30  37
BRANCH  29  39
ATOM     39  O   UNL     1      -0.110   3.761  -2.404  0.00  0.00    -0.491 OA
ATOM     40  C   UNL     1      -0.793   4.930  -1.948  0.00  0.00    +0.277 C 
ENDBRANCH  29  39
ENDBRANCH  24  35
ENDBRANCH   1  24
TORSDOF 9
