REMARK  Name = ZINC63648790
REMARK  9 active torsions:
REMARK  status: ('A' for Active; 'I' for Inactive)
REMARK    1  A    between atoms: C_1  and  C_2
REMARK    2  A    between atoms: C_5  and  N_8
REMARK    3  A    between atoms: C_11  and  C_37
REMARK    4  A    between atoms: N_18  and  C_21
REMARK    5  A    between atoms: C_21  and  C_22
REMARK    6  A    between atoms: C_22  and  O_23
REMARK    7  A    between atoms: O_23  and  C_24
REMARK    8  A    between atoms: C_24  and  C_25
REMARK    9  A    between atoms: C_24  and  C_31
REMARK                            x       y       z     vdW  Elec       q    Type
REMARK                         _______ _______ _______ _____ _____    ______ ____
ROOT
ATOM      1  N   UNL     1       0.660  -4.322   0.044  0.00  0.00    -0.212 N 
ATOM      2  C   UNL     1       0.429  -4.996  -1.102  0.00  0.00    +0.248 C 
ATOM      3  O   UNL     1       0.746  -4.669  -2.226  0.00  0.00    -0.273 OA
ATOM      4  C   UNL     1      -0.310  -6.250  -0.681  0.00  0.00    +0.165 C 
ATOM      5  N   UNL     1      -0.418  -6.124   0.781  0.00  0.00    -0.349 N 
ATOM      6  C   UNL     1       0.157  -5.012   1.121  0.00  0.00    +0.171 C 
ATOM      7  N   UNL     1       0.249  -4.570   2.419  0.00  0.00    -0.302 N 
ATOM      8  C   UNL     1       0.127  -3.139   2.740  0.00  0.00    +0.123 C 
ATOM      9  C   UNL     1      -0.916  -2.976   3.850  0.00  0.00    +0.103 C 
ATOM     10  N   UNL     1      -0.557  -3.838   4.984  0.00  0.00    -0.297 NA
ATOM     11  C   UNL     1      -0.585  -5.257   4.605  0.00  0.00    +0.103 C 
ATOM     12  C   UNL     1       0.466  -5.514   3.525  0.00  0.00    +0.123 C 
ATOM     13  C   UNL     1      -1.698  -6.296  -1.323  0.00  0.00    +0.040 C 
ATOM     14  H   UNL     1      -0.840  -6.758   1.381  0.00  0.00    +0.163 HD
ENDROOT
BRANCH   1  19
ATOM     15  C   UNL     1       3.356   0.661   0.376  0.00  0.00    +0.044 C 
ATOM     16  C   UNL     1       2.640  -0.662   0.288  0.00  0.00    -0.050 A 
ATOM     17  C   UNL     1       1.403  -0.738  -0.326  0.00  0.00    +0.005 A 
ATOM     18  C   UNL     1       0.744  -1.949  -0.408  0.00  0.00    +0.024 A 
ATOM     19  C   UNL     1       1.326  -3.091   0.126  0.00  0.00    +0.044 A 
ATOM     20  C   UNL     1       2.568  -3.012   0.741  0.00  0.00    +0.024 A 
ATOM     21  C   UNL     1       3.224  -1.799   0.815  0.00  0.00    +0.005 A 
ENDBRANCH   1  19
BRANCH  10  22
ATOM     22  C   UNL     1      -1.433  -3.585   6.136  0.00  0.00    +0.112 C 
BRANCH  22  23
ATOM     23  C   UNL     1      -0.882  -4.309   7.366  0.00  0.00    +0.176 C 
BRANCH  23  24
ATOM     24  O   UNL     1       0.383  -3.747   7.722  0.00  0.00    -0.366 OA
BRANCH  24  25
ATOM     25  C   UNL     1       0.988  -4.356   8.865  0.00  0.00    +0.178 C 
BRANCH  25  26
ATOM     26  C   UNL     1       1.854  -5.506   8.422  0.00  0.00    -0.015 A 
ATOM     27  C   UNL     1       2.631  -5.388   7.284  0.00  0.00    +0.006 A 
ATOM     28  C   UNL     1       3.426  -6.444   6.878  0.00  0.00    +0.000 A 
ATOM     29  C   UNL     1       3.444  -7.617   7.609  0.00  0.00    +0.000 A 
ATOM     30  C   UNL     1       2.668  -7.734   8.746  0.00  0.00    +0.000 A 
ATOM     31  C   UNL     1       1.877  -6.678   9.155  0.00  0.00    +0.006 A 
ENDBRANCH  25  26
BRANCH  25  32
ATOM     32  C   UNL     1       1.833  -3.339   9.587  0.00  0.00    -0.015 A 
ATOM     33  C   UNL     1       2.513  -2.371   8.870  0.00  0.00    +0.006 A 
ATOM     34  C   UNL     1       3.289  -1.438   9.533  0.00  0.00    +0.000 A 
ATOM     35  C   UNL     1       3.385  -1.473  10.911  0.00  0.00    +0.000 A 
ATOM     36  C   UNL     1       2.705  -2.440  11.628  0.00  0.00    +0.000 A 
ATOM     37  C   UNL     1       1.926  -3.370  10.966  0.00  0.00    +0.006 A 
ENDBRANCH  25  32
ENDBRANCH  24  25
ENDBRANCH  23  24
ENDBRANCH  22  23
ENDBRANCH  10  22
TORSDOF 7
