REMARK  Name = ZINC24534896
REMARK  8 active torsions:
REMARK  status: ('A' for Active; 'I' for Inactive)
REMARK    1  A    between atoms: C_1  and  C_2
REMARK    2  A    between atoms: C_2  and  C_3
REMARK    3  A    between atoms: C_3  and  C_4
REMARK    4  A    between atoms: C_4  and  C_5
REMARK    5  A    between atoms: C_5  and  C_28
REMARK    6  A    between atoms: N_8  and  C_12
REMARK    7  A    between atoms: C_12  and  C_13
REMARK    8  A    between atoms: C_23  and  N_25
REMARK                            x       y       z     vdW  Elec       q    Type
REMARK                         _______ _______ _______ _____ _____    ______ ____
ROOT
ATOM      1  C   UNL     1      -2.573   3.885   0.058  0.00  0.00    +0.138 C 
ATOM      2  C   UNL     1      -2.998   4.268  -1.345  0.00  0.00    +0.251 C 
ATOM      3  O   UNL     1      -3.256   3.519  -2.263  0.00  0.00    -0.272 OA
ATOM      4  N   UNL     1      -3.030   5.615  -1.361  0.00  0.00    -0.215 N 
ATOM      5  C   UNL     1      -2.687   6.131  -0.175  0.00  0.00    +0.310 C 
ATOM      6  O   UNL     1      -2.642   7.323   0.055  0.00  0.00    -0.252 OA
ATOM      7  N   UNL     1      -2.398   5.182   0.733  0.00  0.00    -0.281 N 
ATOM      8  H   UNL     1      -2.085   5.215   1.787  0.00  0.00    +0.152 HD
ENDROOT
BRANCH   1   9
ATOM      9  C   UNL     1      -1.273   3.122   0.029  0.00  0.00    -0.015 A 
ATOM     10  C   UNL     1      -1.283   1.740   0.019  0.00  0.00    +0.006 A 
ATOM     11  C   UNL     1      -0.091   1.041  -0.002  0.00  0.00    +0.000 A 
ATOM     12  C   UNL     1       1.111   1.724  -0.025  0.00  0.00    +0.000 A 
ATOM     13  C   UNL     1       1.120   3.106  -0.021  0.00  0.00    +0.000 A 
ATOM     14  C   UNL     1      -0.072   3.805   0.006  0.00  0.00    +0.006 A 
ENDBRANCH   1   9
BRANCH   1  15
ATOM     15  C   UNL     1      -3.663   3.061   0.748  0.00  0.00    +0.040 C 
BRANCH  15  16
ATOM     16  C   UNL     1      -4.969   3.857   0.764  0.00  0.00    +0.003 C 
BRANCH  16  18
ATOM     17  C   UNL     1      -7.366   3.829   1.471  0.00  0.00    +0.004 C 
ATOM     18  C   UNL     1      -6.059   3.034   1.455  0.00  0.00    -0.003 C 
ENDBRANCH  16  18
ENDBRANCH  15  16
ENDBRANCH   1  15
BRANCH   4  19
ATOM     19  C   UNL     1      -3.393   6.416  -2.533  0.00  0.00    +0.214 C 
BRANCH  19  20
ATOM     20  C   UNL     1      -2.156   6.718  -3.339  0.00  0.00    +0.238 C 
ATOM     21  O   UNL     1      -1.066   6.382  -2.926  0.00  0.00    -0.274 OA
ATOM     22  N   UNL     1      -2.261   7.360  -4.519  0.00  0.00    -0.270 N 
ATOM     23  C   UNL     1      -3.566   7.837  -4.997  0.00  0.00    +0.114 C 
ATOM     24  C   UNL     1      -3.689   7.475  -6.479  0.00  0.00    +0.024 C 
ATOM     25  C   UNL     1      -2.603   8.212  -7.262  0.00  0.00    +0.038 C 
ATOM     26  C   UNL     1      -1.253   7.983  -6.634  0.00  0.00    -0.024 A 
ATOM     27  C   UNL     1      -1.127   7.579  -5.314  0.00  0.00    +0.040 A 
ATOM     28  C   UNL     1       0.134   7.385  -4.763  0.00  0.00    +0.026 A 
ATOM     29  C   UNL     1       1.263   7.591  -5.531  0.00  0.00    +0.034 A 
ATOM     30  C   UNL     1       1.137   7.992  -6.848  0.00  0.00    +0.127 A 
ATOM     31  C   UNL     1      -0.116   8.187  -7.398  0.00  0.00    +0.038 A 
BRANCH  30  32
ATOM     32  N   UNL     1       2.347   8.213  -7.672  0.00  0.00    +0.056 N 
ATOM     33  O   UNL     1       2.237   8.566  -8.833  0.00  0.00    -0.126 OA
ATOM     34  O   UNL     1       3.452   8.042  -7.189  0.00  0.00    -0.126 OA
ENDBRANCH  30  32
ENDBRANCH  19  20
ENDBRANCH   4  19
TORSDOF 7
