REMARK  Name = ZINC22409670
REMARK  8 active torsions:
REMARK  status: ('A' for Active; 'I' for Inactive)
REMARK    1  A    between atoms: C_1  and  C_2
REMARK    2  A    between atoms: C_5  and  C_34
REMARK    3  A    between atoms: N_8  and  S_10
REMARK    4  A    between atoms: S_10  and  C_13
REMARK    5  A    between atoms: C_16  and  C_19
REMARK    6  A    between atoms: N_21  and  C_22
REMARK    7  A    between atoms: C_23  and  C_30
REMARK    8  A    between atoms: N_32  and  C_33
REMARK                            x       y       z     vdW  Elec       q    Type
REMARK                         _______ _______ _______ _____ _____    ______ ____
ROOT
ATOM      1  C   UNL     1      -1.253   1.526   4.835  0.00  0.00    +0.106 A 
ATOM      2  C   UNL     1      -0.452   1.981   5.867  0.00  0.00    +0.029 A 
ATOM      3  C   UNL     1      -0.940   2.908   6.766  0.00  0.00    +0.015 A 
ATOM      4  C   UNL     1      -2.248   3.379   6.638  0.00  0.00    +0.037 A 
ATOM      5  C   UNL     1      -3.052   2.912   5.597  0.00  0.00    +0.015 A 
ATOM      6  C   UNL     1      -2.551   1.989   4.702  0.00  0.00    +0.029 A 
ENDROOT
BRANCH   4   7
ATOM      7  C   UNL     1      -2.779   4.367   7.600  0.00  0.00    +0.249 C 
ATOM      8  O   UNL     1      -3.918   4.774   7.487  0.00  0.00    -0.270 OA
ATOM      9  N   UNL     1      -1.999   4.816   8.604  0.00  0.00    -0.275 N 
ATOM     10  H   UNL     1      -0.968   4.447   8.707  0.00  0.00    +0.156 HD
BRANCH   9  11
ATOM     11  C   UNL     1      -2.497   5.742   9.506  0.00  0.00    +0.085 A 
ATOM     12  C   UNL     1      -1.859   6.311  10.595  0.00  0.00    +0.069 A 
ATOM     13  C   UNL     1      -2.614   7.275  11.395  0.00  0.00    -0.023 A 
ATOM     14  C   UNL     1      -3.874   7.499  10.980  0.00  0.00    -0.004 A 
ATOM     15  S   UNL     1      -4.070   6.462   9.551  0.00  0.00    -0.077 S 
ATOM     16  C   UNL     1      -4.586   8.497  11.851  0.00  0.00    +0.043 C 
ATOM     17  C   UNL     1      -3.457   9.207  12.632  0.00  0.00    +0.010 C 
ATOM     18  C   UNL     1      -2.353   8.132  12.634  0.00  0.00    +0.037 C 
BRANCH  12  19
ATOM     19  C   UNL     1      -0.474   5.964  10.932  0.00  0.00    +0.246 C 
ATOM     20  O   UNL     1       0.446   6.604  10.458  0.00  0.00    -0.270 OA
ATOM     21  N   UNL     1      -0.222   4.935  11.765  0.00  0.00    -0.314 N 
ATOM     22  C   UNL     1       1.161   4.588  12.101  0.00  0.00    +0.128 C 
ATOM     23  H   UNL     1      -1.054   4.356  12.193  0.00  0.00    +0.149 HD
ENDBRANCH  12  19
ENDBRANCH   9  11
ENDBRANCH   4   7
BRANCH   1  24
ATOM     24  S   UNL     1      -0.621   0.347   3.688  0.00  0.00    +0.061 S 
ATOM     25  O   UNL     1      -1.744  -0.332   3.144  0.00  0.00    -0.153 OA
ATOM     26  O   UNL     1       0.435  -0.336   4.349  0.00  0.00    -0.153 OA
BRANCH  24  32
ATOM     27  C   UNL     1       3.619   1.586   1.189  0.00  0.00    +0.009 C 
ATOM     28  C   UNL     1       2.175   1.082   1.218  0.00  0.00    +0.002 C 
ATOM     29  C   UNL     1       1.423   1.616  -0.003  0.00  0.00    +0.009 C 
ATOM     30  C   UNL     1      -0.013   1.086   0.008  0.00  0.00    +0.002 C 
ATOM     31  C   UNL     1      -0.726   1.581   1.270  0.00  0.00    +0.112 C 
ATOM     32  N   UNL     1       0.069   1.195   2.444  0.00  0.00    -0.176 NA
ATOM     33  C   UNL     1       1.486   1.577   2.494  0.00  0.00    +0.112 C 
ATOM     34  C   UNL     1      -0.754   1.593  -1.230  0.00  0.00    +0.009 C 
ENDBRANCH  24  32
ENDBRANCH   1  24
TORSDOF 5
