REMARK  Name = ZINC63633409
REMARK  8 active torsions:
REMARK  status: ('A' for Active; 'I' for Inactive)
REMARK    1  A    between atoms: C_1  and  C_2
REMARK    2  A    between atoms: C_5  and  C_8
REMARK    3  A    between atoms: N_10  and  C_11
REMARK    4  A    between atoms: C_11  and  C_12
REMARK    5  A    between atoms: C_12  and  N_13
REMARK    6  A    between atoms: C_14  and  C_16
REMARK    7  A    between atoms: C_16  and  S_17
REMARK    8  A    between atoms: S_17  and  C_18
REMARK                            x       y       z     vdW  Elec       q    Type
REMARK                         _______ _______ _______ _____ _____    ______ ____
ROOT
ATOM      1  N   UNL     1       0.127  -8.379   2.566  0.00  0.00    -0.313 N 
ATOM      2  C   UNL     1       0.141  -9.059   3.729  0.00  0.00    +0.223 C 
ATOM      3  O   UNL     1       0.139  -8.459   4.783  0.00  0.00    -0.275 OA
ATOM      4  H   UNL     1       0.129  -8.859   1.723  0.00  0.00    +0.149 HD
ENDROOT
BRANCH   1   5
ATOM      5  C   UNL     1       0.107  -6.914   2.574  0.00  0.00    +0.123 C 
BRANCH   5   6
ATOM      6  C   UNL     1       0.093  -6.396   1.134  0.00  0.00    +0.123 C 
BRANCH   6   9
ATOM      7  C   UNL     1       0.059  -4.251  -0.021  0.00  0.00    +0.244 C 
ATOM      8  O   UNL     1       0.062  -4.853  -1.077  0.00  0.00    -0.270 OA
ATOM      9  N   UNL     1       0.074  -4.931   1.142  0.00  0.00    -0.310 N 
ATOM     10  H   UNL     1       0.072  -4.451   1.985  0.00  0.00    +0.149 HD
BRANCH   7  15
ATOM     11  C   UNL     1      -0.018   1.503   0.010  0.00  0.00    +0.044 C 
ATOM     12  C   UNL     1       0.002  -0.004   0.002  0.00  0.00    -0.050 A 
ATOM     13  C   UNL     1       0.006  -0.686  -1.202  0.00  0.00    +0.004 A 
ATOM     14  C   UNL     1       0.024  -2.066  -1.216  0.00  0.00    +0.013 A 
ATOM     15  C   UNL     1       0.040  -2.773  -0.013  0.00  0.00    +0.037 A 
ATOM     16  C   UNL     1       0.036  -2.079   1.198  0.00  0.00    +0.013 A 
ATOM     17  C   UNL     1       0.023  -0.699   1.198  0.00  0.00    +0.004 A 
ENDBRANCH   7  15
ENDBRANCH   6   9
ENDBRANCH   5   6
ENDBRANCH   1   5
BRANCH   2  18
ATOM     18  C   UNL     1       0.161 -10.566   3.721  0.00  0.00    +0.168 C 
BRANCH  18  19
ATOM     19  S   UNL     1       0.178 -11.180   5.428  0.00  0.00    -0.106 S 
BRANCH  19  20
ATOM     20  C   UNL     1       0.201 -12.985   5.245  0.00  0.00    +0.236 C 
ATOM     21  N   UNL     1       1.358 -13.395   4.440  0.00  0.00    -0.355 N 
ATOM     22  C   UNL     1       0.903 -14.001   3.382  0.00  0.00    +0.061 A 
ATOM     23  C   UNL     1       1.563 -14.623   2.226  0.00  0.00    +0.027 A 
ATOM     24  C   UNL     1       0.814 -15.188   1.258  0.00  0.00    +0.002 A 
ATOM     25  C   UNL     1      -0.591 -15.211   1.302  0.00  0.00    +0.002 A 
ATOM     26  C   UNL     1      -1.295 -14.670   2.316  0.00  0.00    +0.027 A 
ATOM     27  C   UNL     1      -0.584 -14.024   3.428  0.00  0.00    +0.061 A 
ATOM     28  N   UNL     1      -0.991 -13.432   4.514  0.00  0.00    -0.355 N 
ATOM     29  H   UNL     1       2.291 -13.242   4.657  0.00  0.00    +0.162 HD
ATOM     30  H   UNL     1      -1.913 -13.310   4.790  0.00  0.00    +0.162 HD
ENDBRANCH  19  20
ENDBRANCH  18  19
ENDBRANCH   2  18
TORSDOF 7
