REMARK  Name = ZINC03419132
REMARK  10 active torsions:
REMARK  status: ('A' for Active; 'I' for Inactive)
REMARK    1  A    between atoms: C_1  and  O_2
REMARK    2  A    between atoms: O_2  and  C_3
REMARK    3  A    between atoms: C_6  and  N_11
REMARK    4  A    between atoms: C_8  and  O_9
REMARK    5  A    between atoms: O_9  and  C_10
REMARK    6  A    between atoms: C_24  and  N_25
REMARK    7  A    between atoms: N_25  and  C_26
REMARK    8  A    between atoms: C_26  and  C_27
REMARK    9  A    between atoms: C_27  and  C_29
REMARK   10  A    between atoms: C_27  and  N_34
REMARK                            x       y       z     vdW  Elec       q    Type
REMARK                         _______ _______ _______ _____ _____    ______ ____
ROOT
ATOM      1  N   UNL     1       1.563   6.670  -3.160  0.00  0.00    -0.202 N 
ATOM      2  C   UNL     1       2.601   7.308  -3.718  0.00  0.00    +0.258 C 
ATOM      3  O   UNL     1       3.340   6.692  -4.460  0.00  0.00    -0.269 OA
ATOM      4  C   UNL     1       2.873   8.735  -3.465  0.00  0.00    +0.046 A 
ATOM      5  C   UNL     1       3.958   9.376  -4.064  0.00  0.00    +0.014 A 
ATOM      6  C   UNL     1       4.189  10.711  -3.804  0.00  0.00    +0.001 A 
ATOM      7  C   UNL     1       3.354  11.415  -2.955  0.00  0.00    +0.001 A 
ATOM      8  C   UNL     1       2.275  10.785  -2.356  0.00  0.00    +0.009 A 
ATOM      9  C   UNL     1       2.035   9.456  -2.609  0.00  0.00    +0.000 A 
ATOM     10  C   UNL     1       0.871   8.729  -1.979  0.00  0.00    +0.059 C 
ATOM     11  C   UNL     1       0.483   7.556  -1.105  0.00  0.00    +0.259 C 
ATOM     12  O   UNL     1      -0.139   7.740  -0.080  0.00  0.00    -0.269 OA
ATOM     13  C   UNL     1      -0.393   9.450  -2.372  0.00  0.00    +0.081 C 
ENDROOT
BRANCH   1  17
ATOM     14  C   UNL     1       1.008   2.631  -4.061  0.00  0.00    +0.162 A 
ATOM     15  C   UNL     1       0.547   3.607  -4.931  0.00  0.00    +0.051 A 
ATOM     16  C   UNL     1       0.732   4.943  -4.633  0.00  0.00    +0.028 A 
ATOM     17  C   UNL     1       1.376   5.312  -3.460  0.00  0.00    +0.048 A 
ATOM     18  C   UNL     1       1.834   4.338  -2.584  0.00  0.00    +0.073 A 
ATOM     19  C   UNL     1       1.649   2.998  -2.881  0.00  0.00    +0.163 A 
BRANCH  14  21
ATOM     20  C   UNL     1       0.165   1.012  -5.586  0.00  0.00    +0.277 C 
ATOM     21  O   UNL     1       0.830   1.316  -4.358  0.00  0.00    -0.491 OA
ENDBRANCH  14  21
BRANCH  19  22
ATOM     22  O   UNL     1       2.097   2.042  -2.025  0.00  0.00    -0.491 OA
ATOM     23  C   UNL     1       2.750   2.491  -0.836  0.00  0.00    +0.277 C 
ENDBRANCH  19  22
ENDBRANCH   1  17
BRANCH  13  25
ATOM     24  H   UNL     1       0.227  11.206  -1.486  0.00  0.00    +0.145 HD
ATOM     25  N   UNL     1      -0.555  10.677  -2.050  0.00  0.00    -0.350 N 
BRANCH  25  26
ATOM     26  C   UNL     1      -1.784  11.379  -2.433  0.00  0.00    +0.093 C 
BRANCH  26  27
ATOM     27  C   UNL     1      -2.566  11.761  -1.175  0.00  0.00    +0.016 C 
BRANCH  27  28
ATOM     28  N   UNL     1      -1.701  12.540  -0.278  0.00  0.00    +0.387 N 
ATOM     29  C   UNL     1      -2.472  13.073   0.874  0.00  0.00    -0.078 C 
ATOM     30  C   UNL     1      -1.375  13.377   1.925  0.00  0.00    -0.020 C 
ATOM     31  C   UNL     1      -0.379  12.210   1.731  0.00  0.00    -0.020 C 
ATOM     32  C   UNL     1      -0.640  11.691   0.305  0.00  0.00    -0.078 C 
ATOM     33  H   UNL     1      -1.279  13.346  -0.896  0.00  0.00    -0.081 HD
ENDBRANCH  27  28
BRANCH  27  34
ATOM     34  C   UNL     1      -3.765  12.588  -1.560  0.00  0.00    +0.093 A 
ATOM     35  C   UNL     1      -5.048  12.186  -1.507  0.00  0.00    +0.043 A 
ATOM     36  C   UNL     1      -5.836  13.270  -1.957  0.00  0.00    +0.041 A 
ATOM     37  C   UNL     1      -4.987  14.270  -2.258  0.00  0.00    +0.195 A 
ATOM     38  O   UNL     1      -3.735  13.852  -2.011  0.00  0.00    -0.469 OA
ENDBRANCH  27  34
ENDBRANCH  26  27
ENDBRANCH  25  26
ENDBRANCH  13  25
TORSDOF 8
