REMARK  Name = ZINC35378958
REMARK  9 active torsions:
REMARK  status: ('A' for Active; 'I' for Inactive)
REMARK    1  A    between atoms: C_1  and  C_2
REMARK    2  A    between atoms: C_2  and  O_3
REMARK    3  A    between atoms: O_3  and  C_4
REMARK    4  A    between atoms: C_7  and  N_10
REMARK    5  A    between atoms: N_10  and  C_11
REMARK    6  A    between atoms: C_12  and  C_14
REMARK    7  A    between atoms: N_19  and  S_21
REMARK    8  A    between atoms: S_21  and  C_24
REMARK    9  A    between atoms: C_29  and  C_30
REMARK                            x       y       z     vdW  Elec       q    Type
REMARK                         _______ _______ _______ _____ _____    ______ ____
ROOT
ATOM      1  C   UNL     1      -3.431  -8.014   0.692  0.00  0.00    +0.091 C 
ATOM      2  C   UNL     1      -2.970  -8.379  -0.722  0.00  0.00    +0.015 C 
ATOM      3  C   UNL     1      -2.817  -9.897  -0.835  0.00  0.00    +0.018 C 
ATOM      4  C   UNL     1      -4.174 -10.563  -0.581  0.00  0.00    +0.109 C 
ATOM      5  N   UNL     1      -4.691 -10.104   0.715  0.00  0.00    -0.176 NA
ATOM      6  C   UNL     1      -4.794  -8.659   0.963  0.00  0.00    +0.122 C 
ENDROOT
BRANCH   1   9
ATOM      7  N   UNL     1      -2.449  -5.767   1.015  0.00  0.00    -0.274 N 
ATOM      8  C   UNL     1      -1.124  -6.394   1.008  0.00  0.00    +0.138 C 
ATOM      9  C   UNL     1      -3.550  -6.517   0.812  0.00  0.00    +0.224 C 
ATOM     10  O   UNL     1      -4.637  -5.986   0.725  0.00  0.00    -0.275 OA
BRANCH   7  14
ATOM     11  C   UNL     1      -2.809  -1.664   1.666  0.00  0.00    +0.121 A 
ATOM     12  C   UNL     1      -1.574  -2.281   1.799  0.00  0.00    +0.047 A 
ATOM     13  C   UNL     1      -1.454  -3.640   1.584  0.00  0.00    +0.027 A 
ATOM     14  C   UNL     1      -2.570  -4.389   1.234  0.00  0.00    +0.036 A 
ATOM     15  C   UNL     1      -3.806  -3.770   1.101  0.00  0.00    +0.027 A 
ATOM     16  C   UNL     1      -3.926  -2.413   1.322  0.00  0.00    +0.047 A 
BRANCH  11  17
ATOM     17  O   UNL     1      -2.927  -0.326   1.878  0.00  0.00    -0.492 OA
BRANCH  17  19
ATOM     18  C   UNL     1      -2.064   1.863   2.426  0.00  0.00    +0.048 C 
ATOM     19  C   UNL     1      -1.737   0.382   2.229  0.00  0.00    +0.225 C 
ENDBRANCH  17  19
ENDBRANCH  11  17
ENDBRANCH   7  14
ENDBRANCH   1   9
BRANCH   5  20
ATOM     20  S   UNL     1      -5.151 -11.193   1.874  0.00  0.00    +0.061 S 
ATOM     21  O   UNL     1      -6.178 -10.570   2.633  0.00  0.00    -0.153 OA
ATOM     22  O   UNL     1      -5.341 -12.435   1.211  0.00  0.00    -0.153 OA
BRANCH  20  23
ATOM     23  C   UNL     1      -3.780 -11.407   2.961  0.00  0.00    +0.112 A 
ATOM     24  C   UNL     1      -3.860 -10.957   4.267  0.00  0.00    +0.076 A 
ATOM     25  C   UNL     1      -2.785 -11.125   5.121  0.00  0.00    +0.144 A 
ATOM     26  C   UNL     1      -1.624 -11.746   4.661  0.00  0.00    +0.076 A 
ATOM     27  C   UNL     1      -1.550 -12.195   3.353  0.00  0.00    +0.032 A 
ATOM     28  C   UNL     1      -2.632 -12.028   2.507  0.00  0.00    -0.022 A 
ATOM     29  C   UNL     1      -2.556 -12.520   1.085  0.00  0.00    +0.046 C 
ATOM     30  N   UNL     1      -0.541 -11.909   5.537  0.00  0.00    -0.280 N 
ATOM     31  C   UNL     1      -0.743 -11.756   6.864  0.00  0.00    +0.255 C 
ATOM     32  O   UNL     1       0.186 -11.861   7.637  0.00  0.00    -0.272 OA
ATOM     33  C   UNL     1      -2.127 -11.454   7.379  0.00  0.00    +0.325 C 
ATOM     34  O   UNL     1      -2.846 -10.690   6.408  0.00  0.00    -0.481 OA
ATOM     35  H   UNL     1       0.340 -12.127   5.194  0.00  0.00    +0.155 HD
ENDBRANCH  20  23
ENDBRANCH   5  20
TORSDOF 6
