REMARK  Name = ZINC33349735
REMARK  8 active torsions:
REMARK  status: ('A' for Active; 'I' for Inactive)
REMARK    1  A    between atoms: C_1  and  O_2
REMARK    2  A    between atoms: O_2  and  C_3
REMARK    3  A    between atoms: C_8  and  C_13
REMARK    4  A    between atoms: N_14  and  N_15
REMARK    5  A    between atoms: C_16  and  C_18
REMARK    6  A    between atoms: C_18  and  C_20
REMARK    7  A    between atoms: C_18  and  N_32
REMARK    8  A    between atoms: C_33  and  C_35
REMARK                            x       y       z     vdW  Elec       q    Type
REMARK                         _______ _______ _______ _____ _____    ______ ____
ROOT
ATOM      1  C   UNL     1      -4.707  -4.171  -0.394  0.00  0.00    +0.212 C 
ENDROOT
BRANCH   1   2
ATOM      2  C   UNL     1      -4.699  -3.297  -1.622  0.00  0.00    +0.099 A 
ATOM      3  C   UNL     1      -4.013  -2.005  -1.597  0.00  0.00    +0.013 A 
ATOM      4  C   UNL     1      -3.353  -1.544  -0.457  0.00  0.00    +0.010 A 
ATOM      5  C   UNL     1      -2.726  -0.330  -0.482  0.00  0.00    +0.001 A 
ATOM      6  C   UNL     1      -2.735   0.454  -1.629  0.00  0.00    +0.001 A 
ATOM      7  C   UNL     1      -3.378   0.025  -2.769  0.00  0.00    +0.014 A 
ATOM      8  C   UNL     1      -4.025  -1.211  -2.766  0.00  0.00    +0.050 A 
ATOM      9  C   UNL     1      -4.728  -1.724  -3.948  0.00  0.00    +0.272 A 
ATOM     10  O   UNL     1      -4.765  -1.076  -4.979  0.00  0.00    -0.266 OA
ATOM     11  N   UNL     1      -5.331  -2.929  -3.872  0.00  0.00    -0.242 N 
ATOM     12  H   UNL     1      -5.867  -3.332  -4.744  0.00  0.00    +0.192 HD
ATOM     13  N   UNL     1      -5.298  -3.694  -2.705  0.00  0.00    -0.173 NA
ENDBRANCH   1   2
BRANCH   1  15
ATOM     14  N   UNL     1      -2.386  -5.007  -0.582  0.00  0.00    -0.205 N 
ATOM     15  C   UNL     1      -3.705  -5.284  -0.564  0.00  0.00    +0.259 C 
ATOM     16  O   UNL     1      -4.086  -6.429  -0.685  0.00  0.00    -0.272 OA
ATOM     17  H   UNL     1      -1.654  -5.824  -0.662  0.00  0.00    +0.177 HD
BRANCH  14  19
ATOM     18  C   UNL     1      -0.691  -3.399  -0.659  0.00  0.00    +0.138 C 
ATOM     19  N   UNL     1      -1.948  -3.679  -0.498  0.00  0.00    -0.188 NA
BRANCH  18  25
ATOM     20  C   UNL     1       2.040  -7.615  -4.699  0.00  0.00    +0.121 A 
ATOM     21  C   UNL     1       0.651  -7.660  -4.856  0.00  0.00    +0.046 A 
ATOM     22  C   UNL     1      -0.162  -6.862  -4.114  0.00  0.00    +0.012 A 
ATOM     23  C   UNL     1       0.396  -5.976  -3.173  0.00  0.00    -0.017 A 
ATOM     24  C   UNL     1      -0.421  -5.141  -2.395  0.00  0.00    +0.018 A 
ATOM     25  C   UNL     1       0.161  -4.279  -1.479  0.00  0.00    -0.005 A 
ATOM     26  C   UNL     1       1.560  -4.238  -1.326  0.00  0.00    +0.010 A 
ATOM     27  C   UNL     1       2.364  -5.038  -2.070  0.00  0.00    +0.009 A 
ATOM     28  C   UNL     1       1.803  -5.924  -3.009  0.00  0.00    -0.014 A 
ATOM     29  C   UNL     1       2.618  -6.760  -3.789  0.00  0.00    +0.054 A 
BRANCH  20  31
ATOM     30  C   UNL     1       2.168  -9.290  -6.382  0.00  0.00    +0.277 C 
ATOM     31  O   UNL     1       2.827  -8.425  -5.455  0.00  0.00    -0.495 OA
ENDBRANCH  20  31
ENDBRANCH  18  25
ENDBRANCH  14  19
ENDBRANCH   1  15
BRANCH   1  32
ATOM     32  N   UNL     1      -6.043  -4.740  -0.208  0.00  0.00    -0.295 N 
ATOM     33  C   UNL     1      -6.990  -4.038   0.444  0.00  0.00    +0.245 C 
ATOM     34  O   UNL     1      -6.736  -2.931   0.878  0.00  0.00    -0.270 OA
ATOM     35  H   UNL     1      -6.274  -5.742  -0.601  0.00  0.00    +0.150 HD
BRANCH  33  36
ATOM     36  C   UNL     1      -8.339  -4.613   0.632  0.00  0.00    +0.037 A 
ATOM     37  C   UNL     1      -8.637  -5.881   0.130  0.00  0.00    +0.013 A 
ATOM     38  C   UNL     1      -9.896  -6.413   0.313  0.00  0.00    +0.001 A 
ATOM     39  C   UNL     1     -10.866  -5.689   0.984  0.00  0.00    +0.000 A 
ATOM     40  C   UNL     1     -10.579  -4.430   1.479  0.00  0.00    +0.001 A 
ATOM     41  C   UNL     1      -9.323  -3.888   1.307  0.00  0.00    +0.013 A 
ENDBRANCH  33  36
ENDBRANCH   1  32
TORSDOF 7
