REMARK  Name = ZINC01784268
REMARK  9 active torsions:
REMARK  status: ('A' for Active; 'I' for Inactive)
REMARK    1  A    between atoms: C_1  and  C_2
REMARK    2  A    between atoms: C_2  and  O_3
REMARK    3  A    between atoms: O_3  and  C_4
REMARK    4  A    between atoms: C_9  and  N_10
REMARK    5  A    between atoms: C_11  and  C_13
REMARK    6  A    between atoms: C_13  and  S_14
REMARK    7  A    between atoms: S_14  and  C_15
REMARK    8  A    between atoms: N_28  and  C_29
REMARK    9  A    between atoms: C_32  and  C_35
REMARK                            x       y       z     vdW  Elec       q    Type
REMARK                         _______ _______ _______ _____ _____    ______ ____
ROOT
ATOM      1  C   UNL     1       0.079  -4.597  -0.072  0.00  0.00    +0.178 A 
ATOM      2  N   UNL     1      -0.719  -3.552   0.102  0.00  0.00    -0.215 NA
ATOM      3  C   UNL     1      -0.189  -2.347  -0.067  0.00  0.00    +0.117 A 
ATOM      4  C   UNL     1       1.161  -2.120  -0.417  0.00  0.00    +0.076 A 
ATOM      5  C   UNL     1       1.561  -0.729  -0.559  0.00  0.00    -0.023 A 
ATOM      6  C   UNL     1       0.604   0.202  -0.341  0.00  0.00    -0.004 A 
ATOM      7  S   UNL     1      -0.860  -0.719   0.058  0.00  0.00    -0.073 S 
ATOM      8  C   UNL     1       0.752   1.690  -0.420  0.00  0.00    +0.043 C 
ATOM      9  C   UNL     1       2.249   2.030  -0.427  0.00  0.00    +0.005 C 
ATOM     10  C   UNL     1       2.953   1.129  -1.446  0.00  0.00    +0.005 C 
ATOM     11  C   UNL     1       2.980  -0.311  -0.933  0.00  0.00    +0.037 C 
ATOM     12  C   UNL     1       1.994  -3.272  -0.597  0.00  0.00    +0.268 A 
ATOM     13  O   UNL     1       3.172  -3.178  -0.900  0.00  0.00    -0.267 OA
ATOM     14  N   UNL     1       1.394  -4.471  -0.411  0.00  0.00    -0.255 N 
ENDROOT
BRANCH  14  15
ATOM     15  C   UNL     1       2.157  -5.634  -0.573  0.00  0.00    +0.052 A 
ATOM     16  C   UNL     1       2.415  -6.455   0.517  0.00  0.00    +0.026 A 
ATOM     17  C   UNL     1       3.165  -7.603   0.354  0.00  0.00    +0.005 A 
ATOM     18  C   UNL     1       3.667  -7.931  -0.892  0.00  0.00    -0.050 A 
ATOM     19  C   UNL     1       3.416  -7.113  -1.979  0.00  0.00    +0.005 A 
ATOM     20  C   UNL     1       2.663  -5.966  -1.823  0.00  0.00    +0.026 A 
ATOM     21  C   UNL     1       4.489  -9.182  -1.066  0.00  0.00    +0.044 C 
ENDBRANCH  14  15
BRANCH   1  22
ATOM     22  S   UNL     1      -0.587  -6.214   0.144  0.00  0.00    -0.078 S 
BRANCH  22  23
ATOM     23  C   UNL     1      -2.297  -5.796   0.568  0.00  0.00    +0.173 C 
BRANCH  23  25
ATOM     24  N   UNL     1      -4.385  -6.995   1.134  0.00  0.00    -0.282 N 
ATOM     25  C   UNL     1      -3.080  -7.062   0.803  0.00  0.00    +0.228 C 
ATOM     26  O   UNL     1      -2.536  -8.140   0.695  0.00  0.00    -0.275 OA
ATOM     27  H   UNL     1      -4.834  -6.136   1.166  0.00  0.00    +0.155 HD
BRANCH  24  33
ATOM     28  C   UNL     1      -6.218  -8.115   2.251  0.00  0.00    +0.142 A 
ATOM     29  C   UNL     1      -6.914  -9.277   2.541  0.00  0.00    +0.047 A 
ATOM     30  C   UNL     1      -6.492 -10.485   2.018  0.00  0.00    +0.004 A 
ATOM     31  C   UNL     1      -5.375 -10.538   1.205  0.00  0.00    +0.002 A 
ATOM     32  C   UNL     1      -4.678  -9.383   0.906  0.00  0.00    +0.027 A 
ATOM     33  C   UNL     1      -5.093  -8.167   1.431  0.00  0.00    +0.076 A 
BRANCH  28  34
ATOM     34  O   UNL     1      -6.633  -6.926   2.763  0.00  0.00    -0.490 OA
BRANCH  34  36
ATOM     35  C   UNL     1      -8.105  -5.528   4.075  0.00  0.00    +0.048 C 
ATOM     36  C   UNL     1      -7.794  -6.947   3.595  0.00  0.00    +0.226 C 
ENDBRANCH  34  36
ENDBRANCH  28  34
ENDBRANCH  24  33
ENDBRANCH  23  25
ENDBRANCH  22  23
ENDBRANCH   1  22
TORSDOF 7
