REMARK  Name = ZINC12523144
REMARK  6 active torsions:
REMARK  status: ('A' for Active; 'I' for Inactive)
REMARK    1  A    between atoms: C_1  and  C_2
REMARK    2  A    between atoms: C_2  and  C_4
REMARK    3  A    between atoms: C_2  and  N_14
REMARK    4  A    between atoms: C_7  and  S_10
REMARK    5  A    between atoms: S_10  and  N_13
REMARK    6  A    between atoms: C_15  and  C_17
REMARK                            x       y       z     vdW  Elec       q    Type
REMARK                         _______ _______ _______ _____ _____    ______ ____
ROOT
ATOM      1  N   UNL     1       0.711  -0.489   1.189  0.00  0.00    -0.305 N 
ATOM      2  C   UNL     1       2.054  -0.600   1.174  0.00  0.00    +0.246 C 
ATOM      3  O   UNL     1       2.678  -0.297   0.175  0.00  0.00    -0.270 OA
ATOM      4  H   UNL     1       0.213  -0.731   1.986  0.00  0.00    +0.150 HD
ENDROOT
BRANCH   2   5
ATOM      5  C   UNL     1       2.767  -1.088   2.369  0.00  0.00    +0.057 A 
ATOM      6  C   UNL     1       2.050  -1.444   3.519  0.00  0.00    +0.045 A 
ATOM      7  C   UNL     1       2.731  -1.887   4.621  0.00  0.00    +0.135 A 
ATOM      8  C   UNL     1       4.118  -1.978   4.621  0.00  0.00    +0.063 A 
ATOM      9  C   UNL     1       4.833  -1.643   3.477  0.00  0.00    +0.046 A 
ATOM     10  C   UNL     1       4.161  -1.204   2.355  0.00  0.00    +0.055 A 
ATOM     11 CL   UNL     1       5.050  -0.785   0.924  0.00  0.00    -0.083 Cl
ATOM     12  N   UNL     1       4.807  -2.367   5.787  0.00  0.00    -0.286 N 
ATOM     13  C   UNL     1       6.091  -1.707   5.936  0.00  0.00    +0.112 C 
ATOM     14  C   UNL     1       6.662  -1.435   7.256  0.00  0.00    +0.019 C 
ATOM     15  C   UNL     1       6.664  -2.390   8.392  0.00  0.00    +0.002 C 
ATOM     16  C   UNL     1       6.349  -3.839   8.163  0.00  0.00    +0.008 C 
ATOM     17  C   UNL     1       5.101  -4.149   7.463  0.00  0.00    +0.073 C 
ATOM     18  C   UNL     1       4.275  -3.227   6.678  0.00  0.00    +0.124 C 
ATOM     19  N   UNL     1       2.989  -3.301   6.916  0.00  0.00    -0.118 NA
ATOM     20  S   UNL     1       1.891  -2.380   6.093  0.00  0.00    +0.102 S 
ATOM     21  O   UNL     1       1.676  -1.204   6.861  0.00  0.00    -0.146 OA
ATOM     22  O   UNL     1       0.836  -3.245   5.698  0.00  0.00    -0.146 OA
ENDBRANCH   2   5
BRANCH   1  24
ATOM     23  C   UNL     1      -0.019   1.526   0.010  0.00  0.00    +0.033 C 
ATOM     24  C   UNL     1       0.002  -0.004   0.002  0.00  0.00    +0.100 C 
BRANCH  24  25
ATOM     25  C   UNL     1      -1.412  -0.526   0.013  0.00  0.00    -0.027 A 
ATOM     26  C   UNL     1      -2.123  -0.571   1.197  0.00  0.00    +0.007 A 
ATOM     27  C   UNL     1      -3.420  -1.049   1.207  0.00  0.00    +0.029 A 
ATOM     28  C   UNL     1      -4.006  -1.482   0.032  0.00  0.00    +0.105 A 
ATOM     29  C   UNL     1      -3.295  -1.436  -1.153  0.00  0.00    +0.029 A 
ATOM     30  C   UNL     1      -2.000  -0.954  -1.163  0.00  0.00    +0.007 A 
BRANCH  28  31
ATOM     31  S   UNL     1      -5.658  -2.093   0.045  0.00  0.00    +0.056 S 
ATOM     32  O   UNL     1      -5.785  -2.944  -1.086  0.00  0.00    -0.153 OA
ATOM     33  O   UNL     1      -5.915  -2.542   1.369  0.00  0.00    -0.153 OA
BRANCH  31  34
ATOM     34  N   UNL     1      -6.660  -0.801  -0.219  0.00  0.00    -0.204 NA
ATOM     35  H   UNL     1      -7.510  -0.930  -0.669  0.00  0.00    +0.144 HD
ATOM     36  H   UNL     1      -6.397   0.085   0.076  0.00  0.00    +0.144 HD
ENDBRANCH  31  34
ENDBRANCH  28  31
ENDBRANCH  24  25
ENDBRANCH   1  24
TORSDOF 5
