REMARK  Name = ZINC41769835
REMARK  3 active torsions:
REMARK  status: ('A' for Active; 'I' for Inactive)
REMARK    1  A    between atoms: C_5  and  N_8
REMARK    2  A    between atoms: N_8  and  C_9
REMARK    3  A    between atoms: C_9  and  C_14
REMARK                            x       y       z     vdW  Elec       q    Type
REMARK                         _______ _______ _______ _____ _____    ______ ____
ROOT
ATOM      1  N   UNL     1       1.159  -1.903   0.139  0.00  0.00    -0.327 N 
ATOM      2  H   UNL     1       1.698  -1.555   0.866  0.00  0.00    +0.147 HD
ENDROOT
BRANCH   1   7
ATOM      3  C   UNL     1       2.579  -1.877  -3.253  0.00  0.00    +0.032 A 
ATOM      4  C   UNL     1       1.965  -0.756  -3.785  0.00  0.00    +0.020 A 
ATOM      5  C   UNL     1       1.084  -0.017  -3.017  0.00  0.00    +0.032 A 
ATOM      6  C   UNL     1       0.814  -0.395  -1.715  0.00  0.00    +0.041 A 
ATOM      7  C   UNL     1       1.429  -1.519  -1.178  0.00  0.00    +0.056 A 
ATOM      8  C   UNL     1       2.314  -2.260  -1.952  0.00  0.00    +0.041 A 
ATOM      9 BR   UNL     1       3.153  -3.791  -1.227  0.00  0.00    -0.048 Br
ATOM     10 BR   UNL     1      -0.390   0.618  -0.666  0.00  0.00    -0.048 Br
ATOM     11 BR   UNL     1       2.332  -0.235  -5.566  0.00  0.00    -0.050 Br
ENDBRANCH   1   7
BRANCH   1  12
ATOM     12  C   UNL     1       0.062  -2.833   0.419  0.00  0.00    +0.134 C 
ATOM     13  C   UNL     1      -0.354  -2.747   1.909  0.00  0.00    +0.037 C 
ATOM     14  C   UNL     1       0.713  -3.623   2.612  0.00  0.00    +0.003 C 
ATOM     15  C   UNL     1       0.945  -4.794   1.636  0.00  0.00    +0.003 C 
ATOM     16  C   UNL     1       0.531  -4.292   0.241  0.00  0.00    +0.037 C 
BRANCH  12  17
ATOM     17  C   UNL     1      -1.115  -2.544  -0.477  0.00  0.00    +0.379 C 
ATOM     18  O   UNL     1      -0.969  -1.855  -1.472  0.00  0.00    -0.244 OA
ATOM     19  O   UNL     1      -2.213  -3.000  -0.207  0.00  0.00    -0.244 OA
ENDBRANCH  12  17
ENDBRANCH   1  12
TORSDOF 3
