REMARK  Name = ZINC10078638
REMARK  11 active torsions:
REMARK  status: ('A' for Active; 'I' for Inactive)
REMARK    1  A    between atoms: C_1  and  C_2
REMARK    2  A    between atoms: C_2  and  N_3
REMARK    3  A    between atoms: N_3  and  C_4
REMARK    4  A    between atoms: N_3  and  C_6
REMARK    5  A    between atoms: C_4  and  C_5
REMARK    6  A    between atoms: C_9  and  C_12
REMARK    7  A    between atoms: N_17  and  S_18
REMARK    8  A    between atoms: S_18  and  C_21
REMARK    9  A    between atoms: C_24  and  C_27
REMARK   10  A    between atoms: C_28  and  C_30
REMARK   11  A    between atoms: C_33  and  N_36
REMARK                            x       y       z     vdW  Elec       q    Type
REMARK                         _______ _______ _______ _____ _____    ______ ____
ROOT
ATOM      1  C   UNL     1       0.291  -5.900  -1.350  0.00  0.00    +0.199 C 
ATOM      2  N   UNL     1       0.344  -6.532  -0.024  0.00  0.00    -0.275 N 
ATOM      3  C   UNL     1      -1.056  -6.748   0.388  0.00  0.00    +0.127 C 
ATOM      4  C   UNL     1      -1.819  -6.907  -0.943  0.00  0.00    +0.131 C 
ATOM      5  N   UNL     1      -1.042  -6.130  -1.921  0.00  0.00    -0.150 NA
ATOM      6  C   UNL     1       1.451  -6.850   0.676  0.00  0.00    +0.248 C 
ATOM      7  O   UNL     1       2.549  -6.571   0.236  0.00  0.00    -0.270 OA
ENDROOT
BRANCH   1  11
ATOM      8  C   UNL     1       0.990  -1.703  -0.971  0.00  0.00    +0.013 A 
ATOM      9  C   UNL     1      -0.139  -2.270  -0.408  0.00  0.00    +0.022 A 
ATOM     10  C   UNL     1      -0.365  -3.628  -0.531  0.00  0.00    +0.008 A 
ATOM     11  C   UNL     1       0.537  -4.419  -1.217  0.00  0.00    -0.011 A 
ATOM     12  C   UNL     1       1.665  -3.853  -1.780  0.00  0.00    +0.008 A 
ATOM     13  C   UNL     1       1.889  -2.494  -1.661  0.00  0.00    +0.022 A 
BRANCH   8  14
ATOM     14  N   UNL     1       1.218  -0.330  -0.847  0.00  0.00    -0.394 NA
ATOM     15  H   UNL     1       2.078  -0.088  -1.317  0.00  0.00    +0.126 HD
BRANCH  14  17
ATOM     16  C   UNL     1       0.412   1.908  -1.430  0.00  0.00    +0.022 C 
ATOM     17  C   UNL     1       0.104   0.409  -1.454  0.00  0.00    +0.081 C 
ENDBRANCH  14  17
BRANCH  14  18
ATOM     18  C   UNL     1       1.322   0.023   0.576  0.00  0.00    +0.081 C 
ATOM     19  C   UNL     1       2.557  -0.649   1.179  0.00  0.00    +0.022 C 
ENDBRANCH  14  18
ENDBRANCH   8  14
ENDBRANCH   1  11
BRANCH   6  20
ATOM     20  C   UNL     1       1.329  -7.538   1.979  0.00  0.00    +0.037 A 
ATOM     21  C   UNL     1       2.375  -8.331   2.453  0.00  0.00    +0.015 A 
ATOM     22  C   UNL     1       2.255  -8.970   3.670  0.00  0.00    +0.033 A 
ATOM     23  C   UNL     1       1.101  -8.826   4.420  0.00  0.00    +0.126 A 
ATOM     24  C   UNL     1       0.061  -8.041   3.955  0.00  0.00    +0.033 A 
ATOM     25  C   UNL     1       0.170  -7.392   2.743  0.00  0.00    +0.015 A 
BRANCH  23  26
ATOM     26  N   UNL     1       0.980  -9.515   5.724  0.00  0.00    +0.056 N 
ATOM     27  O   UNL     1       1.887 -10.201   6.132  0.00  0.00    -0.126 OA
ATOM     28  O   UNL     1      -0.027  -9.390   6.382  0.00  0.00    -0.126 OA
ENDBRANCH  23  26
ENDBRANCH   6  20
BRANCH   5  29
ATOM     29  S   UNL     1      -1.576  -5.611  -3.400  0.00  0.00    +0.063 S 
ATOM     30  O   UNL     1      -2.978  -5.415  -3.279  0.00  0.00    -0.153 OA
ATOM     31  O   UNL     1      -0.694  -4.575  -3.809  0.00  0.00    -0.153 OA
BRANCH  29  32
ATOM     32  C   UNL     1      -1.349  -6.941  -4.532  0.00  0.00    +0.106 A 
ATOM     33  C   UNL     1      -0.161  -7.063  -5.227  0.00  0.00    +0.029 A 
ATOM     34  C   UNL     1       0.017  -8.107  -6.115  0.00  0.00    +0.005 A 
ATOM     35  C   UNL     1      -0.994  -9.029  -6.309  0.00  0.00    -0.050 A 
ATOM     36  C   UNL     1      -2.182  -8.909  -5.614  0.00  0.00    +0.005 A 
ATOM     37  C   UNL     1      -2.358  -7.867  -4.722  0.00  0.00    +0.029 A 
ATOM     38  C   UNL     1      -0.800 -10.167  -7.279  0.00  0.00    +0.044 C 
ENDBRANCH  29  32
ENDBRANCH   5  29
TORSDOF 8
