REMARK  Name = ZINC15959036
REMARK  8 active torsions:
REMARK  status: ('A' for Active; 'I' for Inactive)
REMARK    1  A    between atoms: C_1  and  C_2
REMARK    2  A    between atoms: C_3  and  C_39
REMARK    3  A    between atoms: C_11  and  O_13
REMARK    4  A    between atoms: O_13  and  C_14
REMARK    5  A    between atoms: C_14  and  C_16
REMARK    6  A    between atoms: C_14  and  C_17
REMARK    7  A    between atoms: C_22  and  O_38
REMARK    8  A    between atoms: C_29  and  C_31
REMARK                            x       y       z     vdW  Elec       q    Type
REMARK                         _______ _______ _______ _____ _____    ______ ____
ROOT
ATOM      1  C   UNL     1       1.261   3.477  -0.524  0.00  0.00    +0.257 C 
ATOM      2  O   UNL     1       0.401   3.849  -1.294  0.00  0.00    -0.272 OA
ATOM      3  N   UNL     1       1.073   2.363   0.210  0.00  0.00    -0.291 N 
ATOM      4  C   UNL     1       2.060   1.954   1.219  0.00  0.00    +0.111 C 
ATOM      5  C   UNL     1       2.474   0.505   0.943  0.00  0.00    +0.054 C 
ATOM      6  C   UNL     1       1.226  -0.380   0.895  0.00  0.00    +0.072 C 
ATOM      7  C   UNL     1       1.645  -1.830   0.639  0.00  0.00    +0.035 C 
ATOM      8  C   UNL     1       2.402  -1.912  -0.688  0.00  0.00    +0.003 C 
ATOM      9  C   UNL     1       1.495  -1.436  -1.825  0.00  0.00    +0.001 C 
ATOM     10  C   UNL     1       1.068   0.010  -1.567  0.00  0.00    +0.008 C 
ATOM     11  C   UNL     1       0.311   0.088  -0.240  0.00  0.00    +0.046 C 
ATOM     12  C   UNL     1      -0.124   1.533   0.018  0.00  0.00    +0.112 C 
ENDROOT
BRANCH  12  13
ATOM     13  C   UNL     1      -0.908   2.043  -1.164  0.00  0.00    -0.027 A 
ATOM     14  C   UNL     1      -0.284   2.209  -2.386  0.00  0.00    +0.007 A 
ATOM     15  C   UNL     1      -1.004   2.672  -3.472  0.00  0.00    +0.020 A 
ATOM     16  C   UNL     1      -2.346   2.978  -3.333  0.00  0.00    +0.041 A 
ATOM     17  C   UNL     1      -2.968   2.817  -2.107  0.00  0.00    +0.020 A 
ATOM     18  C   UNL     1      -2.249   2.349  -1.024  0.00  0.00    +0.007 A 
ATOM     19 CL   UNL     1      -3.248   3.566  -4.694  0.00  0.00    -0.084 Cl
ENDBRANCH  12  13
BRANCH   1  20
ATOM     20  C   UNL     1       2.541   4.261  -0.388  0.00  0.00    +0.256 C 
ATOM     21  C   UNL     1       2.634   4.845   1.023  0.00  0.00    +0.062 C 
BRANCH  20  22
ATOM     22  O   UNL     1       2.553   5.323  -1.344  0.00  0.00    -0.480 OA
BRANCH  22  33
ATOM     23  C   UNL     1       7.621   7.762  -4.609  0.00  0.00    +0.045 C 
ATOM     24  C   UNL     1       7.508   6.755  -3.494  0.00  0.00    -0.030 A 
ATOM     25  C   UNL     1       8.615   6.161  -2.975  0.00  0.00    +0.037 A 
ATOM     26  C   UNL     1       8.483   5.222  -1.932  0.00  0.00    +0.340 A 
ATOM     27  O   UNL     1       9.483   4.697  -1.476  0.00  0.00    -0.245 OA
ATOM     28  O   UNL     1       7.284   4.890  -1.429  0.00  0.00    -0.422 OA
ATOM     29  C   UNL     1       6.145   5.442  -1.900  0.00  0.00    +0.143 A 
ATOM     30  C   UNL     1       6.203   6.388  -2.940  0.00  0.00    +0.021 A 
ATOM     31  C   UNL     1       5.025   6.964  -3.430  0.00  0.00    +0.015 A 
ATOM     32  C   UNL     1       3.822   6.605  -2.896  0.00  0.00    +0.046 A 
ATOM     33  C   UNL     1       3.758   5.669  -1.866  0.00  0.00    +0.125 A 
ATOM     34  C   UNL     1       4.914   5.093  -1.365  0.00  0.00    +0.092 A 
ATOM     35  C   UNL     1       9.979   6.506  -3.513  0.00  0.00    +0.051 C 
ENDBRANCH  22  33
ENDBRANCH  20  22
ENDBRANCH   1  20
BRANCH   6  36
ATOM     36  O   UNL     1       0.526  -0.297   2.138  0.00  0.00    -0.388 OA
ATOM     37  H   UNL     1       1.048  -0.579   2.902  0.00  0.00    +0.210 HD
ENDBRANCH   6  36
TORSDOF 5
