REMARK  Name = ZINC08912084
REMARK  9 active torsions:
REMARK  status: ('A' for Active; 'I' for Inactive)
REMARK    1  A    between atoms: C_1  and  C_2
REMARK    2  A    between atoms: C_9  and  O_19
REMARK    3  A    between atoms: C_21  and  C_22
REMARK    4  A    between atoms: N_24  and  C_25
REMARK    5  A    between atoms: C_25  and  C_26
REMARK    6  A    between atoms: C_26  and  C_27
REMARK    7  A    between atoms: C_27  and  N_74
REMARK    8  A    between atoms: C_29  and  C_36
REMARK    9  A    between atoms: C_32  and  C_35
REMARK                            x       y       z     vdW  Elec       q    Type
REMARK                         _______ _______ _______ _____ _____    ______ ____
ROOT
ATOM      1  C   UNL     1       3.884   2.889   0.061  0.00  0.00    +0.048 C 
ATOM      2  C   UNL     1       3.639   1.404   0.121  0.00  0.00    +0.008 A 
ATOM      3  C   UNL     1       4.639   0.354   0.311  0.00  0.00    +0.033 A 
ATOM      4  C   UNL     1       3.929  -0.859   0.293  0.00  0.00    +0.137 A 
ATOM      5  C   UNL     1       4.621  -2.053   0.451  0.00  0.00    +0.050 A 
ATOM      6  C   UNL     1       5.986  -2.038   0.627  0.00  0.00    +0.049 A 
ATOM      7  C   UNL     1       6.696  -0.835   0.647  0.00  0.00    +0.128 A 
ATOM      8  C   UNL     1       6.028   0.359   0.486  0.00  0.00    +0.034 A 
ATOM      9  C   UNL     1       6.761   1.677   0.487  0.00  0.00    +0.152 C 
ATOM     10  C   UNL     1       8.141   1.501   1.125  0.00  0.00    +0.084 C 
ATOM     11  C   UNL     1       8.808   0.272   0.497  0.00  0.00    +0.113 C 
ATOM     12  O   UNL     1       8.041  -0.883   0.833  0.00  0.00    -0.485 OA
ATOM     13  C   UNL     1       8.858   0.438  -1.022  0.00  0.00    +0.048 C 
ATOM     14  C   UNL     1       9.524  -0.790  -1.648  0.00  0.00    +0.004 C 
ATOM     15  C   UNL     1      10.945  -0.933  -1.101  0.00  0.00    +0.000 C 
ATOM     16  C   UNL     1      10.893  -1.101   0.419  0.00  0.00    +0.004 C 
ATOM     17  C   UNL     1      10.228   0.127   1.045  0.00  0.00    +0.048 C 
ATOM     18  O   UNL     1       2.624  -0.565   0.118  0.00  0.00    -0.450 OA
ATOM     19  C   UNL     1       2.443   0.768   0.008  0.00  0.00    +0.193 A 
ENDROOT
BRANCH  19  20
ATOM     20  C   UNL     1       1.148   1.431  -0.196  0.00  0.00    +0.280 C 
ATOM     21  O   UNL     1       1.092   2.644  -0.277  0.00  0.00    -0.267 OA
ATOM     22  N   UNL     1       0.022   0.697  -0.294  0.00  0.00    -0.309 N 
ATOM     23  H   UNL     1       0.067  -0.270  -0.230  0.00  0.00    +0.149 HD
BRANCH  22  24
ATOM     24  C   UNL     1      -1.268   1.358  -0.504  0.00  0.00    +0.103 C 
BRANCH  24  25
ATOM     25  C   UNL     1      -2.374   0.304  -0.585  0.00  0.00    +0.000 C 
BRANCH  25  26
ATOM     26  C   UNL     1      -3.721   0.994  -0.804  0.00  0.00    -0.077 C 
BRANCH  26  34
ATOM     27  C   UNL     1      -4.619  -0.862  -2.073  0.00  0.00    -0.076 C 
ATOM     28  C   UNL     1      -5.652  -1.991  -2.046  0.00  0.00    -0.031 C 
ATOM     29  C   UNL     1      -7.059  -1.389  -2.014  0.00  0.00    +0.003 C 
ATOM     30  C   UNL     1      -7.188  -0.477  -0.790  0.00  0.00    -0.031 C 
ATOM     31  C   UNL     1      -6.111   0.609  -0.854  0.00  0.00    -0.076 C 
ATOM     32  C   UNL     1      -8.571   0.176  -0.783  0.00  0.00    +0.005 C 
ATOM     33  C   UNL     1      -5.435  -2.850  -0.798  0.00  0.00    +0.005 C 
ATOM     34  N   UNL     1      -4.780  -0.035  -0.858  0.00  0.00    +0.380 N 
ATOM     35  H   UNL     1      -4.700  -0.639  -0.031  0.00  0.00    -0.082 HD
ENDBRANCH  26  34
ENDBRANCH  25  26
ENDBRANCH  24  25
ENDBRANCH  22  24
ENDBRANCH  19  20
BRANCH   9  36
ATOM     36  O   UNL     1       6.010   2.637   1.235  0.00  0.00    -0.387 OA
ATOM     37  H   UNL     1       6.411   3.516   1.260  0.00  0.00    +0.210 HD
ENDBRANCH   9  36
TORSDOF 6
