REMARK  Name = ZINC39583700
REMARK  5 active torsions:
REMARK  status: ('A' for Active; 'I' for Inactive)
REMARK    1  A    between atoms: C_5  and  C_7
REMARK    2  A    between atoms: C_11  and  S_21
REMARK    3  A    between atoms: N_13  and  C_14
REMARK    4  A    between atoms: S_21  and  C_22
REMARK    5  A    between atoms: C_22  and  C_23
REMARK                            x       y       z     vdW  Elec       q    Type
REMARK                         _______ _______ _______ _____ _____    ______ ____
ROOT
ATOM      1  C   UNL     1       1.303  -2.060  -0.143  0.00  0.00    +0.220 C 
ATOM      2  N   UNL     1       2.254  -2.631  -1.098  0.00  0.00    -0.286 N 
ATOM      3  N   UNL     1       1.727  -3.475  -1.819  0.00  0.00    -0.180 NA
ATOM      4  C   UNL     1       0.308  -3.652  -1.503  0.00  0.00    +0.273 C 
ATOM      5  N   UNL     1       0.012  -2.724  -0.395  0.00  0.00    -0.273 N 
ATOM      6  H   UNL     1       3.188  -2.374  -1.155  0.00  0.00    +0.185 HD
ENDROOT
BRANCH   1  11
ATOM      7  C   UNL     1      -0.138   1.317  -1.023  0.00  0.00    +0.000 A 
ATOM      8  C   UNL     1       0.937   2.150  -0.775  0.00  0.00    +0.001 A 
ATOM      9  C   UNL     1       2.131   1.621  -0.322  0.00  0.00    +0.020 A 
ATOM     10  C   UNL     1       2.250   0.258  -0.117  0.00  0.00    +0.048 A 
ATOM     11  C   UNL     1       1.174  -0.575  -0.365  0.00  0.00    +0.012 A 
ATOM     12  C   UNL     1      -0.020  -0.045  -0.818  0.00  0.00    +0.009 A 
ATOM     13 CL   UNL     1       3.750  -0.408   0.451  0.00  0.00    -0.083 Cl
ENDBRANCH   1  11
BRANCH   5  14
ATOM     14  C   UNL     1      -1.206  -2.521   0.260  0.00  0.00    +0.034 A 
ATOM     15  C   UNL     1      -1.272  -1.675   1.360  0.00  0.00    +0.024 A 
ATOM     16  C   UNL     1      -2.477  -1.476   2.005  0.00  0.00    +0.022 A 
ATOM     17  C   UNL     1      -3.618  -2.118   1.556  0.00  0.00    +0.041 A 
ATOM     18  C   UNL     1      -3.555  -2.961   0.460  0.00  0.00    +0.022 A 
ATOM     19  C   UNL     1      -2.354  -3.159  -0.192  0.00  0.00    +0.024 A 
ATOM     20 CL   UNL     1      -5.130  -1.867   2.370  0.00  0.00    -0.084 Cl
ENDBRANCH   5  14
BRANCH   4  21
ATOM     21  S   UNL     1      -0.708  -3.244  -2.949  0.00  0.00    -0.106 S 
BRANCH  21  22
ATOM     22  C   UNL     1      -0.129  -1.597  -3.442  0.00  0.00    +0.147 C 
BRANCH  22  23
ATOM     23  C   UNL     1      -0.793  -1.198  -4.735  0.00  0.00    +0.118 A 
ATOM     24  N   UNL     1      -1.920  -0.555  -4.825  0.00  0.00    -0.232 NA
ATOM     25  C   UNL     1      -2.229  -0.357  -6.133  0.00  0.00    +0.089 A 
ATOM     26  C   UNL     1      -3.297   0.262  -6.788  0.00  0.00    +0.030 A 
ATOM     27  C   UNL     1      -3.326   0.302  -8.153  0.00  0.00    +0.002 A 
ATOM     28  C   UNL     1      -2.305  -0.267  -8.901  0.00  0.00    +0.002 A 
ATOM     29  C   UNL     1      -1.242  -0.883  -8.275  0.00  0.00    +0.028 A 
ATOM     30  C   UNL     1      -1.194  -0.933  -6.889  0.00  0.00    +0.066 A 
ATOM     31  N   UNL     1      -0.298  -1.452  -5.976  0.00  0.00    -0.341 N 
ATOM     32  H   UNL     1       0.529  -1.914  -6.182  0.00  0.00    +0.167 HD
ENDBRANCH  22  23
ENDBRANCH  21  22
ENDBRANCH   4  21
TORSDOF 5
