REMARK  Name = ZINC01511231
REMARK  13 active torsions:
REMARK  status: ('A' for Active; 'I' for Inactive)
REMARK    1  A    between atoms: C_1  and  C_2
REMARK    2  A    between atoms: C_2  and  C_3
REMARK    3  A    between atoms: C_2  and  C_4
REMARK    4  A    between atoms: C_2  and  C_5
REMARK    5  A    between atoms: C_5  and  C_7
REMARK    6  A    between atoms: C_5  and  N_22
REMARK    7  A    between atoms: C_7  and  N_9
REMARK    8  A    between atoms: C_7  and  O_14
REMARK    9  A    between atoms: O_14  and  C_15
REMARK   10  A    between atoms: C_23  and  C_27
REMARK   11  A    between atoms: C_27  and  N_66
REMARK   12  A    between atoms: C_33  and  N_66
REMARK   13  A    between atoms: C_34  and  N_66
REMARK                            x       y       z     vdW  Elec       q    Type
REMARK                         _______ _______ _______ _____ _____    ______ ____
ROOT
ATOM      1  C   UNL     1       1.830   3.175   0.066  0.00  0.00    +0.179 C 
ENDROOT
BRANCH   1   2
ATOM      2  N   UNL     1       0.822   2.292   0.659  0.00  0.00    -0.221 N 
ATOM      3  C   UNL     1       1.000   1.011   1.031  0.00  0.00    +0.142 A 
ATOM      4  N   UNL     1      -0.146   0.595   1.510  0.00  0.00    -0.115 NA
ATOM      5  N   UNL     1      -0.985   1.570   1.437  0.00  0.00    -0.023 NA
ATOM      6  N   UNL     1      -0.403   2.597   0.923  0.00  0.00    -0.043 NA
BRANCH   3   7
ATOM      7  C   UNL     1       2.272   0.210   0.918  0.00  0.00    -0.003 C 
ATOM      8  C   UNL     1       3.393   0.924   1.676  0.00  0.00    -0.004 C 
ATOM      9  C   UNL     1       4.684   0.111   1.561  0.00  0.00    -0.001 C 
ATOM     10  C   UNL     1       5.072  -0.026   0.087  0.00  0.00    -0.000 C 
ATOM     11  C   UNL     1       3.950  -0.740  -0.670  0.00  0.00    -0.001 C 
ATOM     12  C   UNL     1       2.659   0.073  -0.556  0.00  0.00    -0.004 C 
BRANCH   7  15
ATOM     13  C   UNL     1       1.731  -1.034   2.924  0.00  0.00    -0.095 C 
ATOM     14  C   UNL     1       1.026  -1.860   0.760  0.00  0.00    -0.095 C 
ATOM     15  N   UNL     1       2.088  -1.139   1.493  0.00  0.00    +0.385 N 
ATOM     16  H   UNL     1       2.967  -1.661   1.407  0.00  0.00    -0.081 HD
ENDBRANCH   7  15
ENDBRANCH   3   7
ENDBRANCH   1   2
BRANCH   1  18
ATOM     17  C   UNL     1       2.511   3.740   2.402  0.00  0.00    +0.013 C 
ATOM     18  C   UNL     1       2.141   4.317   1.035  0.00  0.00    -0.010 C 
ATOM     19  C   UNL     1       3.313   5.139   0.494  0.00  0.00    +0.013 C 
ATOM     20  C   UNL     1       0.911   5.215   1.176  0.00  0.00    +0.013 C 
ENDBRANCH   1  18
BRANCH   1  21
ATOM     21  C   UNL     1       1.295   3.750  -1.247  0.00  0.00    +0.319 C 
BRANCH  21  22
ATOM     22  N   UNL     1       0.873   2.655  -2.124  0.00  0.00    -0.211 N 
ATOM     23  C   UNL     1      -0.364   2.436  -2.600  0.00  0.00    +0.223 A 
ATOM     24  N   UNL     1      -0.328   1.362  -3.347  0.00  0.00    -0.223 NA
ATOM     25  C   UNL     1       0.909   0.865  -3.364  0.00  0.00    +0.245 A 
ATOM     26  N   UNL     1       1.680   1.623  -2.629  0.00  0.00    -0.155 NA
ENDBRANCH  21  22
BRANCH  21  27
ATOM     27  O   UNL     1       2.323   4.506  -1.889  0.00  0.00    -0.465 OA
BRANCH  27  28
ATOM     28  C   UNL     1       1.927   5.453  -2.781  0.00  0.00    +0.124 A 
ATOM     29  C   UNL     1       2.871   6.247  -3.416  0.00  0.00    +0.047 A 
ATOM     30  C   UNL     1       2.467   7.205  -4.325  0.00  0.00    +0.023 A 
ATOM     31  C   UNL     1       1.121   7.381  -4.595  0.00  0.00    +0.041 A 
ATOM     32  C   UNL     1       0.178   6.593  -3.958  0.00  0.00    +0.023 A 
ATOM     33  C   UNL     1       0.578   5.630  -3.052  0.00  0.00    +0.047 A 
ATOM     34 CL   UNL     1       0.615   8.590  -5.733  0.00  0.00    -0.084 Cl
ENDBRANCH  27  28
ENDBRANCH  21  27
ENDBRANCH   1  21
TORSDOF 8
