REMARK  Name = ZINC63374731
REMARK  6 active torsions:
REMARK  status: ('A' for Active; 'I' for Inactive)
REMARK    1  A    between atoms: C_1  and  C_2
REMARK    2  A    between atoms: C_5  and  C_8
REMARK    3  A    between atoms: C_12  and  C_14
REMARK    4  A    between atoms: N_16  and  C_17
REMARK    5  A    between atoms: C_17  and  C_18
REMARK    6  A    between atoms: C_18  and  C_19
REMARK                            x       y       z     vdW  Elec       q    Type
REMARK                         _______ _______ _______ _____ _____    ______ ____
ROOT
ATOM      1  C   UNL     1       0.061  -4.254  -0.021  0.00  0.00    +0.097 A 
ATOM      2  C   UNL     1       0.775  -4.952   0.981  0.00  0.00    +0.094 A 
ATOM      3  C   UNL     1       0.733  -6.358   0.962  0.00  0.00    -0.005 A 
ATOM      4  C   UNL     1       0.051  -7.000  -0.040  0.00  0.00    +0.039 A 
ATOM      5  C   UNL     1      -0.611  -6.239  -1.010  0.00  0.00    +0.126 A 
ATOM      6  N   UNL     1      -0.593  -4.912  -0.961  0.00  0.00    -0.240 NA
ATOM      7  C   UNL     1       1.493  -6.783   2.181  0.00  0.00    +0.092 C 
ATOM      8  C   UNL     1       2.611  -7.745   1.909  0.00  0.00    -0.013 C 
ATOM      9  C   UNL     1       3.753  -7.631   2.596  0.00  0.00    -0.003 C 
ATOM     10  C   UNL     1       3.985  -6.571   3.572  0.00  0.00    +0.002 C 
ATOM     11  C   UNL     1       3.177  -5.470   3.595  0.00  0.00    +0.024 C 
ATOM     12  C   UNL     1       2.096  -5.481   2.681  0.00  0.00    +0.053 C 
ATOM     13  N   UNL     1       1.556  -4.518   2.002  0.00  0.00    -0.249 NA
ENDROOT
BRANCH   1  18
ATOM     14  C   UNL     1      -0.018   1.503   0.010  0.00  0.00    +0.044 C 
ATOM     15  C   UNL     1       0.002  -0.004   0.002  0.00  0.00    -0.050 A 
ATOM     16  C   UNL     1       0.006  -0.686  -1.201  0.00  0.00    +0.004 A 
ATOM     17  C   UNL     1       0.025  -2.066  -1.216  0.00  0.00    +0.010 A 
ATOM     18  C   UNL     1       0.041  -2.773  -0.013  0.00  0.00    +0.002 A 
ATOM     19  C   UNL     1       0.037  -2.079   1.197  0.00  0.00    +0.010 A 
ATOM     20  C   UNL     1       0.023  -0.699   1.198  0.00  0.00    +0.004 A 
ENDBRANCH   1  18
BRANCH   5  21
ATOM     21  C   UNL     1      -1.342  -6.920  -2.100  0.00  0.00    +0.262 C 
ATOM     22  O   UNL     1      -1.367  -8.135  -2.149  0.00  0.00    -0.269 OA
ATOM     23  N   UNL     1      -1.983  -6.195  -3.038  0.00  0.00    -0.310 N 
ATOM     24  H   UNL     1      -1.963  -5.226  -2.999  0.00  0.00    +0.149 HD
BRANCH  23  25
ATOM     25  C   UNL     1      -2.708  -6.870  -4.117  0.00  0.00    +0.109 C 
BRANCH  25  26
ATOM     26  C   UNL     1      -3.339  -5.825  -5.039  0.00  0.00    +0.052 C 
BRANCH  26  27
ATOM     27  C   UNL     1      -4.085  -6.519  -6.149  0.00  0.00    -0.040 C 
ATOM     28  C   UNL     1      -5.405  -6.812  -6.183  0.00  0.00    -0.001 A 
ATOM     29  C   UNL     1      -6.499  -6.582  -5.232  0.00  0.00    +0.010 A 
ATOM     30  C   UNL     1      -7.745  -6.999  -5.553  0.00  0.00    +0.001 A 
ATOM     31  C   UNL     1      -8.017  -7.644  -6.767  0.00  0.00    +0.002 A 
ATOM     32  C   UNL     1      -7.064  -7.891  -7.691  0.00  0.00    +0.026 A 
ATOM     33  C   UNL     1      -5.718  -7.495  -7.459  0.00  0.00    +0.043 A 
ATOM     34  N   UNL     1      -4.634  -7.620  -8.185  0.00  0.00    -0.380 N 
ATOM     35  C   UNL     1      -3.510  -7.023  -7.454  0.00  0.00    +0.144 C 
ATOM     36  H   UNL     1      -4.584  -8.033  -9.061  0.00  0.00    +0.160 HD
ENDBRANCH  26  27
ENDBRANCH  25  26
ENDBRANCH  23  25
ENDBRANCH   5  21
TORSDOF 5
