REMARK  Name = ZINC20311202
REMARK  9 active torsions:
REMARK  status: ('A' for Active; 'I' for Inactive)
REMARK    1  A    between atoms: C_1  and  C_2
REMARK    2  A    between atoms: C_2  and  C_4
REMARK    3  A    between atoms: C_2  and  N_20
REMARK    4  A    between atoms: N_6  and  N_7
REMARK    5  A    between atoms: C_8  and  C_9
REMARK    6  A    between atoms: C_11  and  O_18
REMARK    7  A    between atoms: C_12  and  O_16
REMARK    8  A    between atoms: O_16  and  C_17
REMARK    9  A    between atoms: O_18  and  C_19
REMARK                            x       y       z     vdW  Elec       q    Type
REMARK                         _______ _______ _______ _____ _____    ______ ____
ROOT
ATOM      1  C   UNL     1      -2.143   1.058   1.278  0.00  0.00    +0.252 C 
ATOM      2  O   UNL     1      -3.075   1.833   1.291  0.00  0.00    -0.272 OA
ATOM      3  N   UNL     1      -2.371  -0.271   1.273  0.00  0.00    -0.205 N 
ATOM      4  H   UNL     1      -1.525  -0.974   1.261  0.00  0.00    +0.177 HD
ENDROOT
BRANCH   1   6
ATOM      5  C   UNL     1      -0.013   1.086   0.008  0.00  0.00    +0.038 C 
ATOM      6  C   UNL     1      -0.729   1.579   1.267  0.00  0.00    +0.158 C 
BRANCH   6   7
ATOM      7  N   UNL     1      -0.749   3.044   1.275  0.00  0.00    -0.295 NA
ATOM      8  C   UNL     1      -0.161   3.918   2.307  0.00  0.00    +0.126 C 
ATOM      9  C   UNL     1       1.323   3.562   2.379  0.00  0.00    -0.003 C 
ATOM     10  C   UNL     1       2.240   4.446   2.020  0.00  0.00    -0.003 C 
ATOM     11  C   UNL     1       1.914   5.785   1.532  0.00  0.00    -0.002 C 
ATOM     12  C   UNL     1       0.674   6.227   1.402  0.00  0.00    +0.003 C 
ATOM     13  C   UNL     1      -0.490   5.333   1.765  0.00  0.00    +0.176 C 
ATOM     14  N   UNL     1      -1.225   5.069   0.521  0.00  0.00    -0.163 NA
ATOM     15  N   UNL     1      -1.332   3.866   0.311  0.00  0.00    -0.101 NA
ATOM     16  H   UNL     1      -0.858   1.984   1.002  0.00  0.00    +0.149 HD
ENDBRANCH   6   7
ENDBRANCH   1   6
BRANCH   3  17
ATOM     17  N   UNL     1      -3.685  -0.756   1.282  0.00  0.00    -0.188 NA
ATOM     18  C   UNL     1      -3.905  -2.035   1.278  0.00  0.00    +0.138 C 
BRANCH  18  19
ATOM     19  C   UNL     1      -5.288  -2.545   1.288  0.00  0.00    -0.001 A 
ATOM     20  C   UNL     1      -5.527  -3.922   1.277  0.00  0.00    +0.059 A 
ATOM     21  C   UNL     1      -6.825  -4.395   1.292  0.00  0.00    +0.163 A 
ATOM     22  C   UNL     1      -7.893  -3.501   1.306  0.00  0.00    +0.175 A 
ATOM     23  C   UNL     1      -7.657  -2.133   1.312  0.00  0.00    +0.064 A 
ATOM     24  C   UNL     1      -6.363  -1.653   1.303  0.00  0.00    +0.028 A 
ATOM     25 BR   UNL     1      -9.112  -0.925   1.333  0.00  0.00    -0.046 Br
BRANCH  22  26
ATOM     26  O   UNL     1      -9.170  -3.969   1.315  0.00  0.00    -0.490 OA
ATOM     27  C   UNL     1      -9.790  -4.184   0.046  0.00  0.00    +0.277 C 
ENDBRANCH  22  26
BRANCH  21  28
ATOM     28  O   UNL     1      -7.061  -5.735   1.287  0.00  0.00    -0.491 OA
ATOM     29  C   UNL     1      -5.919  -6.594   1.272  0.00  0.00    +0.277 C 
ENDBRANCH  21  28
ENDBRANCH  18  19
ENDBRANCH   3  17
TORSDOF 6
