REMARK  Name = ZINC38686720
REMARK  9 active torsions:
REMARK  status: ('A' for Active; 'I' for Inactive)
REMARK    1  A    between atoms: C_3  and  C_16
REMARK    2  A    between atoms: C_5  and  O_7
REMARK    3  A    between atoms: O_7  and  C_8
REMARK    4  A    between atoms: C_8  and  C_9
REMARK    5  A    between atoms: C_21  and  O_30
REMARK    6  A    between atoms: C_25  and  N_29
REMARK    7  A    between atoms: C_26  and  C_27
REMARK    8  A    between atoms: O_30  and  C_31
REMARK    9  A    between atoms: C_31  and  C_33
REMARK                            x       y       z     vdW  Elec       q    Type
REMARK                         _______ _______ _______ _____ _____    ______ ____
ROOT
ATOM      1  C   UNL     1       3.683   2.242  -0.057  0.00  0.00    +0.098 C 
ATOM      2  C   UNL     1       3.758   3.082   1.191  0.00  0.00    +0.008 A 
ATOM      3  C   UNL     1       3.974   2.469   2.412  0.00  0.00    +0.012 A 
ATOM      4  C   UNL     1       4.046   3.223   3.567  0.00  0.00    +0.047 A 
ATOM      5  C   UNL     1       3.902   4.602   3.504  0.00  0.00    +0.135 A 
ATOM      6  C   UNL     1       3.685   5.219   2.283  0.00  0.00    +0.093 A 
ATOM      7  C   UNL     1       3.612   4.459   1.123  0.00  0.00    +0.138 A 
ATOM      8  O   UNL     1       3.400   5.078  -0.064  0.00  0.00    -0.441 OA
ATOM      9  C   UNL     1       3.705   4.450  -1.212  0.00  0.00    +0.199 C 
ATOM     10  C   UNL     1       3.852   3.108  -1.273  0.00  0.00    +0.098 C 
ENDROOT
BRANCH   1  13
ATOM     11  C   UNL     1      -0.049   1.678  -0.206  0.00  0.00    +0.004 A 
ATOM     12  C   UNL     1       1.183   2.306  -0.152  0.00  0.00    +0.005 A 
ATOM     13  C   UNL     1       2.343   1.555  -0.116  0.00  0.00    -0.031 A 
ATOM     14  C   UNL     1       2.275   0.175  -0.135  0.00  0.00    +0.050 A 
ATOM     15  C   UNL     1       1.041  -0.457  -0.189  0.00  0.00    +0.121 A 
ATOM     16  C   UNL     1      -0.122   0.299  -0.225  0.00  0.00    +0.045 A 
BRANCH  15  17
ATOM     17  O   UNL     1       0.972  -1.814  -0.207  0.00  0.00    -0.487 OA
BRANCH  17  18
ATOM     18  C   UNL     1      -0.332  -2.396  -0.264  0.00  0.00    +0.264 C 
BRANCH  18  19
ATOM     19  C   UNL     1      -0.211  -3.898  -0.277  0.00  0.00    -0.010 A 
ATOM     20  C   UNL     1      -0.104  -4.572  -1.479  0.00  0.00    +0.008 A 
ATOM     21  C   UNL     1       0.006  -5.950  -1.491  0.00  0.00    +0.020 A 
ATOM     22  C   UNL     1       0.011  -6.654  -0.300  0.00  0.00    +0.041 A 
ATOM     23  C   UNL     1      -0.096  -5.979   0.902  0.00  0.00    +0.020 A 
ATOM     24  C   UNL     1      -0.201  -4.601   0.914  0.00  0.00    +0.008 A 
ATOM     25 CL   UNL     1       0.149  -8.385  -0.315  0.00  0.00    -0.084 Cl
ENDBRANCH  18  19
ENDBRANCH  17  18
ENDBRANCH  15  17
ENDBRANCH   1  13
BRANCH   9  26
ATOM     26  N   UNL     1       3.872   5.193  -2.354  0.00  0.00    -0.328 N 
ATOM     27  H   UNL     1       3.769   6.157  -2.325  0.00  0.00    +0.145 HD
ATOM     28  H   UNL     1       4.093   4.753  -3.190  0.00  0.00    +0.145 HD
ENDBRANCH   9  26
BRANCH  10  29
ATOM     29  C   UNL     1       4.177   2.499  -2.528  0.00  0.00    +0.101 C 
ATOM     30  N   UNL     1       4.435   2.016  -3.523  0.00  0.00    -0.191 NA
ENDBRANCH  10  29
BRANCH   5  31
ATOM     31  O   UNL     1       3.973   5.346   4.640  0.00  0.00    -0.422 OA
BRANCH  31  32
ATOM     32  C   UNL     1       2.843   5.933   5.084  0.00  0.00    +0.351 C 
ATOM     33  O   UNL     1       1.782   5.705   4.534  0.00  0.00    -0.244 OA
BRANCH  32  34
ATOM     34  C   UNL     1       2.893   6.844   6.229  0.00  0.00    +0.097 A 
ATOM     35  C   UNL     1       1.859   7.539   6.840  0.00  0.00    +0.022 A 
ATOM     36  C   UNL     1       2.218   8.327   7.906  0.00  0.00    +0.008 A 
ATOM     37  C   UNL     1       3.520   8.374   8.283  0.00  0.00    +0.046 A 
ATOM     38  S   UNL     1       4.298   7.346   7.205  0.00  0.00    -0.090 S 
ENDBRANCH  32  34
ENDBRANCH  31  32
ENDBRANCH   5  31
TORSDOF 9
