REMARK  Name = ZINC13374430
REMARK  8 active torsions:
REMARK  status: ('A' for Active; 'I' for Inactive)
REMARK    1  A    between atoms: C_1  and  C_2
REMARK    2  A    between atoms: C_2  and  C_3
REMARK    3  A    between atoms: C_2  and  N_48
REMARK    4  A    between atoms: C_9  and  N_13
REMARK    5  A    between atoms: C_10  and  C_11
REMARK    6  A    between atoms: C_14  and  C_16
REMARK    7  A    between atoms: C_17  and  C_18
REMARK    8  A    between atoms: C_22  and  N_24
REMARK                            x       y       z     vdW  Elec       q    Type
REMARK                         _______ _______ _______ _____ _____    ______ ____
ROOT
ATOM      1  C   UNL     1      -9.477   3.764  -0.849  0.00  0.00    -0.073 C 
ATOM      2  C   UNL     1      -8.713   5.052  -0.529  0.00  0.00    +0.019 C 
ATOM      3  C   UNL     1      -7.240   4.700  -0.355  0.00  0.00    -0.022 A 
ATOM      4  C   UNL     1      -6.870   3.417  -0.138  0.00  0.00    -0.021 A 
ATOM      5  S   UNL     1      -5.107   3.472  -0.011  0.00  0.00    -0.079 S 
ATOM      6  C   UNL     1      -4.863   5.174  -0.231  0.00  0.00    +0.090 A 
ATOM      7  C   UNL     1      -6.153   5.658  -0.406  0.00  0.00    +0.083 A 
ATOM      8  C   UNL     1      -7.781   2.234  -0.038  0.00  0.00    -0.035 C 
ATOM      9  N   UNL     1      -9.160   2.741   0.169  0.00  0.00    +0.384 N 
ATOM     10  H   UNL     1      -9.223   3.166   1.101  0.00  0.00    -0.081 HD
ENDROOT
BRANCH   6  11
ATOM     11  N   UNL     1      -3.670   5.879  -0.238  0.00  0.00    -0.275 N 
ATOM     12  C   UNL     1      -2.503   5.231  -0.049  0.00  0.00    +0.241 C 
ATOM     13  O   UNL     1      -2.497   4.027   0.127  0.00  0.00    -0.270 OA
ATOM     14  H   UNL     1      -3.675   6.839  -0.378  0.00  0.00    +0.156 HD
BRANCH  12  15
ATOM     15  C   UNL     1      -1.244   5.976  -0.056  0.00  0.00    +0.068 C 
ATOM     16  C   UNL     1      -0.069   5.315  -0.012  0.00  0.00    +0.013 C 
BRANCH  16  17
ATOM     17  C   UNL     1      -0.038   3.856  -0.206  0.00  0.00    -0.023 A 
ATOM     18  C   UNL     1      -0.816   3.264  -1.206  0.00  0.00    +0.008 A 
ATOM     19  C   UNL     1      -0.778   1.897  -1.385  0.00  0.00    +0.003 A 
ATOM     20  C   UNL     1       0.019   1.111  -0.571  0.00  0.00    +0.033 A 
ATOM     21  C   UNL     1       0.792   1.690   0.421  0.00  0.00    +0.127 A 
ATOM     22  C   UNL     1       0.769   3.056   0.608  0.00  0.00    +0.040 A 
BRANCH  21  23
ATOM     23  N   UNL     1       1.645   0.841   1.282  0.00  0.00    +0.056 N 
ATOM     24  O   UNL     1       1.667  -0.366   1.118  0.00  0.00    -0.126 OA
ATOM     25  O   UNL     1       2.326   1.349   2.155  0.00  0.00    -0.126 OA
ENDBRANCH  21  23
ENDBRANCH  16  17
ENDBRANCH  12  15
ENDBRANCH   6  11
BRANCH   9  27
ATOM     26  C   UNL     1     -10.048   0.954  -1.289  0.00  0.00    -0.014 C 
ATOM     27  C   UNL     1     -10.127   1.625   0.083  0.00  0.00    -0.074 C 
ATOM     28  C   UNL     1      -9.802   0.601   1.172  0.00  0.00    -0.014 C 
ENDBRANCH   9  27
BRANCH   7  29
ATOM     29  C   UNL     1      -6.399   7.052  -0.627  0.00  0.00    +0.102 C 
ATOM     30  N   UNL     1      -6.595   8.157  -0.803  0.00  0.00    -0.191 NA
ENDBRANCH   7  29
TORSDOF 6
