REMARK  Name = ZINC64920873
REMARK  8 active torsions:
REMARK  status: ('A' for Active; 'I' for Inactive)
REMARK    1  A    between atoms: C_1  and  C_2
REMARK    2  A    between atoms: C_7  and  S_8
REMARK    3  A    between atoms: S_8  and  N_11
REMARK    4  A    between atoms: C_15  and  C_17
REMARK    5  A    between atoms: N_19  and  C_20
REMARK    6  A    between atoms: C_23  and  C_26
REMARK    7  A    between atoms: C_26  and  C_27
REMARK    8  A    between atoms: C_26  and  C_28
REMARK                            x       y       z     vdW  Elec       q    Type
REMARK                         _______ _______ _______ _____ _____    ______ ____
ROOT
ATOM      1  N   UNL     1       2.253   1.057   2.788  0.00  0.00    -0.165 NA
ATOM      2  C   UNL     1       3.511   0.447   3.257  0.00  0.00    +0.110 C 
ATOM      3  C   UNL     1       4.619   1.439   2.822  0.00  0.00    +0.019 C 
ATOM      4  C   UNL     1       3.918   2.805   3.042  0.00  0.00    +0.031 C 
ATOM      5  C   UNL     1       2.454   2.507   2.652  0.00  0.00    +0.166 C 
ENDROOT
BRANCH   5   6
ATOM      6  C   UNL     1       2.204   2.928   1.227  0.00  0.00    +0.236 C 
ATOM      7  O   UNL     1       2.386   2.141   0.322  0.00  0.00    -0.274 OA
ATOM      8  N   UNL     1       1.778   4.178   0.959  0.00  0.00    -0.284 N 
ATOM      9  H   UNL     1       1.704   4.829   1.673  0.00  0.00    +0.155 HD
BRANCH   8  10
ATOM     10  C   UNL     1       1.443   4.536  -0.352  0.00  0.00    +0.033 A 
ATOM     11  C   UNL     1       0.887   3.597  -1.210  0.00  0.00    +0.023 A 
ATOM     12  C   UNL     1       0.557   3.954  -2.502  0.00  0.00    +0.006 A 
ATOM     13  C   UNL     1       0.780   5.245  -2.943  0.00  0.00    -0.045 A 
ATOM     14  C   UNL     1       1.335   6.183  -2.092  0.00  0.00    +0.006 A 
ATOM     15  C   UNL     1       1.661   5.834  -0.796  0.00  0.00    +0.023 A 
BRANCH  13  16
ATOM     16  C   UNL     1       0.419   5.631  -4.354  0.00  0.00    +0.013 C 
ATOM     17  C   UNL     1      -0.612   6.761  -4.326  0.00  0.00    +0.012 C 
ATOM     18  C   UNL     1       1.674   6.104  -5.090  0.00  0.00    +0.012 C 
ENDBRANCH  13  16
ENDBRANCH   8  10
ENDBRANCH   5   6
BRANCH   1  19
ATOM     19  S   UNL     1       0.849   0.242   2.462  0.00  0.00    +0.062 S 
ATOM     20  O   UNL     1       1.193  -1.132   2.353  0.00  0.00    -0.153 OA
ATOM     21  O   UNL     1       0.202   0.952   1.414  0.00  0.00    -0.153 OA
BRANCH  19  28
ATOM     22  C   UNL     1       1.471  -1.001   5.142  0.00  0.00    +0.046 C 
ATOM     23  C   UNL     1       0.188  -0.214   5.069  0.00  0.00    -0.022 A 
ATOM     24  C   UNL     1      -0.614  -0.096   6.190  0.00  0.00    +0.032 A 
ATOM     25  C   UNL     1      -1.793   0.627   6.121  0.00  0.00    +0.076 A 
ATOM     26  C   UNL     1      -2.169   1.233   4.923  0.00  0.00    +0.144 A 
ATOM     27  C   UNL     1      -1.361   1.112   3.806  0.00  0.00    +0.076 A 
ATOM     28  C   UNL     1      -0.182   0.392   3.883  0.00  0.00    +0.112 A 
ATOM     29  O   UNL     1      -3.330   1.938   4.865  0.00  0.00    -0.481 OA
ATOM     30  C   UNL     1      -4.404   1.476   5.689  0.00  0.00    +0.325 C 
ATOM     31  C   UNL     1      -3.890   1.187   7.077  0.00  0.00    +0.255 C 
ATOM     32  O   UNL     1      -4.614   1.338   8.038  0.00  0.00    -0.272 OA
ATOM     33  N   UNL     1      -2.620   0.759   7.245  0.00  0.00    -0.280 N 
ATOM     34  H   UNL     1      -2.285   0.547   8.130  0.00  0.00    +0.155 HD
ENDBRANCH  19  28
ENDBRANCH   1  19
TORSDOF 5
