REMARK  Name = ZINC01440885
REMARK  8 active torsions:
REMARK  status: ('A' for Active; 'I' for Inactive)
REMARK    1  A    between atoms: C_1  and  O_2
REMARK    2  A    between atoms: O_2  and  C_3
REMARK    3  A    between atoms: C_6  and  C_9
REMARK    4  A    between atoms: C_14  and  O_41
REMARK    5  A    between atoms: C_15  and  O_40
REMARK    6  A    between atoms: C_26  and  C_32
REMARK    7  A    between atoms: C_35  and  O_38
REMARK    8  A    between atoms: O_38  and  C_39
REMARK                            x       y       z     vdW  Elec       q    Type
REMARK                         _______ _______ _______ _____ _____    ______ ____
ROOT
ATOM      1  C   UNL     1       1.613   0.196  -1.483  0.00  0.00    +0.061 C 
ATOM      2  C   UNL     1       0.121  -0.019  -1.496  0.00  0.00    +0.006 A 
ATOM      3  C   UNL     1      -0.370  -1.254  -1.891  0.00  0.00    +0.011 A 
ATOM      4  C   UNL     1      -1.729  -1.496  -1.900  0.00  0.00    +0.050 A 
ATOM      5  C   UNL     1      -2.613  -0.500  -1.512  0.00  0.00    +0.162 A 
ATOM      6  C   UNL     1      -2.126   0.740  -1.120  0.00  0.00    +0.201 A 
ATOM      7  C   UNL     1      -0.753   0.982  -1.115  0.00  0.00    +0.172 A 
ATOM      8  O   UNL     1      -0.314   2.209  -0.732  0.00  0.00    -0.464 OA
ATOM      9  C   UNL     1       1.058   2.360  -0.377  0.00  0.00    +0.186 C 
ATOM     10  C   UNL     1       1.932   1.688  -1.440  0.00  0.00    +0.064 C 
ATOM     11  C   UNL     1       1.657   2.333  -2.796  0.00  0.00    +0.010 C 
ATOM     12  C   UNL     1       2.034   3.816  -2.727  0.00  0.00    +0.001 C 
ATOM     13  C   UNL     1       1.189   4.505  -1.655  0.00  0.00    +0.011 C 
ATOM     14  C   UNL     1       1.419   3.848  -0.297  0.00  0.00    +0.077 C 
ATOM     15  C   UNL     1       2.885   3.983   0.119  0.00  0.00    +0.111 C 
ATOM     16  N   UNL     1       3.089   3.267   1.380  0.00  0.00    -0.319 N 
ATOM     17  C   UNL     1       2.330   2.214   1.718  0.00  0.00    +0.134 C 
ATOM     18  S   UNL     1       2.626   1.435   3.214  0.00  0.00    -0.019 S 
ATOM     19  N   UNL     1       1.347   1.744   0.933  0.00  0.00    -0.289 N 
ATOM     20  H   UNL     1       3.879   3.589   2.075  0.00  0.00    +0.148 HD
ATOM     21  H   UNL     1       0.753   0.886   1.280  0.00  0.00    +0.151 HD
ENDROOT
BRANCH   1  25
ATOM     22  C   UNL     1       3.320  -1.515  -5.007  0.00  0.00    +0.120 A 
ATOM     23  C   UNL     1       3.936  -1.698  -3.778  0.00  0.00    +0.046 A 
ATOM     24  C   UNL     1       3.382  -1.144  -2.640  0.00  0.00    +0.008 A 
ATOM     25  C   UNL     1       2.215  -0.407  -2.726  0.00  0.00    -0.039 A 
ATOM     26  C   UNL     1       1.596  -0.228  -3.949  0.00  0.00    +0.008 A 
ATOM     27  C   UNL     1       2.149  -0.775  -5.091  0.00  0.00    +0.046 A 
BRANCH  22  29
ATOM     28  C   UNL     1       3.175  -1.829  -7.359  0.00  0.00    +0.277 C 
ATOM     29  O   UNL     1       3.863  -2.058  -6.128  0.00  0.00    -0.495 OA
ENDBRANCH  22  29
ENDBRANCH   1  25
BRANCH  15  30
ATOM     30  C   UNL     1       3.769   3.390  -0.948  0.00  0.00    -0.027 A 
ATOM     31  C   UNL     1       4.198   4.173  -2.004  0.00  0.00    +0.009 A 
ATOM     32  C   UNL     1       5.013   3.632  -2.979  0.00  0.00    +0.046 A 
ATOM     33  C   UNL     1       5.392   2.300  -2.905  0.00  0.00    +0.120 A 
ATOM     34  C   UNL     1       4.957   1.515  -1.847  0.00  0.00    +0.046 A 
ATOM     35  C   UNL     1       4.146   2.062  -0.871  0.00  0.00    +0.009 A 
BRANCH  33  36
ATOM     36  O   UNL     1       6.190   1.764  -3.866  0.00  0.00    -0.495 OA
ATOM     37  C   UNL     1       6.600   2.631  -4.926  0.00  0.00    +0.277 C 
ENDBRANCH  33  36
ENDBRANCH  15  30
BRANCH   6  38
ATOM     38  O   UNL     1      -2.991   1.720  -0.740  0.00  0.00    -0.501 OA
ATOM     39  H   UNL     1      -2.606   2.702  -0.429  0.00  0.00    +0.292 HD
ENDBRANCH   6  38
BRANCH   5  40
ATOM     40  O   UNL     1      -3.952  -0.737  -1.517  0.00  0.00    -0.503 OA
ATOM     41  H   UNL     1      -4.651   0.055  -1.209  0.00  0.00    +0.292 HD
ENDBRANCH   5  40
TORSDOF 6
