REMARK  Name = ZINC21190363
REMARK  11 active torsions:
REMARK  status: ('A' for Active; 'I' for Inactive)
REMARK    1  A    between atoms: C_1  and  C_2
REMARK    2  A    between atoms: C_2  and  O_3
REMARK    3  A    between atoms: O_3  and  C_4
REMARK    4  A    between atoms: C_4  and  C_6
REMARK    5  A    between atoms: C_7  and  C_29
REMARK    6  A    between atoms: C_12  and  C_16
REMARK    7  A    between atoms: C_17  and  C_18
REMARK    8  A    between atoms: C_20  and  O_26
REMARK    9  A    between atoms: C_22  and  O_24
REMARK   10  A    between atoms: O_24  and  C_25
REMARK   11  A    between atoms: O_26  and  C_27
REMARK                            x       y       z     vdW  Elec       q    Type
REMARK                         _______ _______ _______ _____ _____    ______ ____
ROOT
ATOM      1  C   UNL     1       8.193  -2.535  -0.579  0.00  0.00    +0.102 A 
ATOM      2  C   UNL     1       8.381  -1.182  -0.593  0.00  0.00    -0.015 A 
ATOM      3  C   UNL     1       7.284  -0.327  -0.484  0.00  0.00    +0.076 A 
ATOM      4  C   UNL     1       7.254   1.154  -0.477  0.00  0.00    +0.282 A 
ATOM      5  O   UNL     1       8.283   1.799  -0.574  0.00  0.00    -0.265 OA
ATOM      6  N   UNL     1       6.062   1.771  -0.365  0.00  0.00    -0.190 NA
ATOM      7  C   UNL     1       4.900   1.054  -0.249  0.00  0.00    +0.154 A 
ATOM      8  N   UNL     1       4.901  -0.266  -0.254  0.00  0.00    -0.333 N 
ATOM      9  C   UNL     1       6.021  -0.957  -0.364  0.00  0.00    +0.093 A 
ATOM     10  S   UNL     1       6.423  -2.686  -0.408  0.00  0.00    -0.064 S 
ATOM     11  C   UNL     1       9.771  -0.615  -0.724  0.00  0.00    +0.046 C 
ATOM     12  H   UNL     1       3.952  -0.816  -0.164  0.00  0.00    +0.168 HD
ENDROOT
BRANCH   7  13
ATOM     13  C   UNL     1       3.628   1.769  -0.124  0.00  0.00    +0.084 C 
ATOM     14  C   UNL     1       2.474   1.078  -0.015  0.00  0.00    +0.031 C 
ATOM     15 CL   UNL     1       3.605   3.505  -0.116  0.00  0.00    -0.080 Cl
BRANCH  14  16
ATOM     16  C   UNL     1       1.186   1.788  -0.050  0.00  0.00    -0.017 A 
ATOM     17  C   UNL     1       1.041   2.941  -0.827  0.00  0.00    +0.053 A 
ATOM     18  C   UNL     1      -0.172   3.608  -0.853  0.00  0.00    +0.124 A 
ATOM     19  C   UNL     1      -1.247   3.127  -0.118  0.00  0.00    +0.091 A 
ATOM     20  C   UNL     1      -1.109   1.982   0.655  0.00  0.00    +0.124 A 
ATOM     21  C   UNL     1       0.101   1.311   0.692  0.00  0.00    +0.053 A 
BRANCH  20  22
ATOM     22  O   UNL     1      -2.163   1.520   1.376  0.00  0.00    -0.495 OA
ATOM     23  C   UNL     1      -3.382   2.261   1.292  0.00  0.00    +0.277 C 
ENDBRANCH  20  22
BRANCH  18  24
ATOM     24  O   UNL     1      -0.312   4.732  -1.603  0.00  0.00    -0.495 OA
ATOM     25  C   UNL     1      -1.591   5.370  -1.584  0.00  0.00    +0.277 C 
ENDBRANCH  18  24
ENDBRANCH  14  16
ENDBRANCH   7  13
BRANCH   1  26
ATOM     26  C   UNL     1       9.195  -3.597  -0.679  0.00  0.00    +0.346 C 
ATOM     27  O   UNL     1      10.372  -3.314  -0.792  0.00  0.00    -0.244 OA
BRANCH  26  28
ATOM     28  O   UNL     1       8.812  -4.891  -0.646  0.00  0.00    -0.461 OA
BRANCH  28  30
ATOM     29  C   UNL     1       9.221  -7.272  -0.693  0.00  0.00    +0.048 C 
ATOM     30  C   UNL     1       9.843  -5.875  -0.749  0.00  0.00    +0.229 C 
ENDBRANCH  28  30
ENDBRANCH  26  28
ENDBRANCH   1  26
TORSDOF 7
