REMARK  Name = ZINC20528149
REMARK  11 active torsions:
REMARK  status: ('A' for Active; 'I' for Inactive)
REMARK    1  A    between atoms: C_1  and  C_2
REMARK    2  A    between atoms: C_2  and  C_3
REMARK    3  A    between atoms: C_3  and  C_5
REMARK    4  A    between atoms: C_3  and  C_6
REMARK    5  A    between atoms: C_9  and  N_12
REMARK    6  A    between atoms: C_13  and  C_15
REMARK    7  A    between atoms: C_15  and  S_16
REMARK    8  A    between atoms: S_16  and  C_17
REMARK    9  A    between atoms: N_21  and  N_22
REMARK   10  A    between atoms: N_23  and  N_24
REMARK   11  A    between atoms: C_25  and  C_26
REMARK                            x       y       z     vdW  Elec       q    Type
REMARK                         _______ _______ _______ _____ _____    ______ ____
ROOT
ATOM      1  C   UNL     1      -4.574   6.271  10.474  0.00  0.00    +0.210 A 
ATOM      2  N   UNL     1      -5.021   5.346  11.289  0.00  0.00    -0.119 NA
ATOM      3  N   UNL     1      -5.588   5.983  12.400  0.00  0.00    -0.109 NA
ATOM      4  C   UNL     1      -5.477   7.278  12.224  0.00  0.00    +0.254 A 
ATOM      5  N   UNL     1      -4.848   7.489  11.029  0.00  0.00    -0.211 N 
ATOM      6  N   UNL     1      -5.921   8.260  13.098  0.00  0.00    -0.204 N 
ATOM      7  H   UNL     1      -5.775   9.322  12.850  0.00  0.00    +0.177 HD
ENDROOT
BRANCH   5   8
ATOM      8  N   UNL     1      -4.545   8.706  10.485  0.00  0.00    -0.294 N 
ATOM      9  H   UNL     1      -4.812   9.629  11.020  0.00  0.00    +0.163 HD
ATOM     10  H   UNL     1      -4.034   8.761   9.513  0.00  0.00    +0.163 HD
ENDBRANCH   5   8
BRANCH   6  11
ATOM     11  N   UNL     1      -6.553   7.900  14.294  0.00  0.00    -0.187 NA
ATOM     12  C   UNL     1      -6.968   8.819  15.112  0.00  0.00    +0.141 C 
BRANCH  12  13
ATOM     13  C   UNL     1      -7.634   8.440  16.371  0.00  0.00    +0.030 A 
ATOM     14  C   UNL     1      -8.077   9.427  17.256  0.00  0.00    +0.012 A 
ATOM     15  C   UNL     1      -8.702   9.065  18.431  0.00  0.00    +0.001 A 
ATOM     16  C   UNL     1      -8.885   7.728  18.740  0.00  0.00    +0.003 A 
ATOM     17  C   UNL     1      -8.445   6.744  17.872  0.00  0.00    +0.039 A 
ATOM     18  C   UNL     1      -7.821   7.091  16.689  0.00  0.00    +0.132 A 
ATOM     19  F   UNL     1      -7.391   6.129  15.843  0.00  0.00    -0.205 F 
ENDBRANCH  12  13
ENDBRANCH   6  11
BRANCH   1  20
ATOM     20  S   UNL     1      -3.770   5.993   8.931  0.00  0.00    -0.075 S 
BRANCH  20  21
ATOM     21  C   UNL     1      -3.718   4.186   8.783  0.00  0.00    +0.173 C 
BRANCH  21  23
ATOM     22  N   UNL     1      -2.893   2.509   7.163  0.00  0.00    -0.285 N 
ATOM     23  C   UNL     1      -3.045   3.807   7.489  0.00  0.00    +0.227 C 
ATOM     24  O   UNL     1      -2.640   4.672   6.740  0.00  0.00    -0.275 OA
ATOM     25  H   UNL     1      -3.336   1.727   7.798  0.00  0.00    +0.155 HD
BRANCH  22  29
ATOM     26  C   UNL     1      -0.746   1.453   3.753  0.00  0.00    -0.044 A 
ATOM     27  C   UNL     1      -1.825   0.687   4.153  0.00  0.00    +0.006 A 
ATOM     28  C   UNL     1      -2.535   1.031   5.286  0.00  0.00    +0.023 A 
ATOM     29  C   UNL     1      -2.172   2.154   6.018  0.00  0.00    +0.033 A 
ATOM     30  C   UNL     1      -1.091   2.924   5.610  0.00  0.00    +0.023 A 
ATOM     31  C   UNL     1      -0.381   2.572   4.479  0.00  0.00    +0.006 A 
BRANCH  26  32
ATOM     32  C   UNL     1       0.031   1.072   2.519  0.00  0.00    +0.016 C 
ATOM     33  C   UNL     1      -0.903   1.076   1.307  0.00  0.00    +0.012 C 
BRANCH  32  35
ATOM     34  C   UNL     1       1.513  -0.664   1.503  0.00  0.00    +0.004 C 
ATOM     35  C   UNL     1       0.623  -0.327   2.701  0.00  0.00    +0.004 C 
ENDBRANCH  32  35
ENDBRANCH  26  32
ENDBRANCH  22  29
ENDBRANCH  21  23
ENDBRANCH  20  21
ENDBRANCH   1  20
TORSDOF 9
