REMARK  Name = ZINC30309711
REMARK  4 active torsions:
REMARK  status: ('A' for Active; 'I' for Inactive)
REMARK    1  A    between atoms: C_3  and  C_13
REMARK    2  A    between atoms: C_13  and  N_14
REMARK    3  A    between atoms: C_15  and  C_17
REMARK    4  A    between atoms: C_17  and  C_22
REMARK                            x       y       z     vdW  Elec       q    Type
REMARK                         _______ _______ _______ _____ _____    ______ ____
ROOT
ATOM      1  N   UNL     1       5.097   0.897   1.770  0.00  0.00    -0.310 N 
ATOM      2  C   UNL     1       4.931  -0.439   1.823  0.00  0.00    +0.224 C 
ATOM      3  O   UNL     1       5.491  -1.087   2.682  0.00  0.00    -0.275 OA
ATOM      4  H   UNL     1       4.516   1.496   1.053  0.00  0.00    +0.149 HD
ENDROOT
BRANCH   2   5
ATOM      5  C   UNL     1       4.048  -1.129   0.815  0.00  0.00    +0.072 C 
ATOM      6  C   UNL     1       4.700  -1.078  -0.583  0.00  0.00    +0.021 C 
ATOM      7  C   UNL     1       5.439  -2.433  -0.707  0.00  0.00    +0.001 C 
ATOM      8  C   UNL     1       4.466  -3.419  -0.015  0.00  0.00    +0.001 C 
ATOM      9  C   UNL     1       3.899  -2.618   1.176  0.00  0.00    +0.021 C 
BRANCH   5  10
ATOM     10  C   UNL     1       2.694  -0.469   0.777  0.00  0.00    -0.029 A 
ATOM     11  C   UNL     1       2.460   0.577  -0.096  0.00  0.00    +0.008 A 
ATOM     12  C   UNL     1       1.220   1.186  -0.132  0.00  0.00    +0.050 A 
ATOM     13  C   UNL     1       0.206   0.748   0.708  0.00  0.00    +0.162 A 
ATOM     14  C   UNL     1       0.440  -0.306   1.583  0.00  0.00    +0.162 A 
ATOM     15  C   UNL     1       1.688  -0.911   1.615  0.00  0.00    +0.054 A 
ATOM     16  O   UNL     1      -0.543  -0.756   2.409  0.00  0.00    -0.485 OA
ATOM     17  C   UNL     1      -1.660   0.115   2.615  0.00  0.00    +0.270 C 
ATOM     18  C   UNL     1      -2.107   0.654   1.249  0.00  0.00    +0.270 C 
ATOM     19  O   UNL     1      -1.007   1.363   0.667  0.00  0.00    -0.485 OA
ENDBRANCH   5  10
ENDBRANCH   2   5
BRANCH   1  20
ATOM     20  C   UNL     1       6.053   1.552   2.666  0.00  0.00    +0.143 C 
BRANCH  20  23
ATOM     21  C   UNL     1       7.262   4.856   1.301  0.00  0.00    +0.018 A 
ATOM     22  C   UNL     1       7.220   3.500   1.598  0.00  0.00    +0.010 A 
ATOM     23  C   UNL     1       6.144   3.016   2.320  0.00  0.00    +0.008 A 
ATOM     24  C   UNL     1       5.143   3.898   2.717  0.00  0.00    +0.104 A 
ATOM     25  N   UNL     1       5.223   5.186   2.418  0.00  0.00    -0.349 N 
ATOM     26  C   UNL     1       6.238   5.675   1.731  0.00  0.00    +0.084 A 
ATOM     27  N   UNL     1       4.053   3.425   3.438  0.00  0.00    -0.312 N 
ATOM     28  C   UNL     1       2.792   3.726   2.745  0.00  0.00    +0.134 C 
ATOM     29  C   UNL     1       1.625   3.136   3.542  0.00  0.00    +0.178 C 
ATOM     30  O   UNL     1       1.651   3.659   4.873  0.00  0.00    -0.377 OA
ATOM     31  C   UNL     1       2.864   3.382   5.577  0.00  0.00    +0.178 C 
ATOM     32  C   UNL     1       4.044   3.975   4.801  0.00  0.00    +0.134 C 
ATOM     33  H   UNL     1       4.431   5.876   2.745  0.00  0.00    +0.167 HD
ENDBRANCH  20  23
ENDBRANCH   1  20
TORSDOF 4
