REMARK  Name = ZINC43025225
REMARK  8 active torsions:
REMARK  status: ('A' for Active; 'I' for Inactive)
REMARK    1  A    between atoms: C_1  and  C_2
REMARK    2  A    between atoms: C_2  and  C_3
REMARK    3  A    between atoms: C_3  and  C_5
REMARK    4  A    between atoms: C_3  and  N_23
REMARK    5  A    between atoms: C_5  and  C_7
REMARK    6  A    between atoms: C_5  and  S_14
REMARK    7  A    between atoms: S_14  and  C_15
REMARK    8  A    between atoms: C_19  and  N_21
REMARK                            x       y       z     vdW  Elec       q    Type
REMARK                         _______ _______ _______ _____ _____    ______ ____
ROOT
ATOM      1  C   UNL     1       0.550  -2.023   1.374  0.00  0.00    +0.070 C 
ENDROOT
BRANCH   1   2
ATOM      2  C   UNL     1       1.127  -2.311   2.736  0.00  0.00    -0.035 A 
ATOM      3  C   UNL     1       0.636  -1.651   3.848  0.00  0.00    +0.005 A 
ATOM      4  C   UNL     1       1.165  -1.914   5.098  0.00  0.00    +0.001 A 
ATOM      5  C   UNL     1       2.185  -2.837   5.237  0.00  0.00    +0.015 A 
ATOM      6  C   UNL     1       2.676  -3.497   4.125  0.00  0.00    +0.018 A 
ATOM      7  C   UNL     1       2.143  -3.237   2.875  0.00  0.00    +0.020 A 
ATOM      8 BR   UNL     1       4.072  -4.759   4.314  0.00  0.00    -0.050 Br
ENDBRANCH   1   2
BRANCH   1   9
ATOM      9  C   UNL     1       0.749  -0.544   1.038  0.00  0.00    -0.057 C 
BRANCH   9  10
ATOM     10  N   UNL     1       2.179  -0.212   1.113  0.00  0.00    +0.381 N 
ATOM     11  H   UNL     1       2.517  -0.394   2.046  0.00  0.00    -0.090 HD
ATOM     12  H   UNL     1       2.690  -0.779   0.453  0.00  0.00    -0.090 HD
ATOM     13  H   UNL     1       2.310   0.763   0.891  0.00  0.00    -0.090 HD
ENDBRANCH   9  10
BRANCH   9  15
ATOM     14  C   UNL     1       0.308   1.232  -0.663  0.00  0.00    +0.002 C 
ATOM     15  C   UNL     1       0.235  -0.269  -0.377  0.00  0.00    -0.018 C 
ENDBRANCH   9  15
ENDBRANCH   1   9
BRANCH   1  16
ATOM     16  S   UNL     1      -1.222  -2.410   1.374  0.00  0.00    -0.079 S 
BRANCH  16  17
ATOM     17  C   UNL     1      -1.275  -4.165   1.522  0.00  0.00    +0.192 A 
ATOM     18  N   UNL     1      -0.140  -4.849   1.500  0.00  0.00    -0.207 NA
ATOM     19  C   UNL     1      -0.141  -6.176   1.610  0.00  0.00    +0.122 A 
ATOM     20  C   UNL     1      -1.355  -6.843   1.748  0.00  0.00    +0.086 A 
ATOM     21  C   UNL     1      -2.526  -6.090   1.767  0.00  0.00    +0.122 A 
ATOM     22  N   UNL     1      -2.448  -4.766   1.657  0.00  0.00    -0.207 NA
ATOM     23  N   UNL     1       1.050  -6.884   1.586  0.00  0.00    -0.343 N 
ATOM     24  H   UNL     1       1.892  -6.412   1.489  0.00  0.00    +0.144 HD
ATOM     25  H   UNL     1       1.042  -7.850   1.666  0.00  0.00    +0.144 HD
BRANCH  21  26
ATOM     26  N   UNL     1      -3.758  -6.712   1.902  0.00  0.00    -0.343 N 
ATOM     27  H   UNL     1      -3.808  -7.677   1.985  0.00  0.00    +0.144 HD
ATOM     28  H   UNL     1      -4.570  -6.182   1.914  0.00  0.00    +0.144 HD
ENDBRANCH  21  26
ENDBRANCH  16  17
ENDBRANCH   1  16
TORSDOF 7
