REMARK  Name = ZINC21459761
REMARK  10 active torsions:
REMARK  status: ('A' for Active; 'I' for Inactive)
REMARK    1  A    between atoms: C_1  and  C_2
REMARK    2  A    between atoms: C_6  and  N_33
REMARK    3  A    between atoms: C_7  and  N_8
REMARK    4  A    between atoms: C_9  and  C_11
REMARK    5  A    between atoms: C_11  and  S_12
REMARK    6  A    between atoms: S_12  and  C_13
REMARK    7  A    between atoms: C_16  and  C_24
REMARK    8  A    between atoms: N_17  and  C_18
REMARK    9  A    between atoms: C_24  and  O_25
REMARK   10  A    between atoms: O_25  and  C_26
REMARK                            x       y       z     vdW  Elec       q    Type
REMARK                         _______ _______ _______ _____ _____    ______ ____
ROOT
ATOM      1  C   UNL     1      -3.302   1.153  -0.434  0.00  0.00    +0.197 A 
ATOM      2  N   UNL     1      -3.623   2.420  -0.310  0.00  0.00    -0.122 NA
ATOM      3  N   UNL     1      -3.362   2.823   0.882  0.00  0.00    -0.130 NA
ATOM      4  C   UNL     1      -2.870   1.845   1.589  0.00  0.00    +0.176 A 
ATOM      5  N   UNL     1      -2.816   0.743   0.778  0.00  0.00    -0.271 N 
ENDROOT
BRANCH   5   6
ATOM      6  C   UNL     1      -2.354  -0.537   1.116  0.00  0.00    +0.050 A 
ATOM      7  C   UNL     1      -1.018  -0.732   1.435  0.00  0.00    +0.026 A 
ATOM      8  C   UNL     1      -0.564  -1.995   1.763  0.00  0.00    +0.002 A 
ATOM      9  C   UNL     1      -1.440  -3.065   1.772  0.00  0.00    +0.000 A 
ATOM     10  C   UNL     1      -2.773  -2.873   1.455  0.00  0.00    +0.002 A 
ATOM     11  C   UNL     1      -3.232  -1.613   1.127  0.00  0.00    +0.026 A 
ENDBRANCH   5   6
BRANCH   1  12
ATOM     12  S   UNL     1      -3.469   0.167  -1.884  0.00  0.00    -0.076 S 
BRANCH  12  13
ATOM     13  C   UNL     1      -4.162   1.394  -3.021  0.00  0.00    +0.173 C 
BRANCH  13  15
ATOM     14  N   UNL     1      -4.909   1.486  -5.377  0.00  0.00    -0.283 N 
ATOM     15  C   UNL     1      -4.395   0.757  -4.366  0.00  0.00    +0.228 C 
ATOM     16  O   UNL     1      -4.120  -0.412  -4.540  0.00  0.00    -0.275 OA
ATOM     17  H   UNL     1      -5.231   2.522  -5.199  0.00  0.00    +0.155 HD
BRANCH  14  24
ATOM     18  C   UNL     1      -2.612   0.271  -6.537  0.00  0.00    +0.046 C 
ATOM     19  C   UNL     1      -3.936   0.321  -7.256  0.00  0.00    -0.027 A 
ATOM     20  C   UNL     1      -4.060  -0.233  -8.515  0.00  0.00    +0.005 A 
ATOM     21  C   UNL     1      -5.274  -0.187  -9.175  0.00  0.00    +0.003 A 
ATOM     22  C   UNL     1      -6.367   0.413  -8.577  0.00  0.00    +0.034 A 
ATOM     23  C   UNL     1      -6.251   0.964  -7.316  0.00  0.00    +0.148 A 
ATOM     24  C   UNL     1      -5.031   0.924  -6.653  0.00  0.00    +0.067 A 
BRANCH  23  25
ATOM     25  N   UNL     1      -7.423   1.600  -6.674  0.00  0.00    +0.058 N 
ATOM     26  O   UNL     1      -8.461   1.732  -7.297  0.00  0.00    -0.126 OA
ATOM     27  O   UNL     1      -7.349   1.992  -5.524  0.00  0.00    -0.126 OA
ENDBRANCH  23  25
ENDBRANCH  14  24
ENDBRANCH  13  15
ENDBRANCH  12  13
ENDBRANCH   1  12
BRANCH   4  28
ATOM     28  C   UNL     1      -2.438   1.915   3.031  0.00  0.00    +0.305 C 
BRANCH  28  29
ATOM     29  O   UNL     1      -1.059   2.283   3.098  0.00  0.00    -0.481 OA
BRANCH  29  30
ATOM     30  C   UNL     1      -0.508   2.390   4.337  0.00  0.00    +0.156 A 
ATOM     31  C   UNL     1      -1.281   2.152   5.463  0.00  0.00    +0.048 A 
ATOM     32  C   UNL     1      -0.718   2.258   6.721  0.00  0.00    +0.004 A 
ATOM     33  C   UNL     1       0.612   2.611   6.858  0.00  0.00    +0.003 A 
ATOM     34  C   UNL     1       1.384   2.854   5.738  0.00  0.00    +0.042 A 
ATOM     35  C   UNL     1       0.828   2.745   4.476  0.00  0.00    +0.165 A 
ATOM     36  F   UNL     1       1.582   2.983   3.381  0.00  0.00    -0.202 F 
ENDBRANCH  29  30
ENDBRANCH  28  29
ENDBRANCH   4  28
TORSDOF 9
