REMARK  Name = ZINC12247697
REMARK  12 active torsions:
REMARK  status: ('A' for Active; 'I' for Inactive)
REMARK    1  A    between atoms: C_1  and  C_2
REMARK    2  A    between atoms: C_2  and  C_4
REMARK    3  A    between atoms: C_2  and  N_25
REMARK    4  A    between atoms: C_13  and  C_14
REMARK    5  A    between atoms: C_13  and  N_71
REMARK    6  A    between atoms: C_15  and  C_16
REMARK    7  A    between atoms: C_19  and  N_22
REMARK    8  A    between atoms: N_22  and  C_23
REMARK    9  A    between atoms: N_22  and  C_24
REMARK   10  A    between atoms: C_26  and  C_28
REMARK   11  A    between atoms: C_28  and  C_29
REMARK   12  A    between atoms: C_29  and  C_30
REMARK                            x       y       z     vdW  Elec       q    Type
REMARK                         _______ _______ _______ _____ _____    ______ ____
ROOT
ATOM      1  C   UNL     1      -2.289   0.393  -2.840  0.00  0.00    +0.154 A 
ATOM      2  N   UNL     1      -3.202  -0.535  -2.711  0.00  0.00    -0.132 NA
ATOM      3  N   UNL     1      -3.281  -0.899  -1.478  0.00  0.00    -0.134 NA
ATOM      4  C   UNL     1      -2.421  -0.226  -0.771  0.00  0.00    +0.132 A 
ATOM      5  N   UNL     1      -1.779   0.622  -1.611  0.00  0.00    -0.315 N 
ATOM      6  C   UNL     1      -0.750   1.592  -1.235  0.00  0.00    +0.106 C 
ATOM      7  C   UNL     1      -0.013   1.086   0.008  0.00  0.00    -0.056 C 
ATOM      8  C   UNL     1      -2.066   1.053   1.314  0.00  0.00    -0.071 C 
ATOM      9  C   UNL     1      -2.143  -0.351   0.705  0.00  0.00    +0.058 C 
ATOM     10  N   UNL     1      -0.693   1.595   1.221  0.00  0.00    +0.383 N 
ATOM     11  H   UNL     1      -0.745   2.619   1.166  0.00  0.00    -0.081 HD
ENDROOT
BRANCH   1  13
ATOM     12  C   UNL     1      -2.961   2.086  -4.523  0.00  0.00    +0.036 C 
ATOM     13  C   UNL     1      -1.883   1.077  -4.120  0.00  0.00    +0.138 C 
BRANCH  13  14
ATOM     14  N   UNL     1      -1.728   0.079  -5.180  0.00  0.00    -0.306 N 
ATOM     15  C   UNL     1      -0.919   0.329  -6.228  0.00  0.00    +0.214 C 
ATOM     16  O   UNL     1      -0.319   1.381  -6.294  0.00  0.00    -0.276 OA
ATOM     17  H   UNL     1      -2.207  -0.763  -5.127  0.00  0.00    +0.149 HD
BRANCH  15  18
ATOM     18  C   UNL     1      -0.759  -0.699  -7.319  0.00  0.00    +0.100 C 
BRANCH  18  19
ATOM     19  C   UNL     1       0.207  -0.170  -8.381  0.00  0.00    +0.044 C 
BRANCH  19  20
ATOM     20  C   UNL     1       0.367  -1.197  -9.471  0.00  0.00    -0.047 A 
ATOM     21  C   UNL     1       1.363  -2.151  -9.381  0.00  0.00    +0.003 A 
ATOM     22  C   UNL     1       1.507  -3.097 -10.379  0.00  0.00    +0.000 A 
ATOM     23  C   UNL     1       0.661  -3.082 -11.472  0.00  0.00    +0.000 A 
ATOM     24  C   UNL     1      -0.332  -2.124 -11.565  0.00  0.00    +0.000 A 
ATOM     25  C   UNL     1      -0.479  -1.182 -10.565  0.00  0.00    +0.003 A 
ENDBRANCH  19  20
ENDBRANCH  18  19
ENDBRANCH  15  18
ENDBRANCH  13  14
ENDBRANCH   1  13
BRANCH  10  26
ATOM     26  C   UNL     1       0.073   1.220   2.422  0.00  0.00    -0.051 C 
BRANCH  26  27
ATOM     27  C   UNL     1      -0.524   1.925   3.613  0.00  0.00    -0.045 C 
ATOM     28  C   UNL     1      -0.893   1.228   4.680  0.00  0.00    +0.002 C 
BRANCH  28  29
ATOM     29  C   UNL     1      -1.478   1.919   5.847  0.00  0.00    -0.025 A 
ATOM     30  C   UNL     1      -1.638   3.306   5.831  0.00  0.00    +0.010 A 
ATOM     31  C   UNL     1      -2.189   3.947   6.919  0.00  0.00    +0.023 A 
ATOM     32  C   UNL     1      -2.575   3.216   8.037  0.00  0.00    +0.029 A 
ATOM     33  C   UNL     1      -2.412   1.835   8.058  0.00  0.00    +0.023 A 
ATOM     34  C   UNL     1      -1.867   1.188   6.971  0.00  0.00    +0.010 A 
BRANCH  32  35
ATOM     35  N   UNL     1      -3.127   3.869   9.140  0.00  0.00    -0.336 N 
ATOM     36  C   UNL     1      -3.534   3.099  10.318  0.00  0.00    +0.129 C 
ATOM     37  C   UNL     1      -3.300   5.323   9.119  0.00  0.00    +0.129 C 
ENDBRANCH  32  35
ENDBRANCH  28  29
ENDBRANCH  26  27
ENDBRANCH  10  26
TORSDOF 9
