REMARK  Name = ZINC35781443
REMARK  16 active torsions:
REMARK  status: ('A' for Active; 'I' for Inactive)
REMARK    1  A    between atoms: C_1  and  C_2
REMARK    2  A    between atoms: N_5  and  C_8
REMARK    3  A    between atoms: C_9  and  C_19
REMARK    4  A    between atoms: C_10  and  C_13
REMARK    5  A    between atoms: C_19  and  N_20
REMARK    6  A    between atoms: N_20  and  C_21
REMARK    7  A    between atoms: N_20  and  C_28
REMARK    8  A    between atoms: C_21  and  C_22
REMARK    9  A    between atoms: C_28  and  C_29
REMARK   10  A    between atoms: C_29  and  C_31
REMARK   11  A    between atoms: C_29  and  O_37
REMARK   12  A    between atoms: C_31  and  O_32
REMARK   13  A    between atoms: O_32  and  C_33
REMARK   14  A    between atoms: C_33  and  C_34
REMARK   15  A    between atoms: C_34  and  C_35
REMARK   16  A    between atoms: C_34  and  C_36
REMARK                            x       y       z     vdW  Elec       q    Type
REMARK                         _______ _______ _______ _____ _____    ______ ____
ROOT
ATOM      1  C   UNL     1       1.131  -2.918   4.452  0.00  0.00    -0.035 C 
ENDROOT
BRANCH   1   3
ATOM      2  C   UNL     1       0.393  -4.877   5.914  0.00  0.00    +0.222 A 
ATOM      3  C   UNL     1       1.245  -4.308   5.024  0.00  0.00    +0.025 A 
ATOM      4  C   UNL     1       2.256  -5.246   4.730  0.00  0.00    +0.117 A 
ATOM      5  N   UNL     1       2.012  -6.335   5.421  0.00  0.00    -0.076 NA
ATOM      6  O   UNL     1       0.837  -6.117   6.181  0.00  0.00    -0.339 OA
BRANCH   2  11
ATOM      7  C   UNL     1      -4.201  -4.624   8.898  0.00  0.00    +0.007 C 
ATOM      8  C   UNL     1      -3.111  -4.078   7.973  0.00  0.00    -0.011 C 
ATOM      9  C   UNL     1      -3.085  -4.892   6.678  0.00  0.00    +0.022 C 
ATOM     10  C   UNL     1      -2.016  -4.321   5.741  0.00  0.00    +0.108 C 
ATOM     11  N   UNL     1      -0.733  -4.283   6.455  0.00  0.00    -0.299 N 
ATOM     12  C   UNL     1      -0.668  -3.603   7.756  0.00  0.00    +0.108 C 
ATOM     13  C   UNL     1      -1.752  -4.182   8.670  0.00  0.00    +0.022 C 
ENDBRANCH   2  11
BRANCH   4  14
ATOM     14  C   UNL     1       3.395  -5.039   3.801  0.00  0.00    +0.004 A 
ATOM     15  C   UNL     1       3.175  -4.505   2.533  0.00  0.00    +0.010 A 
ATOM     16  C   UNL     1       4.238  -4.314   1.673  0.00  0.00    +0.001 A 
ATOM     17  C   UNL     1       5.520  -4.651   2.069  0.00  0.00    +0.000 A 
ATOM     18  C   UNL     1       5.744  -5.181   3.326  0.00  0.00    +0.001 A 
ATOM     19  C   UNL     1       4.689  -5.371   4.196  0.00  0.00    +0.010 A 
ENDBRANCH   4  14
ENDBRANCH   1   3
BRANCH   1  20
ATOM     20  N   UNL     1       1.728  -1.954   5.386  0.00  0.00    +0.386 N 
ATOM     21  H   UNL     1       1.259  -2.015   6.277  0.00  0.00    -0.081 HD
BRANCH  20  22
ATOM     22  C   UNL     1       1.580  -0.595   4.846  0.00  0.00    -0.046 C 
BRANCH  22  23
ATOM     23  C   UNL     1       0.094  -0.252   4.728  0.00  0.00    +0.102 C 
ATOM     24  C   UNL     1      -0.084   1.216   4.265  0.00  0.00    +0.032 C 
ATOM     25  C   UNL     1      -1.491   1.150   3.610  0.00  0.00    +0.030 C 
ATOM     26  C   UNL     1      -1.504  -0.271   3.006  0.00  0.00    +0.160 C 
ATOM     27  O   UNL     1      -0.522  -1.048   3.703  0.00  0.00    -0.378 OA
ENDBRANCH  22  23
ENDBRANCH  20  22
BRANCH  20  28
ATOM     28  C   UNL     1       3.154  -2.259   5.560  0.00  0.00    -0.044 C 
BRANCH  28  29
ATOM     29  C   UNL     1       3.721  -1.414   6.702  0.00  0.00    +0.124 C 
BRANCH  29  30
ATOM     30  O   UNL     1       3.758  -0.041   6.305  0.00  0.00    -0.391 OA
ATOM     31  H   UNL     1       4.305   0.128   5.526  0.00  0.00    +0.210 HD
ENDBRANCH  29  30
BRANCH  29  32
ATOM     32  C   UNL     1       5.137  -1.888   7.033  0.00  0.00    +0.189 C 
BRANCH  32  33
ATOM     33  O   UNL     1       5.623  -1.177   8.174  0.00  0.00    -0.377 OA
BRANCH  33  34
ATOM     34  C   UNL     1       6.946  -1.547   8.569  0.00  0.00    +0.163 C 
BRANCH  34  35
ATOM     35  C   UNL     1       7.359  -0.728   9.793  0.00  0.00    +0.009 C 
ATOM     36  C   UNL     1       6.465  -1.095  10.979  0.00  0.00    +0.009 C 
ATOM     37  C   UNL     1       8.818  -1.032  10.141  0.00  0.00    +0.009 C 
ENDBRANCH  34  35
ENDBRANCH  33  34
ENDBRANCH  32  33
ENDBRANCH  29  32
ENDBRANCH  28  29
ENDBRANCH  20  28
ENDBRANCH   1  20
TORSDOF 13
