REMARK  Name = ZINC35992853
REMARK  9 active torsions:
REMARK  status: ('A' for Active; 'I' for Inactive)
REMARK    1  A    between atoms: C_1  and  C_2
REMARK    2  A    between atoms: C_2  and  O_3
REMARK    3  A    between atoms: O_3  and  C_4
REMARK    4  A    between atoms: C_4  and  C_6
REMARK    5  A    between atoms: C_7  and  C_21
REMARK    6  A    between atoms: N_8  and  C_20
REMARK    7  A    between atoms: C_12  and  C_14
REMARK    8  A    between atoms: C_21  and  N_22
REMARK    9  A    between atoms: C_29  and  C_31
REMARK                            x       y       z     vdW  Elec       q    Type
REMARK                         _______ _______ _______ _____ _____    ______ ____
ROOT
ATOM      1  C   UNL     1       2.158  -3.108   1.309  0.00  0.00    +0.076 C 
ATOM      2  C   UNL     1       1.893  -4.065   2.224  0.00  0.00    +0.010 C 
ATOM      3  N   UNL     1       2.343  -3.957   3.509  0.00  0.00    -0.264 N 
ATOM      4  C   UNL     1       3.065  -2.922   3.958  0.00  0.00    +0.307 C 
ATOM      5  O   UNL     1       3.421  -2.914   5.120  0.00  0.00    -0.252 OA
ATOM      6  N   UNL     1       3.409  -1.890   3.163  0.00  0.00    -0.288 N 
ATOM      7  C   UNL     1       2.977  -1.913   1.756  0.00  0.00    +0.143 C 
ATOM      8  C   UNL     1       2.018  -5.033   4.448  0.00  0.00    +0.139 C 
ATOM      9  H   UNL     1       3.933  -1.150   3.509  0.00  0.00    +0.151 HD
ENDROOT
BRANCH   7  10
ATOM     10  C   UNL     1       4.206  -1.841   0.886  0.00  0.00    -0.023 A 
ATOM     11  C   UNL     1       5.285  -2.666   1.145  0.00  0.00    +0.006 A 
ATOM     12  C   UNL     1       6.412  -2.600   0.347  0.00  0.00    +0.000 A 
ATOM     13  C   UNL     1       6.460  -1.710  -0.710  0.00  0.00    +0.000 A 
ATOM     14  C   UNL     1       5.380  -0.886  -0.969  0.00  0.00    +0.000 A 
ATOM     15  C   UNL     1       4.251  -0.955  -0.174  0.00  0.00    +0.006 A 
ENDBRANCH   7  10
BRANCH   1  16
ATOM     16  C   UNL     1       1.693  -3.219  -0.022  0.00  0.00    +0.339 C 
ATOM     17  O   UNL     1       1.147  -4.241  -0.392  0.00  0.00    -0.245 OA
BRANCH  16  18
ATOM     18  O   UNL     1       1.854  -2.191  -0.881  0.00  0.00    -0.462 OA
BRANCH  18  20
ATOM     19  C   UNL     1       1.631  -1.110  -3.031  0.00  0.00    +0.048 C 
ATOM     20  C   UNL     1       1.360  -2.372  -2.210  0.00  0.00    +0.229 C 
ENDBRANCH  18  20
ENDBRANCH  16  18
ENDBRANCH   1  16
BRANCH   2  21
ATOM     21  C   UNL     1       1.086  -5.272   1.821  0.00  0.00    -0.026 C 
BRANCH  21  22
ATOM     22  N   UNL     1       1.972  -6.271   1.207  0.00  0.00    +0.384 N 
ATOM     23  C   UNL     1       1.143  -7.307   0.594  0.00  0.00    -0.077 C 
ATOM     24  C   UNL     1       1.878  -7.899  -0.589  0.00  0.00    +0.000 C 
ATOM     25  C   UNL     1       2.659  -9.146  -0.135  0.00  0.00    +0.106 C 
ATOM     26  N   UNL     1       3.273  -8.934   1.191  0.00  0.00    -0.297 N 
ATOM     27  C   UNL     1       3.912  -7.688   1.560  0.00  0.00    +0.089 C 
ATOM     28  C   UNL     1       2.872  -6.733   2.192  0.00  0.00    -0.059 C 
ATOM     29  C   UNL     1       3.238  -9.938   2.090  0.00  0.00    +0.282 C 
ATOM     30  O   UNL     1       2.809 -11.030   1.767  0.00  0.00    -0.267 OA
ATOM     31  H   UNL     1       2.502  -5.818   0.477  0.00  0.00    -0.081 HD
BRANCH  29  32
ATOM     32  C   UNL     1       3.717  -9.713   3.458  0.00  0.00    +0.189 A 
ATOM     33  C   UNL     1       3.848 -10.664   4.429  0.00  0.00    +0.054 A 
ATOM     34  C   UNL     1       4.337 -10.011   5.571  0.00  0.00    +0.042 A 
ATOM     35  C   UNL     1       4.481  -8.706   5.252  0.00  0.00    +0.196 A 
ATOM     36  O   UNL     1       4.111  -8.531   3.976  0.00  0.00    -0.458 OA
ENDBRANCH  29  32
ENDBRANCH  21  22
ENDBRANCH   2  21
TORSDOF 7
