REMARK  Name = ZINC27547795
REMARK  6 active torsions:
REMARK  status: ('A' for Active; 'I' for Inactive)
REMARK    1  A    between atoms: C_1  and  C_2
REMARK    2  A    between atoms: C_3  and  C_25
REMARK    3  A    between atoms: C_4  and  C_16
REMARK    4  A    between atoms: C_10  and  C_14
REMARK    5  A    between atoms: C_10  and  C_15
REMARK    6  A    between atoms: N_27  and  C_28
REMARK                            x       y       z     vdW  Elec       q    Type
REMARK                         _______ _______ _______ _____ _____    ______ ____
ROOT
ATOM      1  C   UNL     1      -2.401  -0.272   0.151  0.00  0.00    +0.061 C 
ATOM      2  C   UNL     1      -2.420   1.225  -0.021  0.00  0.00    +0.014 C 
ATOM      3  C   UNL     1      -1.263   1.907  -0.061  0.00  0.00    +0.043 C 
ATOM      4  C   UNL     1      -1.243   3.399  -0.217  0.00  0.00    +0.090 C 
ATOM      5  C   UNL     1      -2.563   3.903  -0.749  0.00  0.00    +0.024 C 
ATOM      6  C   UNL     1      -3.673   3.138  -0.673  0.00  0.00    +0.016 C 
ATOM      7  N   UNL     1      -3.615   1.881  -0.133  0.00  0.00    -0.321 N 
ATOM      8  C   UNL     1      -5.002   3.645  -1.175  0.00  0.00    +0.058 C 
ATOM      9  C   UNL     1      -4.777   4.604  -2.346  0.00  0.00    -0.023 C 
ATOM     10  C   UNL     1      -3.886   5.755  -1.866  0.00  0.00    +0.086 C 
ATOM     11  C   UNL     1      -2.606   5.189  -1.315  0.00  0.00    +0.162 C 
ATOM     12  O   UNL     1      -1.591   5.854  -1.360  0.00  0.00    -0.292 OA
ATOM     13  C   UNL     1      -4.086   3.863  -3.492  0.00  0.00    +0.011 C 
ATOM     14  C   UNL     1      -6.121   5.154  -2.826  0.00  0.00    +0.011 C 
ATOM     15  H   UNL     1      -4.541   1.399   0.211  0.00  0.00    +0.152 HD
ENDROOT
BRANCH   4  16
ATOM     16  C   UNL     1      -0.969   4.033   1.122  0.00  0.00    -0.032 A 
ATOM     17  C   UNL     1      -1.835   3.818   2.178  0.00  0.00    +0.008 A 
ATOM     18  C   UNL     1      -1.586   4.394   3.409  0.00  0.00    +0.050 A 
ATOM     19  C   UNL     1      -0.470   5.196   3.586  0.00  0.00    +0.166 A 
ATOM     20  C   UNL     1       0.401   5.417   2.522  0.00  0.00    +0.167 A 
ATOM     21  C   UNL     1       0.146   4.832   1.292  0.00  0.00    +0.054 A 
ATOM     22  O   UNL     1       1.410   6.232   2.945  0.00  0.00    -0.453 OA
ATOM     23  C   UNL     1       1.371   6.177   4.383  0.00  0.00    +0.466 C 
ATOM     24  O   UNL     1      -0.006   5.874   4.677  0.00  0.00    -0.453 OA
ENDBRANCH   4  16
BRANCH   3  25
ATOM     25  C   UNL     1      -0.038   1.204   0.052  0.00  0.00    +0.247 C 
ATOM     26  O   UNL     1       0.695   1.099  -0.915  0.00  0.00    -0.270 OA
ATOM     27  N   UNL     1       0.318   0.655   1.230  0.00  0.00    -0.279 N 
ATOM     28  H   UNL     1      -0.297   0.828   2.126  0.00  0.00    +0.155 HD
BRANCH  27  29
ATOM     29  C   UNL     1       1.471  -0.134   1.315  0.00  0.00    +0.069 A 
ATOM     30  C   UNL     1       1.958  -0.778   0.185  0.00  0.00    +0.026 A 
ATOM     31  C   UNL     1       3.099  -1.552   0.271  0.00  0.00    +0.002 A 
ATOM     32  C   UNL     1       3.752  -1.694   1.481  0.00  0.00    +0.003 A 
ATOM     33  C   UNL     1       3.268  -1.059   2.610  0.00  0.00    +0.040 A 
ATOM     34  C   UNL     1       2.129  -0.279   2.531  0.00  0.00    +0.144 A 
ATOM     35  F   UNL     1       1.656   0.342   3.634  0.00  0.00    -0.204 F 
ENDBRANCH  27  29
ENDBRANCH   3  25
TORSDOF 3
