REMARK  Name = ZINC13636714
REMARK  3 active torsions:
REMARK  status: ('A' for Active; 'I' for Inactive)
REMARK    1  A    between atoms: C_3  and  O_26
REMARK    2  A    between atoms: C_6  and  C_7
REMARK    3  A    between atoms: C_18  and  C_23
REMARK                            x       y       z     vdW  Elec       q    Type
REMARK                         _______ _______ _______ _____ _____    ______ ____
ROOT
ATOM      1  C   UNL     1      -0.359   3.066   1.473  0.00  0.00    +0.105 C 
ATOM      2  C   UNL     1      -0.432   1.559   1.210  0.00  0.00    +0.029 C 
ATOM      3  C   UNL     1       0.605   1.234   0.094  0.00  0.00    +0.033 C 
ATOM      4  C   UNL     1      -0.127   1.590  -1.185  0.00  0.00    -0.030 C 
ATOM      5  C   UNL     1      -1.423   1.580  -0.989  0.00  0.00    -0.023 C 
ATOM      6  C   UNL     1      -1.732   1.222   0.445  0.00  0.00    +0.049 C 
ATOM      7  C   UNL     1      -2.909   1.990   0.959  0.00  0.00    -0.019 A 
ATOM      8  C   UNL     1      -4.175   1.616   0.546  0.00  0.00    +0.019 A 
ATOM      9  C   UNL     1      -5.300   2.304   1.002  0.00  0.00    +0.037 A 
ATOM     10  C   UNL     1      -5.150   3.380   1.882  0.00  0.00    +0.015 A 
ATOM     11  C   UNL     1      -3.917   3.735   2.292  0.00  0.00    +0.024 A 
ATOM     12  C   UNL     1      -2.790   3.056   1.834  0.00  0.00    +0.031 A 
ATOM     13  N   UNL     1      -1.529   3.467   2.260  0.00  0.00    -0.336 N 
ATOM     14  H   UNL     1      -1.428   4.008   3.059  0.00  0.00    +0.147 HD
ENDROOT
BRANCH   1  20
ATOM     15  C   UNL     1       0.845   4.101  -0.461  0.00  0.00    +0.009 A 
ATOM     16  C   UNL     1       0.852   4.776  -1.666  0.00  0.00    +0.046 A 
ATOM     17  C   UNL     1      -0.345   5.170  -2.246  0.00  0.00    +0.117 A 
ATOM     18  C   UNL     1      -1.547   4.879  -1.617  0.00  0.00    +0.046 A 
ATOM     19  C   UNL     1      -1.549   4.199  -0.414  0.00  0.00    +0.009 A 
ATOM     20  C   UNL     1      -0.354   3.808   0.162  0.00  0.00    -0.027 A 
BRANCH  17  21
ATOM     21  O   UNL     1      -0.341   5.839  -3.429  0.00  0.00    -0.507 OA
ATOM     22  H   UNL     1      -0.297   6.800  -3.337  0.00  0.00    +0.292 HD
ENDBRANCH  17  21
ENDBRANCH   1  20
BRANCH   9  23
ATOM     23  C   UNL     1      -6.645   1.897   0.556  0.00  0.00    +0.242 C 
ATOM     24  O   UNL     1      -6.775   0.961  -0.210  0.00  0.00    -0.270 OA
ATOM     25  N   UNL     1      -7.731   2.562   0.997  0.00  0.00    -0.325 N 
ATOM     26  H   UNL     1      -7.628   3.308   1.607  0.00  0.00    +0.145 HD
ATOM     27  H   UNL     1      -8.616   2.294   0.703  0.00  0.00    +0.145 HD
ENDBRANCH   9  23
TORSDOF 3
