REMARK  Name = ZINC58045547
REMARK  10 active torsions:
REMARK  status: ('A' for Active; 'I' for Inactive)
REMARK    1  A    between atoms: C_1  and  C_2
REMARK    2  A    between atoms: C_2  and  C_4
REMARK    3  A    between atoms: C_2  and  N_13
REMARK    4  A    between atoms: C_8  and  N_10
REMARK    5  A    between atoms: N_13  and  C_14
REMARK    6  A    between atoms: N_17  and  C_18
REMARK    7  A    between atoms: C_23  and  C_24
REMARK    8  A    between atoms: C_24  and  N_25
REMARK    9  A    between atoms: N_25  and  C_26
REMARK   10  A    between atoms: N_25  and  C_27
REMARK                            x       y       z     vdW  Elec       q    Type
REMARK                         _______ _______ _______ _____ _____    ______ ____
ROOT
ATOM      1  N   UNL     1      -1.792  -0.149  -0.245  0.00  0.00    -0.282 N 
ATOM      2  C   UNL     1      -2.493  -0.270   1.036  0.00  0.00    +0.134 C 
ATOM      3  C   UNL     1      -2.127  -0.952  -1.274  0.00  0.00    +0.307 C 
ATOM      4  O   UNL     1      -1.545  -0.851  -2.337  0.00  0.00    -0.252 OA
ATOM      5  N   UNL     1      -3.106  -1.866  -1.126  0.00  0.00    -0.269 N 
ATOM      6  H   UNL     1      -3.526  -1.990  -0.260  0.00  0.00    +0.156 HD
ENDROOT
BRANCH   5   7
ATOM      7  C   UNL     1      -3.516  -2.636  -2.220  0.00  0.00    +0.036 A 
ATOM      8  C   UNL     1      -2.591  -3.033  -3.177  0.00  0.00    +0.023 A 
ATOM      9  C   UNL     1      -3.000  -3.793  -4.255  0.00  0.00    +0.002 A 
ATOM     10  C   UNL     1      -4.327  -4.159  -4.383  0.00  0.00    +0.000 A 
ATOM     11  C   UNL     1      -5.250  -3.764  -3.432  0.00  0.00    +0.003 A 
ATOM     12  C   UNL     1      -4.847  -3.009  -2.348  0.00  0.00    -0.043 A 
BRANCH  12  13
ATOM     13  C   UNL     1      -5.853  -2.585  -1.308  0.00  0.00    -0.041 C 
BRANCH  13  14
ATOM     14  N   UNL     1      -6.257  -1.195  -1.556  0.00  0.00    +0.382 N 
ATOM     15  C   UNL     1      -6.967  -1.114  -2.840  0.00  0.00    -0.095 C 
ATOM     16  H   UNL     1      -5.438  -0.607  -1.587  0.00  0.00    -0.081 HD
BRANCH  14  17
ATOM     17  C   UNL     1      -7.144  -0.743  -0.476  0.00  0.00    -0.069 C 
ATOM     18  C   UNL     1      -7.566   0.705  -0.735  0.00  0.00    -0.015 C 
ATOM     19  C   UNL     1      -8.490   1.176   0.390  0.00  0.00    -0.002 C 
ATOM     20  C   UNL     1      -7.750   1.091   1.727  0.00  0.00    -0.000 C 
ATOM     21  C   UNL     1      -7.329  -0.357   1.985  0.00  0.00    -0.002 C 
ATOM     22  C   UNL     1      -6.405  -0.828   0.861  0.00  0.00    -0.015 C 
ENDBRANCH  14  17
ENDBRANCH  13  14
ENDBRANCH  12  13
ENDBRANCH   5   7
BRANCH   1  24
ATOM     23  C   UNL     1      -1.264   2.231  -0.040  0.00  0.00    +0.033 C 
ATOM     24  C   UNL     1      -0.728   0.845  -0.406  0.00  0.00    +0.104 C 
BRANCH  24  25
ATOM     25  C   UNL     1       0.426   0.497   0.498  0.00  0.00    -0.025 A 
ATOM     26  C   UNL     1       0.684  -0.824   0.812  0.00  0.00    +0.005 A 
ATOM     27  C   UNL     1       1.743  -1.143   1.642  0.00  0.00    +0.003 A 
ATOM     28  C   UNL     1       2.543  -0.141   2.158  0.00  0.00    +0.033 A 
ATOM     29  C   UNL     1       2.285   1.180   1.844  0.00  0.00    +0.127 A 
ATOM     30  C   UNL     1       1.229   1.499   1.010  0.00  0.00    +0.038 A 
BRANCH  29  31
ATOM     31  N   UNL     1       3.141   2.253   2.397  0.00  0.00    +0.056 N 
ATOM     32  O   UNL     1       4.066   1.974   3.123  0.00  0.00    -0.126 OA
ATOM     33  O   UNL     1       2.916   3.409   2.122  0.00  0.00    -0.126 OA
ENDBRANCH  29  31
ENDBRANCH  24  25
ENDBRANCH   1  24
TORSDOF 7
