REMARK  Name = ZINC00930913
REMARK  9 active torsions:
REMARK  status: ('A' for Active; 'I' for Inactive)
REMARK    1  A    between atoms: C_1  and  C_2
REMARK    2  A    between atoms: C_2  and  C_4
REMARK    3  A    between atoms: C_7  and  N_10
REMARK    4  A    between atoms: N_10  and  C_11
REMARK    5  A    between atoms: C_11  and  C_13
REMARK    6  A    between atoms: C_11  and  C_20
REMARK    7  A    between atoms: C_16  and  O_19
REMARK    8  A    between atoms: N_22  and  C_23
REMARK    9  A    between atoms: C_29  and  C_31
REMARK                            x       y       z     vdW  Elec       q    Type
REMARK                         _______ _______ _______ _____ _____    ______ ____
ROOT
ATOM      1  N   UNL     1      -0.176   1.508  -0.466  0.00  0.00    -0.252 N 
ATOM      2  C   UNL     1      -0.041   0.220  -0.840  0.00  0.00    +0.265 C 
ATOM      3  O   UNL     1      -0.825  -0.613  -0.437  0.00  0.00    -0.271 OA
ENDROOT
BRANCH   2   4
ATOM      4  C   UNL     1       1.084  -0.184  -1.758  0.00  0.00    +0.296 C 
ATOM      5  C   UNL     1       0.833   0.380  -3.163  0.00  0.00    +0.283 C 
ATOM      6  O   UNL     1       1.910  -0.034  -4.011  0.00  0.00    -0.484 OA
ATOM      7  C   UNL     1       2.279  -1.343  -3.937  0.00  0.00    +0.162 A 
ATOM      8  C   UNL     1       3.045  -1.892  -4.955  0.00  0.00    +0.049 A 
ATOM      9  C   UNL     1       3.430  -3.218  -4.893  0.00  0.00    +0.004 A 
ATOM     10  C   UNL     1       3.052  -4.000  -3.817  0.00  0.00    +0.004 A 
ATOM     11  C   UNL     1       2.288  -3.459  -2.801  0.00  0.00    +0.049 A 
ATOM     12  C   UNL     1       1.897  -2.130  -2.857  0.00  0.00    +0.163 A 
ATOM     13  O   UNL     1       1.142  -1.612  -1.851  0.00  0.00    -0.472 OA
ENDBRANCH   2   4
BRANCH   1  17
ATOM     14  C   UNL     1       2.686   4.311  -1.590  0.00  0.00    +0.017 A 
ATOM     15  C   UNL     1       3.018   3.290  -0.691  0.00  0.00    +0.013 A 
ATOM     16  C   UNL     1       2.072   2.368  -0.324  0.00  0.00    +0.024 A 
ATOM     17  C   UNL     1       0.782   2.447  -0.843  0.00  0.00    +0.038 A 
ATOM     18  C   UNL     1       0.449   3.457  -1.741  0.00  0.00    +0.024 A 
ATOM     19  C   UNL     1       1.387   4.386  -2.110  0.00  0.00    +0.013 A 
BRANCH  14  21
ATOM     20  C   UNL     1       3.336   6.399  -2.953  0.00  0.00    +0.091 C 
ATOM     21  C   UNL     1       3.696   5.301  -1.986  0.00  0.00    +0.160 C 
ATOM     22  O   UNL     1       4.819   5.235  -1.534  0.00  0.00    -0.292 OA
ENDBRANCH  14  21
ENDBRANCH   1  17
BRANCH   1  23
ATOM     23  C   UNL     1      -1.333   1.922   0.330  0.00  0.00    +0.197 C 
BRANCH  23  24
ATOM     24  C   UNL     1      -1.333   3.422   0.475  0.00  0.00    -0.018 A 
ATOM     25  C   UNL     1      -0.230   4.064   1.006  0.00  0.00    +0.009 A 
ATOM     26  C   UNL     1      -0.224   5.439   1.135  0.00  0.00    +0.046 A 
ATOM     27  C   UNL     1      -1.332   6.176   0.741  0.00  0.00    +0.117 A 
ATOM     28  C   UNL     1      -2.440   5.529   0.213  0.00  0.00    +0.046 A 
ATOM     29  C   UNL     1      -2.438   4.154   0.081  0.00  0.00    +0.009 A 
BRANCH  27  30
ATOM     30  O   UNL     1      -1.331   7.529   0.871  0.00  0.00    -0.507 OA
ATOM     31  H   UNL     1      -1.672   7.842   1.720  0.00  0.00    +0.292 HD
ENDBRANCH  27  30
ENDBRANCH  23  24
BRANCH  23  32
ATOM     32  C   UNL     1      -1.258   1.286   1.694  0.00  0.00    +0.239 C 
ATOM     33  O   UNL     1      -0.329   0.558   1.973  0.00  0.00    -0.273 OA
ATOM     34  N   UNL     1      -2.223   1.526   2.604  0.00  0.00    -0.311 N 
ATOM     35  H   UNL     1      -2.966   2.108   2.381  0.00  0.00    +0.149 HD
BRANCH  34  36
ATOM     36  C   UNL     1      -2.150   0.907   3.930  0.00  0.00    +0.073 C 
ATOM     37  C   UNL     1      -2.757  -0.496   3.872  0.00  0.00    +0.022 C 
ATOM     38  C   UNL     1      -2.681  -1.142   5.257  0.00  0.00    +0.002 C 
ATOM     39  C   UNL     1      -3.460  -0.290   6.261  0.00  0.00    +0.000 C 
ATOM     40  C   UNL     1      -2.853   1.113   6.319  0.00  0.00    +0.002 C 
ATOM     41  C   UNL     1      -2.929   1.759   4.934  0.00  0.00    +0.022 C 
ENDBRANCH  34  36
ENDBRANCH  23  32
ENDBRANCH   1  23
TORSDOF 8
