REMARK  Name = ZINC53552120
REMARK  7 active torsions:
REMARK  status: ('A' for Active; 'I' for Inactive)
REMARK    1  A    between atoms: C_1  and  C_2
REMARK    2  A    between atoms: C_2  and  C_4
REMARK    3  A    between atoms: C_2  and  C_20
REMARK    4  A    between atoms: C_4  and  N_5
REMARK    5  A    between atoms: N_8  and  C_9
REMARK    6  A    between atoms: N_8  and  C_10
REMARK    7  A    between atoms: C_10  and  C_11
REMARK                            x       y       z     vdW  Elec       q    Type
REMARK                         _______ _______ _______ _____ _____    ______ ____
ROOT
ATOM      1  N   UNL     1      -0.008  -0.140   2.444  0.00  0.00    -0.299 N 
ATOM      2  C   UNL     1       0.457  -0.484   3.661  0.00  0.00    +0.302 C 
ATOM      3  O   UNL     1       1.499  -1.102   3.762  0.00  0.00    -0.253 OA
ATOM      4  N   UNL     1      -0.234  -0.143   4.767  0.00  0.00    -0.284 N 
ATOM      5  C   UNL     1      -1.489   0.602   4.646  0.00  0.00    +0.134 C 
ATOM      6  H   UNL     1      -0.840   0.353   2.364  0.00  0.00    +0.150 HD
ENDROOT
BRANCH   1   7
ATOM      7  C   UNL     1       0.742  -0.511   1.242  0.00  0.00    +0.113 C 
BRANCH   7   9
ATOM      8  C   UNL     1      -0.019   1.526   0.010  0.00  0.00    +0.014 C 
ATOM      9  C   UNL     1       0.002  -0.004   0.002  0.00  0.00    +0.033 C 
BRANCH   9  10
ATOM     10  C   UNL     1       0.707  -0.490  -1.238  0.00  0.00    -0.043 A 
ATOM     11  C   UNL     1       2.026  -0.142  -1.464  0.00  0.00    +0.004 A 
ATOM     12  C   UNL     1       2.673  -0.587  -2.602  0.00  0.00    +0.000 A 
ATOM     13  C   UNL     1       2.002  -1.382  -3.512  0.00  0.00    +0.000 A 
ATOM     14  C   UNL     1       0.684  -1.731  -3.285  0.00  0.00    +0.000 A 
ATOM     15  C   UNL     1       0.038  -1.289  -2.146  0.00  0.00    +0.004 A 
ENDBRANCH   9  10
ENDBRANCH   7   9
ENDBRANCH   1   7
BRANCH   4  16
ATOM     16  C   UNL     1       0.272  -0.517   6.091  0.00  0.00    +0.144 C 
BRANCH  16  17
ATOM     17  C   UNL     1       1.164   0.579   6.616  0.00  0.00    -0.026 A 
ATOM     18  C   UNL     1       2.518   0.556   6.340  0.00  0.00    +0.009 A 
ATOM     19  C   UNL     1       3.341   1.559   6.819  0.00  0.00    +0.050 A 
ATOM     20  C   UNL     1       2.808   2.589   7.577  0.00  0.00    +0.166 A 
ATOM     21  C   UNL     1       1.444   2.612   7.854  0.00  0.00    +0.167 A 
ATOM     22  C   UNL     1       0.625   1.607   7.366  0.00  0.00    +0.054 A 
ATOM     23  O   UNL     1       1.170   3.716   8.610  0.00  0.00    -0.453 OA
ATOM     24  C   UNL     1       2.440   4.147   9.134  0.00  0.00    +0.466 C 
ATOM     25  O   UNL     1       3.390   3.679   8.158  0.00  0.00    -0.453 OA
ENDBRANCH  16  17
ENDBRANCH   4  16
TORSDOF 5
