REMARK  Name = ZINC09705451
REMARK  6 active torsions:
REMARK  status: ('A' for Active; 'I' for Inactive)
REMARK    1  A    between atoms: C_4  and  N_7
REMARK    2  A    between atoms: C_8  and  C_10
REMARK    3  A    between atoms: C_11  and  N_19
REMARK    4  A    between atoms: C_20  and  C_22
REMARK    5  A    between atoms: N_24  and  C_25
REMARK    6  A    between atoms: C_25  and  C_26
REMARK                            x       y       z     vdW  Elec       q    Type
REMARK                         _______ _______ _______ _____ _____    ______ ____
ROOT
ATOM      1  C   UNL     1       0.278  -2.880  -0.647  0.00  0.00    +0.212 A 
ATOM      2  C   UNL     1       1.302  -2.013  -0.380  0.00  0.00    +0.093 A 
ATOM      3  C   UNL     1       2.461  -2.852  -0.048  0.00  0.00    +0.042 A 
ATOM      4  C   UNL     1       3.780  -2.584   0.320  0.00  0.00    +0.013 A 
ATOM      5  C   UNL     1       4.635  -3.618   0.579  0.00  0.00    +0.001 A 
ATOM      6  C   UNL     1       4.198  -4.932   0.483  0.00  0.00    +0.004 A 
ATOM      7  C   UNL     1       2.898  -5.217   0.127  0.00  0.00    +0.047 A 
ATOM      8  C   UNL     1       2.010  -4.180  -0.141  0.00  0.00    +0.138 A 
ATOM      9  O   UNL     1       0.712  -4.151  -0.502  0.00  0.00    -0.448 OA
ENDROOT
BRANCH   1  11
ATOM     10  N   UNL     1      -2.046  -3.423  -1.127  0.00  0.00    -0.279 N 
ATOM     11  C   UNL     1      -1.078  -2.490  -1.032  0.00  0.00    +0.285 C 
ATOM     12  O   UNL     1      -1.332  -1.323  -1.267  0.00  0.00    -0.266 OA
ATOM     13  H   UNL     1      -1.828  -4.362  -1.017  0.00  0.00    +0.155 HD
BRANCH  10  17
ATOM     14  C   UNL     1      -5.976  -2.276  -1.892  0.00  0.00    +0.000 A 
ATOM     15  C   UNL     1      -5.500  -3.476  -2.386  0.00  0.00    +0.002 A 
ATOM     16  C   UNL     1      -4.197  -3.860  -2.134  0.00  0.00    +0.023 A 
ATOM     17  C   UNL     1      -3.365  -3.038  -1.384  0.00  0.00    +0.034 A 
ATOM     18  C   UNL     1      -3.849  -1.835  -0.885  0.00  0.00    +0.023 A 
ATOM     19  C   UNL     1      -5.151  -1.455  -1.145  0.00  0.00    +0.002 A 
ENDBRANCH  10  17
ENDBRANCH   1  11
BRANCH   2  20
ATOM     20  N   UNL     1       1.258  -0.626  -0.419  0.00  0.00    -0.274 N 
ATOM     21  C   UNL     1       2.091   0.097   0.354  0.00  0.00    +0.303 C 
ATOM     22  O   UNL     1       2.830  -0.462   1.138  0.00  0.00    -0.265 OA
ATOM     23  H   UNL     1       0.627  -0.178  -1.004  0.00  0.00    +0.155 HD
BRANCH  21  24
ATOM     24  C   UNL     1       2.104   1.587   0.248  0.00  0.00    +0.299 C 
ATOM     25  O   UNL     1       1.365   2.146  -0.536  0.00  0.00    -0.265 OA
ATOM     26  N   UNL     1       2.933   2.311   1.026  0.00  0.00    -0.307 N 
ATOM     27  H   UNL     1       3.521   1.864   1.655  0.00  0.00    +0.149 HD
BRANCH  26  28
ATOM     28  C   UNL     1       2.946   3.772   0.921  0.00  0.00    +0.116 C 
BRANCH  28  29
ATOM     29  C   UNL     1       3.968   4.344   1.906  0.00  0.00    +0.098 C 
ATOM     30 BR   UNL     1       3.985   6.305   1.765  0.00  0.00    -0.090 Br
ENDBRANCH  28  29
ENDBRANCH  26  28
ENDBRANCH  21  24
ENDBRANCH   2  20
TORSDOF 6
