REMARK  Name = ZINC39959060
REMARK  5 active torsions:
REMARK  status: ('A' for Active; 'I' for Inactive)
REMARK    1  A    between atoms: C_4  and  C_7
REMARK    2  A    between atoms: C_11  and  C_13
REMARK    3  A    between atoms: C_25  and  S_28
REMARK    4  A    between atoms: S_28  and  C_29
REMARK    5  A    between atoms: C_29  and  C_30
REMARK                            x       y       z     vdW  Elec       q    Type
REMARK                         _______ _______ _______ _____ _____    ______ ____
ROOT
ATOM      1  C   UNL     1       3.291  -2.803  -1.304  0.00  0.00    +0.276 C 
ATOM      2  N   UNL     1       3.492  -4.249  -1.265  0.00  0.00    -0.308 N 
ATOM      3  C   UNL     1       4.758  -4.761  -1.567  0.00  0.00    +0.039 A 
ATOM      4  C   UNL     1       5.545  -5.354  -0.599  0.00  0.00    +0.023 A 
ATOM      5  C   UNL     1       6.798  -5.837  -0.930  0.00  0.00    +0.002 A 
ATOM      6  C   UNL     1       7.270  -5.729  -2.227  0.00  0.00    +0.001 A 
ATOM      7  C   UNL     1       6.493  -5.144  -3.207  0.00  0.00    +0.012 A 
ATOM      8  C   UNL     1       5.229  -4.661  -2.890  0.00  0.00    +0.028 A 
ATOM      9  C   UNL     1       4.351  -4.058  -3.914  0.00  0.00    +0.156 A 
ATOM     10  C   UNL     1       3.698  -2.835  -3.642  0.00  0.00    +0.248 A 
ATOM     11  N   UNL     1       2.909  -2.316  -4.568  0.00  0.00    -0.184 NA
ATOM     12  C   UNL     1       2.758  -2.954  -5.725  0.00  0.00    +0.213 A 
ATOM     13  N   UNL     1       3.384  -4.099  -5.963  0.00  0.00    -0.122 NA
ATOM     14  N   UNL     1       4.159  -4.641  -5.088  0.00  0.00    -0.141 NA
ATOM     15  O   UNL     1       3.894  -2.218  -2.453  0.00  0.00    -0.452 OA
ATOM     16  H   UNL     1       2.761  -4.843  -1.033  0.00  0.00    +0.150 HD
ENDROOT
BRANCH   1  21
ATOM     17  C   UNL     1       3.691  -0.680  -0.038  0.00  0.00    +0.084 C 
ATOM     18  N   UNL     1       4.884  -0.152  -0.042  0.00  0.00    -0.153 NA
ATOM     19  N   UNL     1       5.886  -1.118  -0.059  0.00  0.00    -0.161 NA
ATOM     20  C   UNL     1       5.413  -2.321  -0.067  0.00  0.00    +0.122 C 
ATOM     21  C   UNL     1       3.904  -2.181  -0.048  0.00  0.00    +0.142 C 
BRANCH  17  25
ATOM     22  C   UNL     1      -0.017   1.380   0.010  0.00  0.00    +0.000 A 
ATOM     23  C   UNL     1       1.168   2.095   0.002  0.00  0.00    +0.001 A 
ATOM     24  C   UNL     1       2.377   1.433  -0.013  0.00  0.00    +0.010 A 
ATOM     25  C   UNL     1       2.405   0.035  -0.021  0.00  0.00    -0.001 A 
ATOM     26  C   UNL     1       1.203  -0.681  -0.013  0.00  0.00    +0.010 A 
ATOM     27  C   UNL     1       0.002  -0.004   0.002  0.00  0.00    +0.001 A 
ENDBRANCH  17  25
ENDBRANCH   1  21
BRANCH  12  28
ATOM     28  S   UNL     1       1.707  -2.268  -6.962  0.00  0.00    -0.080 S 
BRANCH  28  29
ATOM     29  C   UNL     1       1.808  -3.454  -8.331  0.00  0.00    +0.114 C 
BRANCH  29  30
ATOM     30  C   UNL     1       0.943  -2.981  -9.470  0.00  0.00    -0.019 A 
ATOM     31  C   UNL     1      -0.385  -3.362  -9.536  0.00  0.00    +0.006 A 
ATOM     32  C   UNL     1      -1.178  -2.927 -10.581  0.00  0.00    +0.000 A 
ATOM     33  C   UNL     1      -0.645  -2.112 -11.562  0.00  0.00    +0.001 A 
ATOM     34  C   UNL     1       0.682  -1.730 -11.497  0.00  0.00    +0.020 A 
ATOM     35  C   UNL     1       1.475  -2.160 -10.448  0.00  0.00    +0.045 A 
ATOM     36 CL   UNL     1       3.140  -1.675 -10.363  0.00  0.00    -0.083 Cl
ENDBRANCH  29  30
ENDBRANCH  28  29
ENDBRANCH  12  28
TORSDOF 5
