REMARK  Name = ZINC33052006
REMARK  8 active torsions:
REMARK  status: ('A' for Active; 'I' for Inactive)
REMARK    1  A    between atoms: C_1  and  C_2
REMARK    2  A    between atoms: C_2  and  C_3
REMARK    3  A    between atoms: C_6  and  C_9
REMARK    4  A    between atoms: C_18  and  C_27
REMARK    5  A    between atoms: N_20  and  C_21
REMARK    6  A    between atoms: N_32  and  C_33
REMARK    7  A    between atoms: C_33  and  C_34
REMARK    8  A    between atoms: C_34  and  C_35
REMARK                            x       y       z     vdW  Elec       q    Type
REMARK                         _______ _______ _______ _____ _____    ______ ____
ROOT
ATOM      1  C   UNL     1      -1.030   7.503  -3.150  0.00  0.00    +0.155 C 
ATOM      2  C   UNL     1      -2.001   6.560  -2.502  0.00  0.00    +0.050 A 
ATOM      3  C   UNL     1      -3.129   6.035  -3.006  0.00  0.00    +0.025 A 
ATOM      4  C   UNL     1      -3.640   5.132  -2.048  0.00  0.00    +0.020 A 
ATOM      5  C   UNL     1      -2.807   5.153  -0.983  0.00  0.00    +0.093 A 
ATOM      6  N   UNL     1      -1.823   6.044  -1.243  0.00  0.00    -0.303 N 
ATOM      7  C   UNL     1      -0.759   6.486  -0.448  0.00  0.00    +0.146 A 
ATOM      8  C   UNL     1      -0.439   7.812  -0.389  0.00  0.00    +0.035 A 
ATOM      9  C   UNL     1       0.705   7.933   0.394  0.00  0.00    +0.067 A 
ATOM     10  N   UNL     1       1.044   6.738   0.819  0.00  0.00    -0.169 NA
ATOM     11  N   UNL     1       0.126   5.807   0.306  0.00  0.00    -0.215 N 
ATOM     12  C   UNL     1       1.427   9.218   0.708  0.00  0.00    +0.068 C 
ATOM     13  C   UNL     1      -1.245   8.885  -1.059  0.00  0.00    +0.151 C 
ATOM     14  N   UNL     1      -1.084   8.848  -2.533  0.00  0.00    -0.269 N 
ATOM     15  C   UNL     1      -0.992   9.974  -3.268  0.00  0.00    +0.303 C 
ATOM     16  O   UNL     1      -0.861   9.903  -4.474  0.00  0.00    -0.253 OA
ATOM     17  N   UNL     1      -1.046  11.178  -2.666  0.00  0.00    -0.299 N 
ATOM     18  H   UNL     1      -1.165  11.243  -1.574  0.00  0.00    +0.150 HD
ENDROOT
BRANCH   1  22
ATOM     19  C   UNL     1       2.923   5.936  -2.738  0.00  0.00    -0.048 A 
ATOM     20  C   UNL     1       1.872   5.090  -3.039  0.00  0.00    +0.004 A 
ATOM     21  C   UNL     1       0.593   5.597  -3.172  0.00  0.00    +0.006 A 
ATOM     22  C   UNL     1       0.365   6.950  -3.004  0.00  0.00    -0.021 A 
ATOM     23  C   UNL     1       1.417   7.797  -2.709  0.00  0.00    +0.006 A 
ATOM     24  C   UNL     1       2.695   7.290  -2.571  0.00  0.00    +0.004 A 
BRANCH  19  26
ATOM     25  C   UNL     1       5.020   5.410  -3.953  0.00  0.00    +0.009 C 
ATOM     26  C   UNL     1       4.317   5.384  -2.594  0.00  0.00    +0.032 C 
ENDBRANCH  19  26
ENDBRANCH   1  22
BRANCH  11  27
ATOM     27  C   UNL     1       0.127   4.425   0.541  0.00  0.00    +0.068 A 
ATOM     28  C   UNL     1      -0.152   3.543  -0.495  0.00  0.00    +0.028 A 
ATOM     29  C   UNL     1      -0.149   2.182  -0.261  0.00  0.00    +0.002 A 
ATOM     30  C   UNL     1       0.131   1.697   1.004  0.00  0.00    +0.000 A 
ATOM     31  C   UNL     1       0.404   2.573   2.038  0.00  0.00    +0.002 A 
ATOM     32  C   UNL     1       0.408   3.935   1.809  0.00  0.00    +0.028 A 
ENDBRANCH  11  27
BRANCH  17  33
ATOM     33  C   UNL     1      -0.947  12.402  -3.465  0.00  0.00    +0.110 C 
BRANCH  33  34
ATOM     34  C   UNL     1      -1.035  13.621  -2.544  0.00  0.00    +0.054 C 
BRANCH  34  35
ATOM     35  C   UNL     1      -0.933  14.880  -3.366  0.00  0.00    -0.046 A 
ATOM     36  C   UNL     1       0.304  15.449  -3.609  0.00  0.00    +0.004 A 
ATOM     37  C   UNL     1       0.398  16.601  -4.367  0.00  0.00    +0.000 A 
ATOM     38  C   UNL     1      -0.745  17.190  -4.874  0.00  0.00    +0.000 A 
ATOM     39  C   UNL     1      -1.982  16.624  -4.628  0.00  0.00    +0.000 A 
ATOM     40  C   UNL     1      -2.075  15.469  -3.874  0.00  0.00    +0.004 A 
ENDBRANCH  34  35
ENDBRANCH  33  34
ENDBRANCH  17  33
TORSDOF 6
