REMARK  Name = ZINC01807339
REMARK  7 active torsions:
REMARK  status: ('A' for Active; 'I' for Inactive)
REMARK    1  A    between atoms: C_4  and  C_7
REMARK    2  A    between atoms: C_9  and  C_34
REMARK    3  A    between atoms: N_10  and  C_19
REMARK    4  A    between atoms: C_11  and  C_13
REMARK    5  A    between atoms: C_19  and  C_20
REMARK    6  A    between atoms: C_20  and  C_21
REMARK    7  A    between atoms: C_28  and  N_31
REMARK                            x       y       z     vdW  Elec       q    Type
REMARK                         _______ _______ _______ _____ _____    ______ ____
ROOT
ATOM      1  C   UNL     1      -3.577   2.075   1.152  0.00  0.00    -0.014 A 
ATOM      2  C   UNL     1      -2.680   1.292   0.422  0.00  0.00    +0.035 A 
ATOM      3  C   UNL     1      -1.901   1.894  -0.562  0.00  0.00    +0.050 A 
ATOM      4  N   UNL     1      -1.996   3.195  -0.802  0.00  0.00    -0.339 N 
ATOM      5  C   UNL     1      -2.832   3.970  -0.126  0.00  0.00    +0.050 A 
ATOM      6  C   UNL     1      -3.648   3.441   0.870  0.00  0.00    +0.035 A 
ENDROOT
BRANCH   1  10
ATOM      7  C   UNL     1      -6.011   0.348   4.181  0.00  0.00    +0.000 A 
ATOM      8  C   UNL     1      -5.138  -0.448   3.462  0.00  0.00    +0.001 A 
ATOM      9  C   UNL     1      -4.347   0.107   2.476  0.00  0.00    +0.008 A 
ATOM     10  C   UNL     1      -4.429   1.472   2.206  0.00  0.00    -0.018 A 
ATOM     11  C   UNL     1      -5.311   2.268   2.934  0.00  0.00    +0.008 A 
ATOM     12  C   UNL     1      -6.098   1.703   3.917  0.00  0.00    +0.001 A 
ENDBRANCH   1  10
BRANCH   5  13
ATOM     13  C   UNL     1      -2.900   5.420  -0.435  0.00  0.00    -0.001 A 
ATOM     14  C   UNL     1      -1.768   6.090  -0.896  0.00  0.00    +0.010 A 
ATOM     15  C   UNL     1      -1.838   7.437  -1.188  0.00  0.00    +0.001 A 
ATOM     16  C   UNL     1      -3.025   8.125  -1.012  0.00  0.00    +0.000 A 
ATOM     17  C   UNL     1      -4.150   7.466  -0.549  0.00  0.00    +0.001 A 
ATOM     18  C   UNL     1      -4.093   6.118  -0.260  0.00  0.00    +0.010 A 
ENDBRANCH   5  13
BRANCH   3  19
ATOM     19  C   UNL     1      -0.949   1.071  -1.348  0.00  0.00    -0.001 A 
ATOM     20  C   UNL     1       0.174   1.661  -1.925  0.00  0.00    +0.010 A 
ATOM     21  C   UNL     1       1.060   0.889  -2.649  0.00  0.00    +0.001 A 
ATOM     22  C   UNL     1       0.828  -0.465  -2.814  0.00  0.00    +0.000 A 
ATOM     23  C   UNL     1      -0.289  -1.054  -2.248  0.00  0.00    +0.001 A 
ATOM     24  C   UNL     1      -1.178  -0.293  -1.516  0.00  0.00    +0.010 A 
ENDBRANCH   3  19
BRANCH   4  25
ATOM     25  C   UNL     1      -1.155   3.790  -1.843  0.00  0.00    +0.127 C 
BRANCH  25  26
ATOM     26  C   UNL     1       0.207   4.157  -1.250  0.00  0.00    +0.059 C 
BRANCH  26  27
ATOM     27  C   UNL     1       1.158   4.521  -2.361  0.00  0.00    -0.021 A 
ATOM     28  C   UNL     1       1.970   3.683  -3.024  0.00  0.00    +0.087 A 
ATOM     29  N   UNL     1       2.685   4.373  -3.964  0.00  0.00    -0.360 N 
ATOM     30  H   UNL     1       3.337   3.982  -4.567  0.00  0.00    +0.165 HD
ATOM     31  C   UNL     1       2.342   5.706  -3.929  0.00  0.00    +0.047 A 
ATOM     32  C   UNL     1       1.365   5.856  -2.927  0.00  0.00    +0.005 A 
ATOM     33  C   UNL     1       0.831   7.118  -2.659  0.00  0.00    +0.043 A 
ATOM     34  C   UNL     1       1.250   8.200  -3.380  0.00  0.00    +0.127 A 
ATOM     35  C   UNL     1       2.209   8.056  -4.374  0.00  0.00    +0.035 A 
ATOM     36  C   UNL     1       2.754   6.821  -4.651  0.00  0.00    +0.028 A 
BRANCH  34  37
ATOM     37  N   UNL     1       0.678   9.536  -3.100  0.00  0.00    +0.056 N 
ATOM     38  O   UNL     1       1.048  10.504  -3.741  0.00  0.00    -0.126 OA
ATOM     39  O   UNL     1      -0.163   9.668  -2.229  0.00  0.00    -0.126 OA
ENDBRANCH  34  37
ENDBRANCH  26  27
ENDBRANCH  25  26
ENDBRANCH   4  25
TORSDOF 7
