REMARK  Name = ZINC12301378
REMARK  6 active torsions:
REMARK  status: ('A' for Active; 'I' for Inactive)
REMARK    1  A    between atoms: C_1  and  C_2
REMARK    2  A    between atoms: C_3  and  C_9
REMARK    3  A    between atoms: N_5  and  C_7
REMARK    4  A    between atoms: C_9  and  N_57
REMARK    5  A    between atoms: C_22  and  C_24
REMARK    6  A    between atoms: N_32  and  C_33
REMARK                            x       y       z     vdW  Elec       q    Type
REMARK                         _______ _______ _______ _____ _____    ______ ____
ROOT
ATOM      1  C   UNL     1      -2.063   1.308   2.091  0.00  0.00    -0.072 C 
ATOM      2  C   UNL     1      -2.090   1.547   3.607  0.00  0.00    +0.019 C 
ATOM      3  C   UNL     1      -2.848   2.825   3.864  0.00  0.00    -0.022 A 
ATOM      4  C   UNL     1      -3.413   3.322   5.099  0.00  0.00    +0.003 A 
ATOM      5  C   UNL     1      -3.443   2.817   6.402  0.00  0.00    +0.010 A 
ATOM      6  C   UNL     1      -4.086   3.576   7.348  0.00  0.00    +0.001 A 
ATOM      7  C   UNL     1      -4.680   4.789   7.039  0.00  0.00    +0.002 A 
ATOM      8  C   UNL     1      -4.665   5.313   5.758  0.00  0.00    +0.026 A 
ATOM      9  C   UNL     1      -4.019   4.564   4.777  0.00  0.00    +0.047 A 
ATOM     10  N   UNL     1      -3.822   4.780   3.443  0.00  0.00    -0.359 N 
ATOM     11  H   UNL     1      -4.132   5.557   2.952  0.00  0.00    +0.166 HD
ATOM     12  C   UNL     1      -3.120   3.737   2.904  0.00  0.00    +0.014 A 
ATOM     13  C   UNL     1      -2.687   3.573   1.466  0.00  0.00    +0.047 C 
ATOM     14  N   UNL     1      -1.614   2.551   1.423  0.00  0.00    +0.393 N 
ATOM     15  H   UNL     1      -0.790   2.913   1.916  0.00  0.00    -0.080 HD
ENDROOT
BRANCH  13  16
ATOM     16  C   UNL     1      -2.139   4.878   0.950  0.00  0.00    +0.103 A 
ATOM     17  N   UNL     1      -0.982   5.379   1.269  0.00  0.00    -0.234 NA
ATOM     18  C   UNL     1      -0.803   6.562   0.627  0.00  0.00    +0.089 A 
ATOM     19  C   UNL     1       0.232   7.501   0.606  0.00  0.00    +0.030 A 
ATOM     20  C   UNL     1       0.115   8.625  -0.161  0.00  0.00    +0.002 A 
ATOM     21  C   UNL     1      -1.024   8.849  -0.921  0.00  0.00    +0.002 A 
ATOM     22  C   UNL     1      -2.058   7.937  -0.915  0.00  0.00    +0.028 A 
ATOM     23  C   UNL     1      -1.957   6.788  -0.143  0.00  0.00    +0.069 A 
ATOM     24  N   UNL     1      -2.781   5.702   0.078  0.00  0.00    -0.332 N 
ATOM     25  C   UNL     1      -4.103   5.481  -0.514  0.00  0.00    +0.150 C 
ENDBRANCH  13  16
BRANCH  14  26
ATOM     26  C   UNL     1      -1.247   2.265   0.021  0.00  0.00    -0.037 C 
BRANCH  26  29
ATOM     27  C   UNL     1      -1.207  -0.904   0.009  0.00  0.00    +0.068 C 
ATOM     28  C   UNL     1       0.002  -0.004   0.002  0.00  0.00    +0.063 A 
ATOM     29  C   UNL     1      -0.017   1.394   0.010  0.00  0.00    -0.005 A 
ATOM     30  C   UNL     1       1.266   1.828  -0.000  0.00  0.00    +0.128 A 
ATOM     31  N   UNL     1       2.067   0.742  -0.014  0.00  0.00    -0.256 N 
ATOM     32  N   UNL     1       1.250  -0.396  -0.012  0.00  0.00    -0.175 NA
ATOM     33  C   UNL     1       3.532   0.751  -0.028  0.00  0.00    +0.174 C 
ATOM     34 CL   UNL     1       1.787   3.484   0.003  0.00  0.00    -0.062 Cl
ENDBRANCH  26  29
ENDBRANCH  14  26
TORSDOF 3
