REMARK  Name = ZINC21257392
REMARK  8 active torsions:
REMARK  status: ('A' for Active; 'I' for Inactive)
REMARK    1  A    between atoms: C_1  and  C_2
REMARK    2  A    between atoms: C_2  and  O_3
REMARK    3  A    between atoms: O_3  and  C_4
REMARK    4  A    between atoms: C_7  and  C_10
REMARK    5  A    between atoms: C_15  and  C_25
REMARK    6  A    between atoms: C_28  and  O_31
REMARK    7  A    between atoms: O_31  and  C_32
REMARK    8  A    between atoms: C_32  and  C_33
REMARK                            x       y       z     vdW  Elec       q    Type
REMARK                         _______ _______ _______ _____ _____    ______ ____
ROOT
ATOM      1  C   UNL     1      -6.214  -6.037   1.118  0.00  0.00    +0.032 C 
ATOM      2  C   UNL     1      -7.595  -5.730   0.542  0.00  0.00    +0.059 C 
ATOM      3  C   UNL     1      -7.922  -4.258   0.732  0.00  0.00    +0.017 C 
ATOM      4  C   UNL     1      -7.453  -3.587   1.799  0.00  0.00    +0.036 C 
ATOM      5  C   UNL     1      -7.710  -2.133   2.112  0.00  0.00    +0.136 C 
ATOM      6  N   UNL     1      -8.742  -1.516   1.306  0.00  0.00    -0.331 N 
ATOM      7  C   UNL     1      -8.581  -1.361  -0.070  0.00  0.00    +0.049 A 
ATOM      8  C   UNL     1      -8.440  -0.108  -0.644  0.00  0.00    +0.025 A 
ATOM      9  C   UNL     1      -8.168  -0.007  -1.997  0.00  0.00    +0.002 A 
ATOM     10  C   UNL     1      -8.037  -1.146  -2.772  0.00  0.00    +0.002 A 
ATOM     11  C   UNL     1      -8.199  -2.398  -2.204  0.00  0.00    +0.025 A 
ATOM     12  C   UNL     1      -8.490  -2.500  -0.855  0.00  0.00    +0.052 A 
ATOM     13  N   UNL     1      -8.713  -3.721  -0.231  0.00  0.00    -0.316 N 
ATOM     14  C   UNL     1      -6.636  -4.243   2.749  0.00  0.00    +0.163 C 
ATOM     15  O   UNL     1      -6.240  -3.617   3.714  0.00  0.00    -0.292 OA
ATOM     16  C   UNL     1      -6.240  -5.682   2.609  0.00  0.00    +0.088 C 
ATOM     17  H   UNL     1      -9.671  -1.162   1.778  0.00  0.00    +0.147 HD
ATOM     18  H   UNL     1      -9.608  -4.262  -0.573  0.00  0.00    +0.152 HD
ENDROOT
BRANCH   1  22
ATOM     19  C   UNL     1      -5.332 -10.190   0.629  0.00  0.00    +0.121 A 
ATOM     20  C   UNL     1      -4.513  -9.233   0.048  0.00  0.00    +0.046 A 
ATOM     21  C   UNL     1      -4.800  -7.891   0.208  0.00  0.00    +0.007 A 
ATOM     22  C   UNL     1      -5.903  -7.502   0.945  0.00  0.00    -0.043 A 
ATOM     23  C   UNL     1      -6.718  -8.454   1.530  0.00  0.00    +0.007 A 
ATOM     24  C   UNL     1      -6.438  -9.797   1.369  0.00  0.00    +0.046 A 
BRANCH  19  25
ATOM     25  O   UNL     1      -5.052 -11.511   0.473  0.00  0.00    -0.492 OA
BRANCH  25  27
ATOM     26  C   UNL     1      -5.465 -13.867   0.815  0.00  0.00    +0.048 C 
ATOM     27  C   UNL     1      -5.939 -12.440   1.099  0.00  0.00    +0.225 C 
ENDBRANCH  25  27
ENDBRANCH  19  25
ENDBRANCH   1  22
BRANCH   5  28
ATOM     28  C   UNL     1      -6.428  -1.367   1.913  0.00  0.00    -0.023 A 
ATOM     29  C   UNL     1      -5.853  -1.299   0.657  0.00  0.00    +0.009 A 
ATOM     30  C   UNL     1      -4.677  -0.598   0.472  0.00  0.00    +0.046 A 
ATOM     31  C   UNL     1      -4.073   0.038   1.547  0.00  0.00    +0.121 A 
ATOM     32  C   UNL     1      -4.649  -0.037   2.807  0.00  0.00    +0.046 A 
ATOM     33  C   UNL     1      -5.827  -0.735   2.986  0.00  0.00    +0.009 A 
BRANCH  31  34
ATOM     34  O   UNL     1      -2.917   0.729   1.367  0.00  0.00    -0.487 OA
BRANCH  34  35
ATOM     35  C   UNL     1      -2.351   1.358   2.519  0.00  0.00    +0.264 C 
BRANCH  35  36
ATOM     36  C   UNL     1      -1.081   2.070   2.129  0.00  0.00    -0.010 A 
ATOM     37  C   UNL     1      -1.128   3.389   1.717  0.00  0.00    +0.007 A 
ATOM     38  C   UNL     1       0.037   4.044   1.365  0.00  0.00    +0.000 A 
ATOM     39  C   UNL     1       1.248   3.379   1.420  0.00  0.00    +0.000 A 
ATOM     40  C   UNL     1       1.294   2.059   1.827  0.00  0.00    +0.000 A 
ATOM     41  C   UNL     1       0.129   1.404   2.179  0.00  0.00    +0.007 A 
ENDBRANCH  35  36
ENDBRANCH  34  35
ENDBRANCH  31  34
ENDBRANCH   5  28
TORSDOF 7
