REMARK  Name = ZINC41353833
REMARK  3 active torsions:
REMARK  status: ('A' for Active; 'I' for Inactive)
REMARK    1  A    between atoms: C_5  and  C_7
REMARK    2  A    between atoms: C_13  and  N_18
REMARK    3  A    between atoms: C_19  and  C_21
REMARK                            x       y       z     vdW  Elec       q    Type
REMARK                         _______ _______ _______ _____ _____    ______ ____
ROOT
ATOM      1  C   UNL     1       1.267  -2.163  -0.051  0.00  0.00    +0.142 A 
ATOM      2  C   UNL     1       2.466  -2.797  -0.163  0.00  0.00    +0.098 A 
ATOM      3  C   UNL     1       2.508  -4.210  -0.167  0.00  0.00    +0.193 A 
ATOM      4  O   UNL     1       3.565  -4.813  -0.264  0.00  0.00    -0.287 OA
ATOM      5  C   UNL     1       1.223  -4.928  -0.047  0.00  0.00    +0.066 A 
ATOM      6  C   UNL     1       1.171  -6.321  -0.042  0.00  0.00    +0.038 A 
ATOM      7  C   UNL     1      -0.054  -6.956   0.072  0.00  0.00    +0.035 A 
ATOM      8  C   UNL     1      -1.223  -6.207   0.181  0.00  0.00    +0.027 A 
ATOM      9  C   UNL     1      -1.177  -4.830   0.175  0.00  0.00    +0.049 A 
ATOM     10  C   UNL     1       0.044  -4.175   0.062  0.00  0.00    +0.139 A 
ATOM     11  O   UNL     1       0.107  -2.827   0.062  0.00  0.00    -0.455 OA
ENDROOT
BRANCH   1  16
ATOM     12  C   UNL     1       2.410   1.413  -0.048  0.00  0.00    +0.001 A 
ATOM     13  C   UNL     1       1.199   2.084  -0.043  0.00  0.00    +0.003 A 
ATOM     14  C   UNL     1       0.009   1.379  -0.040  0.00  0.00    +0.039 A 
ATOM     15  C   UNL     1       0.022  -0.004  -0.043  0.00  0.00    +0.134 A 
ATOM     16  C   UNL     1       1.243  -0.687  -0.049  0.00  0.00    +0.053 A 
ATOM     17  C   UNL     1       2.439   0.034  -0.051  0.00  0.00    +0.014 A 
ATOM     18  F   UNL     1      -1.140  -0.693  -0.039  0.00  0.00    -0.205 F 
ENDBRANCH   1  16
BRANCH   7  19
ATOM     19  N   UNL     1      -0.117  -8.354   0.078  0.00  0.00    -0.279 N 
ATOM     20  C   UNL     1       0.868  -9.071   0.655  0.00  0.00    +0.284 C 
ATOM     21  O   UNL     1       1.761  -8.504   1.255  0.00  0.00    -0.266 OA
ATOM     22  H   UNL     1      -0.870  -8.807  -0.334  0.00  0.00    +0.155 HD
BRANCH  20  23
ATOM     23  C   UNL     1       0.862 -10.537   0.559  0.00  0.00    +0.191 A 
ATOM     24  C   UNL     1       1.796 -11.360   1.103  0.00  0.00    +0.063 A 
ATOM     25  C   UNL     1       1.389 -12.721   0.757  0.00  0.00    +0.022 A 
ATOM     26  C   UNL     1       1.915 -13.990   1.013  0.00  0.00    +0.027 A 
ATOM     27  C   UNL     1       1.274 -15.098   0.534  0.00  0.00    +0.019 A 
ATOM     28  C   UNL     1       0.105 -14.970  -0.205  0.00  0.00    +0.019 A 
ATOM     29  C   UNL     1      -0.429 -13.727  -0.469  0.00  0.00    +0.048 A 
ATOM     30  C   UNL     1       0.204 -12.586   0.009  0.00  0.00    +0.136 A 
ATOM     31  O   UNL     1      -0.074 -11.270  -0.079  0.00  0.00    -0.450 OA
ATOM     32 BR   UNL     1       1.984 -16.816   0.879  0.00  0.00    -0.050 Br
ENDBRANCH  20  23
ENDBRANCH   7  19
TORSDOF 3
