REMARK  Name = ZINC27662671
REMARK  6 active torsions:
REMARK  status: ('A' for Active; 'I' for Inactive)
REMARK    1  A    between atoms: C_1  and  C_2
REMARK    2  A    between atoms: C_10  and  C_11
REMARK    3  A    between atoms: N_13  and  C_14
REMARK    4  A    between atoms: C_14  and  C_15
REMARK    5  A    between atoms: C_15  and  C_17
REMARK    6  A    between atoms: C_15  and  N_22
REMARK                            x       y       z     vdW  Elec       q    Type
REMARK                         _______ _______ _______ _____ _____    ______ ____
ROOT
ATOM      1  C   UNL     1       1.244   1.761   1.193  0.00  0.00    +0.280 C 
ATOM      2  O   UNL     1       2.044   1.036   1.754  0.00  0.00    -0.267 OA
ATOM      3  N   UNL     1       0.132   1.238   0.639  0.00  0.00    -0.310 N 
ATOM      4  H   UNL     1      -0.591   1.894   0.133  0.00  0.00    +0.149 HD
ENDROOT
BRANCH   1  14
ATOM      5  C   UNL     1       3.716   3.217   2.394  0.00  0.00    +0.048 C 
ATOM      6  C   UNL     1       2.569   3.845   1.643  0.00  0.00    +0.008 A 
ATOM      7  C   UNL     1       2.395   5.263   1.329  0.00  0.00    +0.025 A 
ATOM      8  C   UNL     1       3.143   6.415   1.583  0.00  0.00    +0.027 A 
ATOM      9  C   UNL     1       2.688   7.628   1.146  0.00  0.00    +0.019 A 
ATOM     10  C   UNL     1       1.488   7.720   0.452  0.00  0.00    +0.019 A 
ATOM     11  C   UNL     1       0.736   6.595   0.192  0.00  0.00    +0.048 A 
ATOM     12  C   UNL     1       1.179   5.351   0.627  0.00  0.00    +0.136 A 
ATOM     13  O   UNL     1       0.676   4.105   0.525  0.00  0.00    -0.450 OA
ATOM     14  C   UNL     1       1.490   3.208   1.119  0.00  0.00    +0.193 A 
ATOM     15 BR   UNL     1       3.698   9.189   1.489  0.00  0.00    -0.050 Br
ENDBRANCH   1  14
BRANCH   3  16
ATOM     16  C   UNL     1      -0.113  -0.205   0.713  0.00  0.00    +0.094 C 
BRANCH  16  17
ATOM     17  C   UNL     1      -1.433  -0.534   0.013  0.00  0.00    -0.013 C 
BRANCH  17  18
ATOM     18  N   UNL     1      -2.512   0.275   0.597  0.00  0.00    +0.386 N 
ATOM     19  C   UNL     1      -2.578   0.090   2.064  0.00  0.00    -0.078 C 
ATOM     20  C   UNL     1      -3.824   0.677   2.670  0.00  0.00    -0.019 C 
ATOM     21  C   UNL     1      -4.892  -0.433   2.763  0.00  0.00    -0.002 C 
ATOM     22  C   UNL     1      -5.539  -0.684   1.479  0.00  0.00    -0.002 C 
ATOM     23  C   UNL     1      -4.537  -1.156   0.405  0.00  0.00    -0.019 C 
ATOM     24  C   UNL     1      -3.791   0.044  -0.112  0.00  0.00    -0.078 C 
ATOM     25  H   UNL     1      -2.280   1.339   0.445  0.00  0.00    -0.081 HD
ENDBRANCH  17  18
BRANCH  17  26
ATOM     26  C   UNL     1      -1.747  -1.996   0.194  0.00  0.00    -0.022 A 
ATOM     27  C   UNL     1      -1.980  -2.943  -0.748  0.00  0.00    +0.009 A 
ATOM     28  C   UNL     1      -2.250  -4.237  -0.346  0.00  0.00    +0.008 A 
ATOM     29  C   UNL     1      -2.274  -4.522   0.979  0.00  0.00    +0.045 A 
ATOM     30  S   UNL     1      -1.901  -2.934   1.705  0.00  0.00    -0.103 S 
ENDBRANCH  17  26
ENDBRANCH  16  17
ENDBRANCH   3  16
TORSDOF 5
