REMARK  Name = ZINC15673207
REMARK  9 active torsions:
REMARK  status: ('A' for Active; 'I' for Inactive)
REMARK    1  A    between atoms: C_1  and  C_2
REMARK    2  A    between atoms: C_2  and  C_3
REMARK    3  A    between atoms: C_12  and  C_25
REMARK    4  A    between atoms: C_12  and  C_26
REMARK    5  A    between atoms: N_13  and  C_16
REMARK    6  A    between atoms: C_19  and  C_22
REMARK    7  A    between atoms: C_22  and  C_23
REMARK    8  A    between atoms: C_22  and  C_24
REMARK    9  A    between atoms: N_28  and  C_29
REMARK                            x       y       z     vdW  Elec       q    Type
REMARK                         _______ _______ _______ _____ _____    ______ ____
ROOT
ATOM      1  C   UNL     1       0.065   1.349  -0.628  0.00  0.00    -0.008 A 
ATOM      2  C   UNL     1       1.348   1.751  -0.514  0.00  0.00    +0.037 A 
ATOM      3  C   UNL     1       2.369   0.808  -0.328  0.00  0.00    +0.057 A 
ATOM      4  C   UNL     1       1.954  -0.531  -0.270  0.00  0.00    +0.038 A 
ATOM      5  S   UNL     1       0.196  -0.424  -0.477  0.00  0.00    -0.092 S 
ATOM      6  C   UNL     1       3.060  -1.352  -0.081  0.00  0.00    +0.048 A 
ATOM      7  C   UNL     1       4.155  -0.543  -0.015  0.00  0.00    +0.107 A 
ATOM      8  N   UNL     1       3.743   0.776  -0.174  0.00  0.00    -0.333 N 
ATOM      9  C   UNL     1       4.695   1.889  -0.176  0.00  0.00    +0.158 C 
ATOM     10  C   UNL     1       5.900   1.516   0.688  0.00  0.00    +0.133 C 
ATOM     11  N   UNL     1       6.404   0.178   0.399  0.00  0.00    -0.250 N 
ATOM     12  C   UNL     1       5.575  -0.867   0.168  0.00  0.00    +0.268 C 
ATOM     13  O   UNL     1       5.984  -2.012   0.116  0.00  0.00    -0.268 OA
ATOM     14  C   UNL     1       5.492   1.583   2.161  0.00  0.00    +0.044 C 
ENDROOT
BRANCH  11  15
ATOM     15  C   UNL     1       7.786  -0.031   0.359  0.00  0.00    +0.038 A 
ATOM     16  C   UNL     1       8.557   0.192   1.492  0.00  0.00    +0.024 A 
ATOM     17  C   UNL     1       9.921  -0.021   1.451  0.00  0.00    +0.006 A 
ATOM     18  C   UNL     1      10.520  -0.446   0.280  0.00  0.00    -0.045 A 
ATOM     19  C   UNL     1       9.756  -0.664  -0.852  0.00  0.00    +0.006 A 
ATOM     20  C   UNL     1       8.391  -0.458  -0.816  0.00  0.00    +0.024 A 
BRANCH  18  21
ATOM     21  C   UNL     1      12.009  -0.673   0.236  0.00  0.00    +0.013 C 
ATOM     22  C   UNL     1      12.732   0.598   0.690  0.00  0.00    +0.012 C 
ATOM     23  C   UNL     1      12.377  -1.829   1.169  0.00  0.00    +0.012 C 
ENDBRANCH  18  21
ENDBRANCH  11  15
BRANCH  10  24
ATOM     24  C   UNL     1       7.002   2.515   0.445  0.00  0.00    +0.239 C 
ATOM     25  O   UNL     1       7.198   3.408   1.242  0.00  0.00    -0.273 OA
ATOM     26  N   UNL     1       7.770   2.416  -0.658  0.00  0.00    -0.311 N 
ATOM     27  H   UNL     1       7.568   1.747  -1.331  0.00  0.00    +0.149 HD
BRANCH  26  28
ATOM     28  C   UNL     1       8.909   3.319  -0.842  0.00  0.00    +0.073 C 
ATOM     29  C   UNL     1       8.409   4.672  -1.353  0.00  0.00    +0.022 C 
ATOM     30  C   UNL     1       9.599   5.615  -1.545  0.00  0.00    +0.002 C 
ATOM     31  C   UNL     1      10.569   5.012  -2.562  0.00  0.00    +0.000 C 
ATOM     32  C   UNL     1      11.069   3.659  -2.051  0.00  0.00    +0.002 C 
ATOM     33  C   UNL     1       9.879   2.716  -1.859  0.00  0.00    +0.022 C 
ENDBRANCH  26  28
ENDBRANCH  10  24
BRANCH   1  35
ATOM     34  C   UNL     1      -1.421   2.363  -2.335  0.00  0.00    +0.009 C 
ATOM     35  C   UNL     1      -1.170   2.188  -0.836  0.00  0.00    +0.039 C 
ENDBRANCH   1  35
TORSDOF 5
