REMARK  Name = ZINC09315830
REMARK  7 active torsions:
REMARK  status: ('A' for Active; 'I' for Inactive)
REMARK    1  A    between atoms: C_1  and  N_56
REMARK    2  A    between atoms: C_2  and  C_3
REMARK    3  A    between atoms: C_2  and  N_56
REMARK    4  A    between atoms: C_6  and  C_8
REMARK    5  A    between atoms: C_15  and  C_16
REMARK    6  A    between atoms: C_15  and  N_56
REMARK    7  A    between atoms: N_18  and  N_19
REMARK                            x       y       z     vdW  Elec       q    Type
REMARK                         _______ _______ _______ _____ _____    ______ ____
ROOT
ATOM      1  C   UNL     1      -2.834   3.564   1.163  0.00  0.00    +0.020 C 
ENDROOT
BRANCH   1   2
ATOM      2  C   UNL     1      -1.576   2.734   1.152  0.00  0.00    +0.213 C 
ATOM      3  O   UNL     1      -0.915   2.621   2.163  0.00  0.00    -0.276 OA
ATOM      4  N   UNL     1      -1.186   2.116   0.019  0.00  0.00    -0.225 N 
ATOM      5  H   UNL     1      -1.714   2.207  -0.789  0.00  0.00    +0.173 HD
BRANCH   4   6
ATOM      6  N   UNL     1      -0.016   1.345   0.009  0.00  0.00    -0.137 N 
ATOM      7  C   UNL     1       0.002  -0.004   0.002  0.00  0.00    +0.263 C 
ATOM      8  O   UNL     1      -0.953  -0.751   0.007  0.00  0.00    -0.271 OA
ATOM      9  C   UNL     1       1.464  -0.388  -0.014  0.00  0.00    +0.114 C 
ATOM     10  C   UNL     1       1.792  -1.178  -1.276  0.00  0.00    +0.035 C 
ATOM     11  C   UNL     1       3.281  -1.532  -1.287  0.00  0.00    +0.003 C 
ATOM     12  C   UNL     1       3.616  -2.361  -0.045  0.00  0.00    +0.000 C 
ATOM     13  C   UNL     1       3.305  -1.546   1.212  0.00  0.00    +0.003 C 
ATOM     14  C   UNL     1       1.816  -1.192   1.233  0.00  0.00    +0.035 C 
ATOM     15  N   UNL     1       2.171   0.899  -0.014  0.00  0.00    -0.284 N 
ATOM     16  C   UNL     1       1.222   1.855   0.000  0.00  0.00    +0.326 C 
ATOM     17  O   UNL     1       1.462   3.046   0.004  0.00  0.00    -0.251 OA
ATOM     18  H   UNL     1       3.131   1.035  -0.023  0.00  0.00    +0.151 HD
ENDBRANCH   4   6
ENDBRANCH   1   2
BRANCH   1  20
ATOM     19  C   UNL     1      -1.981   5.089   2.839  0.00  0.00    -0.095 C 
ATOM     20  N   UNL     1      -3.037   4.104   2.524  0.00  0.00    +0.388 N 
ATOM     21  H   UNL     1      -2.986   3.332   3.200  0.00  0.00    -0.081 HD
BRANCH  20  22
ATOM     22  C   UNL     1      -4.367   4.740   2.621  0.00  0.00    -0.003 C 
BRANCH  22  23
ATOM     23  C   UNL     1      -4.638   5.083   4.063  0.00  0.00    +0.089 A 
ATOM     24  C   UNL     1      -4.335   6.251   4.663  0.00  0.00    +0.043 A 
ATOM     25  C   UNL     1      -4.758   6.148   6.003  0.00  0.00    +0.050 A 
ATOM     26  C   UNL     1      -5.302   4.911   6.149  0.00  0.00    +0.135 A 
ATOM     27  O   UNL     1      -5.227   4.278   4.962  0.00  0.00    -0.462 OA
BRANCH  26  28
ATOM     28  C   UNL     1      -5.881   4.359   7.391  0.00  0.00    +0.017 A 
ATOM     29  C   UNL     1      -5.895   5.124   8.559  0.00  0.00    +0.012 A 
ATOM     30  C   UNL     1      -6.442   4.605   9.714  0.00  0.00    +0.016 A 
ATOM     31  C   UNL     1      -6.965   3.323   9.720  0.00  0.00    +0.018 A 
ATOM     32  C   UNL     1      -6.948   2.557   8.567  0.00  0.00    +0.016 A 
ATOM     33  C   UNL     1      -6.409   3.067   7.404  0.00  0.00    +0.012 A 
ATOM     34 BR   UNL     1      -7.704   2.616  11.310  0.00  0.00    -0.050 Br
ENDBRANCH  26  28
ENDBRANCH  22  23
ENDBRANCH  20  22
ENDBRANCH   1  20
TORSDOF 6
