REMARK  Name = ZINC12497348
REMARK  11 active torsions:
REMARK  status: ('A' for Active; 'I' for Inactive)
REMARK    1  A    between atoms: C_1  and  C_2
REMARK    2  A    between atoms: C_2  and  C_3
REMARK    3  A    between atoms: C_3  and  C_4
REMARK    4  A    between atoms: C_4  and  C_30
REMARK    5  A    between atoms: C_9  and  C_11
REMARK    6  A    between atoms: C_14  and  C_17
REMARK    7  A    between atoms: N_20  and  C_23
REMARK    8  A    between atoms: C_26  and  C_29
REMARK    9  A    between atoms: C_30  and  O_32
REMARK   10  A    between atoms: O_32  and  C_33
REMARK   11  A    between atoms: C_33  and  C_34
REMARK                            x       y       z     vdW  Elec       q    Type
REMARK                         _______ _______ _______ _____ _____    ______ ____
ROOT
ATOM      1  C   UNL     1       0.080  -0.039  -0.047  0.00  0.00    +0.044 C 
ATOM      2  C   UNL     1       0.669  -0.601  -1.278  0.00  0.00    +0.086 C 
ATOM      3  C   UNL     1       0.129  -2.087  -1.228  0.00  0.00    +0.077 C 
ATOM      4  C   UNL     1      -1.343  -1.758  -0.987  0.00  0.00    -0.027 C 
ATOM      5  C   UNL     1       0.594  -2.467  -2.607  0.00  0.00    +0.229 C 
ATOM      6  O   UNL     1       0.034  -3.198  -3.395  0.00  0.00    -0.275 OA
ATOM      7  N   UNL     1       1.781  -1.813  -2.785  0.00  0.00    -0.210 N 
ATOM      8  C   UNL     1       1.968  -0.798  -1.879  0.00  0.00    +0.229 C 
ATOM      9  O   UNL     1       2.994  -0.200  -1.638  0.00  0.00    -0.275 OA
ATOM     10  N   UNL     1      -1.327  -0.545  -0.126  0.00  0.00    +0.395 N 
ATOM     11  H   UNL     1      -1.932   0.176  -0.533  0.00  0.00    -0.083 HD
ATOM     12  H   UNL     1      -1.662  -0.784   0.815  0.00  0.00    -0.083 HD
ENDROOT
BRANCH   4  13
ATOM     13  C   UNL     1      -2.034  -1.467  -2.294  0.00  0.00    -0.061 A 
ATOM     14  C   UNL     1      -2.036  -0.182  -2.803  0.00  0.00    +0.002 A 
ATOM     15  C   UNL     1      -2.666   0.085  -4.005  0.00  0.00    +0.003 A 
ATOM     16  C   UNL     1      -3.302  -0.932  -4.692  0.00  0.00    -0.050 A 
ATOM     17  C   UNL     1      -3.305  -2.216  -4.179  0.00  0.00    +0.003 A 
ATOM     18  C   UNL     1      -2.671  -2.483  -2.981  0.00  0.00    +0.002 A 
ATOM     19  C   UNL     1      -3.994  -0.640  -5.999  0.00  0.00    +0.044 C 
ENDBRANCH   4  13
BRANCH   7  20
ATOM     20  C   UNL     1       2.708  -2.143  -3.784  0.00  0.00    +0.044 A 
ATOM     21  C   UNL     1       3.890  -1.425  -3.901  0.00  0.00    +0.024 A 
ATOM     22  C   UNL     1       4.804  -1.756  -4.883  0.00  0.00    +0.005 A 
ATOM     23  C   UNL     1       4.537  -2.795  -5.755  0.00  0.00    -0.050 A 
ATOM     24  C   UNL     1       3.358  -3.509  -5.644  0.00  0.00    +0.005 A 
ATOM     25  C   UNL     1       2.443  -3.186  -4.661  0.00  0.00    +0.024 A 
ATOM     26  C   UNL     1       5.533  -3.150  -6.829  0.00  0.00    +0.044 C 
ENDBRANCH   7  20
BRANCH   1  27
ATOM     27  C   UNL     1       0.777  -0.574   1.177  0.00  0.00    +0.297 C 
ATOM     28  O   UNL     1       1.934  -0.917   1.111  0.00  0.00    -0.252 OA
BRANCH  27  29
ATOM     29  O   UNL     1       0.114  -0.669   2.340  0.00  0.00    -0.466 OA
BRANCH  29  30
ATOM     30  C   UNL     1       0.849  -1.194   3.477  0.00  0.00    +0.228 C 
ATOM     31  C   UNL     1      -0.065  -1.227   4.704  0.00  0.00    +0.048 C 
ENDBRANCH  29  30
ENDBRANCH  27  29
ENDBRANCH   1  27
BRANCH   1  32
ATOM     32  C   UNL     1       0.120   1.490  -0.070  0.00  0.00    -0.001 C 
BRANCH  32  34
ATOM     33  C   UNL     1      -0.525   3.567   1.160  0.00  0.00    +0.004 C 
ATOM     34  C   UNL     1      -0.565   2.038   1.183  0.00  0.00    -0.004 C 
ENDBRANCH  32  34
ENDBRANCH   1  32
TORSDOF 7
