REMARK  Name = ZINC63658766
REMARK  12 active torsions:
REMARK  status: ('A' for Active; 'I' for Inactive)
REMARK    1  A    between atoms: C_1  and  C_2
REMARK    2  A    between atoms: C_2  and  O_3
REMARK    3  A    between atoms: O_3  and  C_4
REMARK    4  A    between atoms: C_7  and  N_10
REMARK    5  A    between atoms: N_10  and  C_11
REMARK    6  A    between atoms: C_11  and  N_13
REMARK    7  A    between atoms: N_13  and  C_14
REMARK    8  A    between atoms: N_13  and  C_28
REMARK    9  A    between atoms: C_14  and  C_15
REMARK   10  A    between atoms: C_15  and  C_16
REMARK   11  A    between atoms: C_24  and  C_26
REMARK   12  A    between atoms: C_28  and  C_29
REMARK                            x       y       z     vdW  Elec       q    Type
REMARK                         _______ _______ _______ _____ _____    ______ ____
ROOT
ATOM      1  N   UNL     1       2.048  -7.800   2.858  0.00  0.00    -0.305 N 
ENDROOT
BRANCH   1   2
ATOM      2  C   UNL     1       1.857  -6.469   2.771  0.00  0.00    +0.138 C 
ATOM      3  S   UNL     1       2.529  -5.428   3.952  0.00  0.00    -0.018 S 
BRANCH   2   4
ATOM      4  N   UNL     1       1.136  -5.957   1.754  0.00  0.00    -0.297 N 
ATOM      5  H   UNL     1       0.688  -6.550   1.130  0.00  0.00    +0.154 HD
BRANCH   4   9
ATOM      6  C   UNL     1       0.831  -1.825   1.284  0.00  0.00    +0.121 A 
ATOM      7  C   UNL     1       2.049  -2.397   1.620  0.00  0.00    +0.047 A 
ATOM      8  C   UNL     1       2.151  -3.765   1.776  0.00  0.00    +0.027 A 
ATOM      9  C   UNL     1       1.033  -4.569   1.596  0.00  0.00    +0.033 A 
ATOM     10  C   UNL     1      -0.186  -3.996   1.261  0.00  0.00    +0.027 A 
ATOM     11  C   UNL     1      -0.288  -2.627   1.111  0.00  0.00    +0.047 A 
BRANCH   6  12
ATOM     12  O   UNL     1       0.731  -0.478   1.132  0.00  0.00    -0.492 OA
BRANCH  12  14
ATOM     13  C   UNL     1       1.617   1.771   1.113  0.00  0.00    +0.048 C 
ATOM     14  C   UNL     1       1.923   0.287   1.326  0.00  0.00    +0.225 C 
ENDBRANCH  12  14
ENDBRANCH   6  12
ENDBRANCH   4   9
ENDBRANCH   2   4
ENDBRANCH   1   2
BRANCH   1  15
ATOM     15  C   UNL     1       2.832  -8.356   3.964  0.00  0.00    +0.111 C 
BRANCH  15  16
ATOM     16  C   UNL     1       1.904  -8.670   5.139  0.00  0.00    +0.052 C 
BRANCH  16  17
ATOM     17  C   UNL     1       2.711  -9.242   6.277  0.00  0.00    -0.037 C 
ATOM     18  C   UNL     1       4.046  -9.455   6.301  0.00  0.00    +0.002 A 
ATOM     19  C   UNL     1       5.106  -9.227   5.312  0.00  0.00    +0.048 A 
ATOM     20  C   UNL     1       6.382  -9.548   5.632  0.00  0.00    +0.124 A 
ATOM     21  C   UNL     1       6.714 -10.092   6.883  0.00  0.00    +0.040 A 
ATOM     22  C   UNL     1       5.794 -10.331   7.841  0.00  0.00    +0.029 A 
ATOM     23  C   UNL     1       4.423 -10.030   7.612  0.00  0.00    +0.043 A 
ATOM     24  N   UNL     1       3.361 -10.168   8.369  0.00  0.00    -0.378 N 
ATOM     25  C   UNL     1       2.191  -9.689   7.625  0.00  0.00    +0.103 C 
ATOM     26  C   UNL     1       1.543  -8.511   8.357  0.00  0.00    +0.035 C 
ATOM     27  F   UNL     1       7.361  -9.339   4.724  0.00  0.00    -0.205 F 
ATOM     28  H   UNL     1       3.352 -10.523   9.271  0.00  0.00    +0.160 HD
ENDBRANCH  16  17
ENDBRANCH  15  16
ENDBRANCH   1  15
BRANCH   1  29
ATOM     29  C   UNL     1       1.473  -8.691   1.848  0.00  0.00    +0.181 C 
BRANCH  29  30
ATOM     30  C   UNL     1       2.458  -8.877   0.723  0.00  0.00    +0.122 A 
ATOM     31  C   UNL     1       3.395  -9.839   0.650  0.00  0.00    +0.046 A 
ATOM     32  C   UNL     1       4.091  -9.641  -0.565  0.00  0.00    +0.041 A 
ATOM     33  C   UNL     1       3.538  -8.570  -1.161  0.00  0.00    +0.195 A 
ATOM     34  O   UNL     1       2.545  -8.115  -0.379  0.00  0.00    -0.466 OA
ENDBRANCH  29  30
ENDBRANCH   1  29
TORSDOF 10
