REMARK  Name = ZINC39534377
REMARK  12 active torsions:
REMARK  status: ('A' for Active; 'I' for Inactive)
REMARK    1  A    between atoms: C_1  and  C_2
REMARK    2  A    between atoms: C_2  and  O_3
REMARK    3  A    between atoms: O_3  and  C_4
REMARK    4  A    between atoms: N_7  and  C_11
REMARK    5  A    between atoms: C_11  and  C_13
REMARK    6  A    between atoms: C_11  and  C_22
REMARK    7  A    between atoms: C_13  and  N_14
REMARK    8  A    between atoms: N_14  and  C_15
REMARK    9  A    between atoms: C_15  and  C_16
REMARK   10  A    between atoms: C_25  and  S_28
REMARK   11  A    between atoms: S_28  and  O_31
REMARK   12  A    between atoms: O_31  and  C_32
REMARK                            x       y       z     vdW  Elec       q    Type
REMARK                         _______ _______ _______ _____ _____    ______ ____
ROOT
ATOM      1  C   UNL     1       2.844  -4.093  -3.475  0.00  0.00    -0.023 C 
ENDROOT
BRANCH   1   4
ATOM      2  C   UNL     1       0.721  -2.684  -0.719  0.00  0.00    +0.169 C 
ATOM      3  C   UNL     1       1.623  -2.696  -1.955  0.00  0.00    -0.030 C 
ATOM      4  N   UNL     1       1.964  -4.083  -2.300  0.00  0.00    +0.388 N 
ATOM      5  C   UNL     1       0.736  -4.830  -2.602  0.00  0.00    -0.062 C 
ATOM      6  C   UNL     1      -0.174  -4.836  -1.371  0.00  0.00    +0.065 C 
ATOM      7  N   UNL     1      -0.500  -3.452  -1.000  0.00  0.00    -0.295 NA
ATOM      8  H   UNL     1      -1.131  -3.427  -0.213  0.00  0.00    +0.124 HD
ATOM      9  H   UNL     1       2.438  -4.516  -1.521  0.00  0.00    -0.081 HD
BRANCH   2  10
ATOM     10  O   UNL     1       0.374  -1.337  -0.396  0.00  0.00    -0.364 OA
BRANCH  10  12
ATOM     11  C   UNL     1      -0.509   0.298   1.150  0.00  0.00    +0.034 C 
ATOM     12  C   UNL     1      -0.176  -1.176   0.913  0.00  0.00    +0.158 C 
ENDBRANCH  10  12
ENDBRANCH   2  10
ENDBRANCH   1   4
BRANCH   1  13
ATOM     13  C   UNL     1       3.070  -5.515  -3.922  0.00  0.00    -0.060 A 
ATOM     14  C   UNL     1       3.247  -6.514  -2.983  0.00  0.00    +0.004 A 
ATOM     15  C   UNL     1       3.454  -7.818  -3.393  0.00  0.00    +0.031 A 
ATOM     16  C   UNL     1       3.482  -8.123  -4.741  0.00  0.00    +0.128 A 
ATOM     17  C   UNL     1       3.304  -7.124  -5.679  0.00  0.00    +0.031 A 
ATOM     18  C   UNL     1       3.093  -5.821  -5.270  0.00  0.00    +0.004 A 
BRANCH  16  19
ATOM     19  S   UNL     1       3.747  -9.785  -5.263  0.00  0.00    +0.151 S 
ATOM     20  O   UNL     1       4.273  -9.718  -6.581  0.00  0.00    -0.131 OA
ATOM     21  O   UNL     1       4.430 -10.440  -4.203  0.00  0.00    -0.131 OA
BRANCH  19  22
ATOM     22  O   UNL     1       2.380 -10.445  -5.373  0.00  0.00    -0.342 OA
BRANCH  22  23
ATOM     23  C   UNL     1       1.668 -10.063  -6.466  0.00  0.00    +0.157 A 
ATOM     24  C   UNL     1       0.824  -8.965  -6.396  0.00  0.00    +0.048 A 
ATOM     25  C   UNL     1       0.102  -8.578  -7.509  0.00  0.00    +0.004 A 
ATOM     26  C   UNL     1       0.220  -9.285  -8.691  0.00  0.00    +0.000 A 
ATOM     27  C   UNL     1       1.061 -10.380  -8.764  0.00  0.00    +0.004 A 
ATOM     28  C   UNL     1       1.790 -10.767  -7.656  0.00  0.00    +0.048 A 
ENDBRANCH  22  23
ENDBRANCH  19  22
ENDBRANCH  16  19
ENDBRANCH   1  13
BRANCH   1  29
ATOM     29  C   UNL     1       4.186  -3.454  -3.113  0.00  0.00    +0.070 C 
BRANCH  29  30
ATOM     30  N   UNL     1       3.990  -2.024  -2.840  0.00  0.00    -0.313 NA
ATOM     31  H   UNL     1       3.553  -1.563  -3.625  0.00  0.00    +0.122 HD
BRANCH  30  32
ATOM     32  C   UNL     1       5.260  -1.375  -2.488  0.00  0.00    +0.116 C 
BRANCH  32  33
ATOM     33  C   UNL     1       5.019   0.087  -2.216  0.00  0.00    -0.034 A 
ATOM     34  C   UNL     1       5.096   1.004  -3.248  0.00  0.00    +0.005 A 
ATOM     35  C   UNL     1       4.875   2.345  -2.998  0.00  0.00    +0.000 A 
ATOM     36  C   UNL     1       4.576   2.770  -1.717  0.00  0.00    +0.000 A 
ATOM     37  C   UNL     1       4.497   1.853  -0.685  0.00  0.00    +0.000 A 
ATOM     38  C   UNL     1       4.714   0.511  -0.936  0.00  0.00    +0.005 A 
ENDBRANCH  32  33
ENDBRANCH  30  32
ENDBRANCH  29  30
ENDBRANCH   1  29
TORSDOF 11
