REMARK  Name = ZINC32739301
REMARK  12 active torsions:
REMARK  status: ('A' for Active; 'I' for Inactive)
REMARK    1  A    between atoms: C_1  and  C_2
REMARK    2  A    between atoms: C_3  and  C_13
REMARK    3  A    between atoms: C_4  and  C_12
REMARK    4  A    between atoms: C_9  and  C_10
REMARK    5  A    between atoms: C_13  and  C_14
REMARK    6  A    between atoms: C_14  and  C_15
REMARK    7  A    between atoms: C_20  and  C_23
REMARK    8  A    between atoms: C_26  and  N_29
REMARK    9  A    between atoms: C_30  and  C_32
REMARK   10  A    between atoms: C_32  and  C_33
REMARK   11  A    between atoms: C_32  and  C_34
REMARK   12  A    between atoms: C_32  and  C_35
REMARK                            x       y       z     vdW  Elec       q    Type
REMARK                         _______ _______ _______ _____ _____    ______ ____
ROOT
ATOM      1  C   UNL     1       3.994   5.611   1.463  0.00  0.00    +0.219 C 
ATOM      2  O   UNL     1       4.527   5.871   0.405  0.00  0.00    -0.275 OA
ATOM      3  N   UNL     1       4.619   5.901   2.621  0.00  0.00    -0.265 N 
ATOM      4  C   UNL     1       5.873   6.500   2.603  0.00  0.00    +0.165 A 
ATOM      5  N   UNL     1       6.642   6.860   3.614  0.00  0.00    -0.225 NA
ATOM      6  C   UNL     1       7.823   7.425   3.413  0.00  0.00    +0.080 A 
ATOM      7  C   UNL     1       8.255   7.639   2.134  0.00  0.00    +0.076 A 
ATOM      8  S   UNL     1       6.878   6.979   1.204  0.00  0.00    -0.060 S 
ATOM      9  H   UNL     1       4.137   5.665   3.581  0.00  0.00    +0.157 HD
ENDROOT
BRANCH   6  10
ATOM     10  C   UNL     1       8.669   7.821   4.565  0.00  0.00    +0.001 A 
ATOM     11  C   UNL     1       9.914   8.409   4.347  0.00  0.00    +0.012 A 
ATOM     12  C   UNL     1      10.696   8.781   5.420  0.00  0.00    +0.024 A 
ATOM     13  C   UNL     1      10.249   8.560   6.717  0.00  0.00    +0.033 A 
ATOM     14  C   UNL     1       9.011   7.969   6.937  0.00  0.00    +0.024 A 
ATOM     15  C   UNL     1       8.223   7.600   5.867  0.00  0.00    +0.012 A 
BRANCH  13  16
ATOM     16  N   UNL     1      11.048   8.933   7.804  0.00  0.00    -0.285 N 
ATOM     17  C   UNL     1      11.027   8.203   8.937  0.00  0.00    +0.223 C 
ATOM     18  O   UNL     1      10.391   7.171   8.982  0.00  0.00    -0.275 OA
ATOM     19  H   UNL     1      11.693   9.821   7.734  0.00  0.00    +0.155 HD
BRANCH  17  20
ATOM     20  C   UNL     1      11.794   8.669  10.148  0.00  0.00    +0.039 C 
ATOM     21  C   UNL     1      11.604   7.668  11.289  0.00  0.00    +0.020 C 
ATOM     22  C   UNL     1      13.281   8.771   9.801  0.00  0.00    +0.020 C 
ATOM     23  C   UNL     1      11.276  10.042  10.582  0.00  0.00    +0.020 C 
ENDBRANCH  17  20
ENDBRANCH  13  16
ENDBRANCH   6  10
BRANCH   1  24
ATOM     24  C   UNL     1       2.635   4.962   1.482  0.00  0.00    +0.101 C 
BRANCH  24  25
ATOM     25  C   UNL     1       2.154   4.741   0.047  0.00  0.00    +0.046 C 
BRANCH  25  28
ATOM     26  C   UNL     1       1.920   1.846   0.272  0.00  0.00    +0.045 C 
ATOM     27  C   UNL     1       0.686   2.705   0.174  0.00  0.00    -0.023 A 
ATOM     28  C   UNL     1       0.794   4.092   0.067  0.00  0.00    -0.024 A 
ATOM     29  C   UNL     1      -0.323   4.858  -0.020  0.00  0.00    +0.019 A 
ATOM     30  N   UNL     1      -1.559   4.302  -0.004  0.00  0.00    -0.325 N 
ATOM     31  H   UNL     1      -2.451   4.942  -0.071  0.00  0.00    +0.169 HD
ATOM     32  C   UNL     1      -1.720   2.968   0.093  0.00  0.00    +0.267 A 
ATOM     33  O   UNL     1      -2.839   2.486   0.100  0.00  0.00    -0.266 OA
ATOM     34  C   UNL     1      -0.581   2.126   0.191  0.00  0.00    +0.119 A 
ATOM     35  C   UNL     1      -0.187   6.354  -0.136  0.00  0.00    +0.063 C 
BRANCH  34  36
ATOM     36  C   UNL     1      -0.732   0.707   0.300  0.00  0.00    +0.105 C 
ATOM     37  N   UNL     1      -0.852  -0.420   0.387  0.00  0.00    -0.191 NA
ENDBRANCH  34  36
ENDBRANCH  25  28
ENDBRANCH  24  25
ENDBRANCH   1  24
TORSDOF 7
