REMARK  Name = ZINC36627108
REMARK  9 active torsions:
REMARK  status: ('A' for Active; 'I' for Inactive)
REMARK    1  A    between atoms: C_1  and  C_2
REMARK    2  A    between atoms: C_2  and  O_3
REMARK    3  A    between atoms: O_3  and  C_4
REMARK    4  A    between atoms: C_4  and  C_6
REMARK    5  A    between atoms: C_7  and  C_20
REMARK    6  A    between atoms: C_12  and  C_14
REMARK    7  A    between atoms: C_20  and  N_21
REMARK    8  A    between atoms: C_24  and  C_28
REMARK    9  A    between atoms: C_24  and  C_29
REMARK                            x       y       z     vdW  Elec       q    Type
REMARK                         _______ _______ _______ _____ _____    ______ ____
ROOT
ATOM      1  C   UNL     1      -2.629  -2.381   0.076  0.00  0.00    +0.080 C 
ATOM      2  C   UNL     1      -2.862  -3.698  -0.115  0.00  0.00    +0.042 C 
ATOM      3  N   UNL     1      -4.136  -4.181  -0.210  0.00  0.00    -0.271 N 
ATOM      4  C   UNL     1      -5.230  -3.413  -0.125  0.00  0.00    +0.304 C 
ATOM      5  O   UNL     1      -6.323  -3.935  -0.222  0.00  0.00    -0.252 OA
ATOM      6  N   UNL     1      -5.158  -2.081   0.065  0.00  0.00    -0.288 N 
ATOM      7  C   UNL     1      -3.827  -1.461   0.186  0.00  0.00    +0.144 C 
ATOM      8  H   UNL     1      -4.255  -5.134  -0.347  0.00  0.00    +0.156 HD
ATOM      9  H   UNL     1      -5.963  -1.544   0.123  0.00  0.00    +0.151 HD
ENDROOT
BRANCH   7  10
ATOM     10  C   UNL     1      -3.708  -0.412  -0.889  0.00  0.00    -0.022 A 
ATOM     11  C   UNL     1      -4.081  -0.708  -2.187  0.00  0.00    +0.006 A 
ATOM     12  C   UNL     1      -3.972   0.255  -3.173  0.00  0.00    +0.000 A 
ATOM     13  C   UNL     1      -3.491   1.512  -2.862  0.00  0.00    +0.000 A 
ATOM     14  C   UNL     1      -3.119   1.808  -1.564  0.00  0.00    +0.000 A 
ATOM     15  C   UNL     1      -3.232   0.847  -0.576  0.00  0.00    +0.006 A 
ENDBRANCH   7  10
BRANCH   1  16
ATOM     16  C   UNL     1      -1.310  -1.879   0.175  0.00  0.00    +0.339 C 
ATOM     17  O   UNL     1      -0.858  -1.567   1.261  0.00  0.00    -0.245 OA
BRANCH  16  18
ATOM     18  O   UNL     1      -0.553  -1.747  -0.934  0.00  0.00    -0.462 OA
BRANCH  18  20
ATOM     19  C   UNL     1       1.469  -1.155  -2.119  0.00  0.00    +0.048 C 
ATOM     20  C   UNL     1       0.769  -1.233  -0.760  0.00  0.00    +0.229 C 
ENDBRANCH  18  20
ENDBRANCH  16  18
ENDBRANCH   1  16
BRANCH   2  21
ATOM     21  C   UNL     1      -1.698  -4.649  -0.225  0.00  0.00    +0.169 C 
BRANCH  21  22
ATOM     22  N   UNL     1      -1.721  -5.581   0.905  0.00  0.00    -0.218 N 
ATOM     23  C   UNL     1      -1.106  -5.357   2.083  0.00  0.00    +0.251 C 
ATOM     24  O   UNL     1      -0.455  -4.383   2.396  0.00  0.00    -0.272 OA
ATOM     25  C   UNL     1      -1.399  -6.575   2.936  0.00  0.00    +0.136 C 
ATOM     26  N   UNL     1      -2.221  -7.424   2.057  0.00  0.00    -0.281 N 
ATOM     27  C   UNL     1      -2.358  -6.757   0.897  0.00  0.00    +0.310 C 
ATOM     28  O   UNL     1      -2.989  -7.177  -0.054  0.00  0.00    -0.252 OA
ATOM     29  C   UNL     1      -0.101  -7.292   3.315  0.00  0.00    +0.047 C 
ATOM     30  H   UNL     1      -2.594  -8.293   2.273  0.00  0.00    +0.152 HD
BRANCH  25  31
ATOM     31  C   UNL     1      -2.170  -6.185   4.170  0.00  0.00    -0.008 A 
ATOM     32  C   UNL     1      -3.428  -6.665   4.371  0.00  0.00    +0.007 A 
ATOM     33  C   UNL     1      -4.157  -6.316   5.506  0.00  0.00    +0.001 A 
ATOM     34  C   UNL     1      -3.632  -5.484   6.447  0.00  0.00    +0.008 A 
ATOM     35  C   UNL     1      -2.336  -4.969   6.275  0.00  0.00    -0.018 A 
ATOM     36  C   UNL     1      -1.593  -5.329   5.123  0.00  0.00    -0.012 A 
ATOM     37  C   UNL     1      -0.294  -4.819   4.954  0.00  0.00    +0.009 A 
ATOM     38  C   UNL     1       0.233  -3.992   5.898  0.00  0.00    +0.001 A 
ATOM     39  C   UNL     1      -0.496  -3.643   7.034  0.00  0.00    +0.001 A 
ATOM     40  C   UNL     1      -1.761  -4.107   7.225  0.00  0.00    +0.008 A 
ENDBRANCH  25  31
ENDBRANCH  21  22
ENDBRANCH   2  21
TORSDOF 7
