REMARK  Name = ZINC09429426
REMARK  5 active torsions:
REMARK  status: ('A' for Active; 'I' for Inactive)
REMARK    1  A    between atoms: C_1  and  C_2
REMARK    2  A    between atoms: C_2  and  C_3
REMARK    3  A    between atoms: C_6  and  N_9
REMARK    4  A    between atoms: C_15  and  C_22
REMARK    5  A    between atoms: N_20  and  C_21
REMARK                            x       y       z     vdW  Elec       q    Type
REMARK                         _______ _______ _______ _____ _____    ______ ____
ROOT
ATOM      1  N   UNL     1      -1.135   1.958   0.018  0.00  0.00    -0.262 N 
ATOM      2  C   UNL     1      -0.719   3.369   0.026  0.00  0.00    +0.165 C 
ATOM      3  C   UNL     1       0.792   3.329   0.012  0.00  0.00    +0.042 C 
ATOM      4  C   UNL     1       1.137   2.026   0.002  0.00  0.00    +0.058 C 
ATOM      5  C   UNL     1      -0.014   1.213   0.009  0.00  0.00    +0.251 C 
ATOM      6  O   UNL     1       0.002  -0.004   0.002  0.00  0.00    -0.270 OA
ATOM      7  C   UNL     1       2.615   1.688  -0.014  0.00  0.00    +0.142 C 
ATOM      8  N   UNL     1       3.557   2.820  -0.017  0.00  0.00    -0.288 N 
ATOM      9  C   UNL     1       3.058   4.071  -0.005  0.00  0.00    +0.307 C 
ATOM     10  O   UNL     1       3.828   5.012  -0.008  0.00  0.00    -0.252 OA
ATOM     11  N   UNL     1       1.740   4.313   0.008  0.00  0.00    -0.260 N 
ATOM     12  C   UNL     1       1.292   5.707   0.020  0.00  0.00    +0.139 C 
ATOM     13  H   UNL     1       4.515   2.668  -0.026  0.00  0.00    +0.151 HD
ENDROOT
BRANCH   7  14
ATOM     14  C   UNL     1       2.887   0.853  -1.238  0.00  0.00    -0.022 A 
ATOM     15  C   UNL     1       3.023   1.460  -2.473  0.00  0.00    +0.007 A 
ATOM     16  C   UNL     1       3.277   0.694  -3.595  0.00  0.00    +0.015 A 
ATOM     17  C   UNL     1       3.386  -0.680  -3.484  0.00  0.00    +0.018 A 
ATOM     18  C   UNL     1       3.245  -1.288  -2.250  0.00  0.00    +0.015 A 
ATOM     19  C   UNL     1       2.996  -0.521  -1.127  0.00  0.00    +0.007 A 
ATOM     20 BR   UNL     1       3.727  -1.729  -5.021  0.00  0.00    -0.050 Br
ENDBRANCH   7  14
BRANCH   1  24
ATOM     21  C   UNL     1      -5.049   0.535   0.029  0.00  0.00    -0.048 A 
ATOM     22  C   UNL     1      -3.991  -0.356   0.020  0.00  0.00    +0.005 A 
ATOM     23  C   UNL     1      -2.692   0.113   0.016  0.00  0.00    +0.024 A 
ATOM     24  C   UNL     1      -2.449   1.480   0.021  0.00  0.00    +0.037 A 
ATOM     25  C   UNL     1      -3.514   2.372   0.036  0.00  0.00    +0.024 A 
ATOM     26  C   UNL     1      -4.810   1.897   0.034  0.00  0.00    +0.005 A 
BRANCH  21  28
ATOM     27  C   UNL     1      -6.938  -0.162   1.477  0.00  0.00    +0.009 C 
ATOM     28  C   UNL     1      -6.465   0.020   0.033  0.00  0.00    +0.032 C 
ENDBRANCH  21  28
ENDBRANCH   1  24
TORSDOF 3
