REMARK  Name = ZINC45766863
REMARK  10 active torsions:
REMARK  status: ('A' for Active; 'I' for Inactive)
REMARK    1  A    between atoms: C_1  and  C_2
REMARK    2  A    between atoms: C_2  and  C_4
REMARK    3  A    between atoms: C_2  and  O_15
REMARK    4  A    between atoms: N_6  and  C_7
REMARK    5  A    between atoms: C_12  and  O_13
REMARK    6  A    between atoms: O_13  and  C_14
REMARK    7  A    between atoms: O_15  and  C_16
REMARK    8  A    between atoms: C_16  and  C_18
REMARK    9  A    between atoms: C_20  and  C_30
REMARK   10  A    between atoms: N_21  and  C_23
REMARK                            x       y       z     vdW  Elec       q    Type
REMARK                         _______ _______ _______ _____ _____    ______ ____
ROOT
ATOM      1  C   UNL     1       1.703  -0.913   1.246  0.00  0.00    +0.379 C 
ATOM      2  O   UNL     1       2.107  -0.930   0.101  0.00  0.00    -0.241 OA
ENDROOT
BRANCH   1   3
ATOM      3  C   UNL     1       2.612  -1.267   2.356  0.00  0.00    +0.260 A 
ATOM      4  N   UNL     1       2.280  -1.290   3.654  0.00  0.00    -0.200 NA
ATOM      5  C   UNL     1       3.324  -1.648   4.373  0.00  0.00    +0.171 A 
ATOM      6  N   UNL     1       4.368  -1.865   3.517  0.00  0.00    -0.211 N 
ATOM      7  N   UNL     1       3.876  -1.617   2.225  0.00  0.00    -0.137 NA
BRANCH   6   8
ATOM      8  C   UNL     1       5.667  -2.260   3.860  0.00  0.00    +0.068 A 
ATOM      9  C   UNL     1       5.862  -3.285   4.777  0.00  0.00    +0.030 A 
ATOM     10  C   UNL     1       7.144  -3.674   5.113  0.00  0.00    +0.040 A 
ATOM     11  C   UNL     1       8.234  -3.043   4.537  0.00  0.00    +0.124 A 
ATOM     12  C   UNL     1       8.041  -2.020   3.623  0.00  0.00    +0.040 A 
ATOM     13  C   UNL     1       6.761  -1.633   3.279  0.00  0.00    +0.030 A 
ATOM     14  F   UNL     1       9.487  -3.424   4.867  0.00  0.00    -0.205 F 
ENDBRANCH   6   8
BRANCH   5  15
ATOM     15  C   UNL     1       3.361  -1.789   5.837  0.00  0.00    +0.056 A 
ATOM     16  C   UNL     1       2.322  -1.977   6.714  0.00  0.00    +0.019 A 
ATOM     17  C   UNL     1       2.601  -2.082   8.057  0.00  0.00    +0.008 A 
ATOM     18  C   UNL     1       3.892  -1.996   8.474  0.00  0.00    +0.046 A 
ATOM     19  S   UNL     1       4.768  -1.766   6.935  0.00  0.00    -0.094 S 
ENDBRANCH   5  15
ENDBRANCH   1   3
BRANCH   1  20
ATOM     20  O   UNL     1       0.426  -0.570   1.504  0.00  0.00    -0.446 OA
BRANCH  20  22
ATOM     21  C   UNL     1      -0.296   1.261   0.103  0.00  0.00    +0.062 C 
ATOM     22  C   UNL     1      -0.397  -0.239   0.384  0.00  0.00    +0.259 C 
BRANCH  22  23
ATOM     23  C   UNL     1      -1.828  -0.598   0.688  0.00  0.00    +0.258 C 
ATOM     24  O   UNL     1      -2.131  -1.004   1.790  0.00  0.00    -0.271 OA
ATOM     25  N   UNL     1      -2.773  -0.468  -0.265  0.00  0.00    -0.280 N 
ATOM     26  H   UNL     1      -2.546  -0.076  -1.122  0.00  0.00    +0.155 HD
BRANCH  25  27
ATOM     27  C   UNL     1      -4.083  -0.900  -0.016  0.00  0.00    +0.076 A 
ATOM     28  C   UNL     1      -4.618  -0.798   1.260  0.00  0.00    +0.027 A 
ATOM     29  C   UNL     1      -5.910  -1.224   1.502  0.00  0.00    +0.002 A 
ATOM     30  C   UNL     1      -6.672  -1.752   0.476  0.00  0.00    +0.004 A 
ATOM     31  C   UNL     1      -6.145  -1.856  -0.798  0.00  0.00    +0.047 A 
ATOM     32  C   UNL     1      -4.853  -1.426  -1.051  0.00  0.00    +0.141 A 
BRANCH  32  33
ATOM     33  O   UNL     1      -4.335  -1.523  -2.304  0.00  0.00    -0.493 OA
ATOM     34  C   UNL     1      -5.182  -2.072  -3.316  0.00  0.00    +0.277 C 
ENDBRANCH  32  33
ENDBRANCH  25  27
ENDBRANCH  22  23
ENDBRANCH  20  22
ENDBRANCH   1  20
TORSDOF 8
