REMARK  Name = ZINC12623139
REMARK  11 active torsions:
REMARK  status: ('A' for Active; 'I' for Inactive)
REMARK    1  A    between atoms: C_1  and  C_2
REMARK    2  A    between atoms: C_2  and  O_3
REMARK    3  A    between atoms: O_3  and  C_4
REMARK    4  A    between atoms: C_4  and  C_6
REMARK    5  A    between atoms: C_12  and  N_13
REMARK    6  A    between atoms: C_12  and  N_65
REMARK    7  A    between atoms: N_16  and  C_26
REMARK    8  A    between atoms: C_17  and  C_19
REMARK    9  A    between atoms: C_31  and  C_32
REMARK   10  A    between atoms: C_32  and  C_33
REMARK   11  A    between atoms: C_32  and  C_34
REMARK                            x       y       z     vdW  Elec       q    Type
REMARK                         _______ _______ _______ _____ _____    ______ ____
ROOT
ATOM      1  N   UNL     1       0.673  -4.268  -0.190  0.00  0.00    -0.257 N 
ATOM      2  C   UNL     1       1.979  -4.243   0.147  0.00  0.00    +0.181 A 
ATOM      3  S   UNL     1       2.986  -5.606   0.393  0.00  0.00    -0.011 S 
ATOM      4  N   UNL     1       2.350  -2.951   0.249  0.00  0.00    -0.271 N 
ATOM      5  C   UNL     1       1.248  -2.162  -0.021  0.00  0.00    +0.167 A 
ATOM      6  N   UNL     1       0.237  -2.940  -0.289  0.00  0.00    -0.152 NA
ENDROOT
BRANCH   5   7
ATOM      7  C   UNL     1       1.221  -0.682  -0.013  0.00  0.00    +0.020 A 
ATOM      8  C   UNL     1       0.002  -0.004   0.002  0.00  0.00    +0.013 A 
ATOM      9  C   UNL     1      -0.017   1.375   0.010  0.00  0.00    +0.021 A 
ATOM     10  C   UNL     1       1.171   2.087   0.002  0.00  0.00    +0.041 A 
ATOM     11  C   UNL     1       2.384   1.419  -0.013  0.00  0.00    +0.021 A 
ATOM     12  C   UNL     1       2.415   0.039  -0.021  0.00  0.00    +0.013 A 
ATOM     13 CL   UNL     1       1.140   3.822   0.011  0.00  0.00    -0.084 Cl
ENDBRANCH   5   7
BRANCH   4  14
ATOM     14  C   UNL     1       3.631  -2.488   0.577  0.00  0.00    +0.054 A 
ATOM     15  C   UNL     1       3.971  -2.264   1.905  0.00  0.00    +0.026 A 
ATOM     16  C   UNL     1       5.236  -1.812   2.225  0.00  0.00    +0.002 A 
ATOM     17  C   UNL     1       6.160  -1.573   1.224  0.00  0.00    +0.000 A 
ATOM     18  C   UNL     1       5.823  -1.790  -0.099  0.00  0.00    +0.006 A 
ATOM     19  C   UNL     1       4.561  -2.247  -0.425  0.00  0.00    -0.021 A 
BRANCH  19  20
ATOM     20  C   UNL     1       4.194  -2.484  -1.867  0.00  0.00    +0.015 C 
ATOM     21  C   UNL     1       4.325  -1.175  -2.649  0.00  0.00    +0.012 C 
ATOM     22  C   UNL     1       5.133  -3.532  -2.467  0.00  0.00    +0.012 C 
ENDBRANCH  19  20
ENDBRANCH   4  14
BRANCH   1  23
ATOM     23  C   UNL     1      -0.140  -5.466  -0.412  0.00  0.00    +0.072 C 
BRANCH  23  29
ATOM     24  C   UNL     1      -0.447  -7.606  -3.495  0.00  0.00    +0.081 C 
ATOM     25  C   UNL     1      -1.079  -6.574  -4.433  0.00  0.00    +0.011 C 
ATOM     26  C   UNL     1      -0.467  -5.199  -4.154  0.00  0.00    -0.018 C 
ATOM     27  C   UNL     1      -0.690  -4.836  -2.684  0.00  0.00    -0.076 C 
ATOM     28  C   UNL     1      -0.670  -7.173  -2.044  0.00  0.00    -0.062 C 
ATOM     29  N   UNL     1      -0.037  -5.854  -1.834  0.00  0.00    +0.393 N 
ATOM     30  H   UNL     1       0.955  -5.916  -2.091  0.00  0.00    -0.079 HD
BRANCH  24  31
ATOM     31  C   UNL     1      -1.086  -8.952  -3.723  0.00  0.00    +0.308 C 
ATOM     32  O   UNL     1      -1.661  -9.508  -2.818  0.00  0.00    -0.251 OA
BRANCH  31  33
ATOM     33  O   UNL     1      -1.015  -9.532  -4.931  0.00  0.00    -0.465 OA
BRANCH  33  35
ATOM     34  C   UNL     1      -1.470 -11.327  -6.513  0.00  0.00    +0.048 C 
ATOM     35  C   UNL     1      -1.653 -10.828  -5.078  0.00  0.00    +0.229 C 
ENDBRANCH  33  35
ENDBRANCH  31  33
ENDBRANCH  24  31
ENDBRANCH  23  29
ENDBRANCH   1  23
TORSDOF 8
