REMARK  Name = ZINC25573903
REMARK  7 active torsions:
REMARK  status: ('A' for Active; 'I' for Inactive)
REMARK    1  A    between atoms: C_2  and  N_10
REMARK    2  A    between atoms: C_11  and  C_13
REMARK    3  A    between atoms: C_13  and  C_20
REMARK    4  A    between atoms: N_14  and  N_15
REMARK    5  A    between atoms: N_15  and  C_16
REMARK    6  A    between atoms: C_16  and  N_18
REMARK    7  A    between atoms: N_18  and  N_19
REMARK                            x       y       z     vdW  Elec       q    Type
REMARK                         _______ _______ _______ _____ _____    ______ ____
ROOT
ATOM      1  C   UNL     1       0.183   5.618  -0.011  0.00  0.00    +0.161 C 
ATOM      2  N   UNL     1       1.355   6.202  -0.018  0.00  0.00    -0.175 NA
ENDROOT
BRANCH   1   3
ATOM      3  C   UNL     1      -1.048   6.433   0.087  0.00  0.00    +0.135 A 
ATOM      4  C   UNL     1      -2.302   5.820   0.225  0.00  0.00    +0.265 A 
ATOM      5  O   UNL     1      -2.402   4.491   0.270  0.00  0.00    -0.267 OA
ATOM      6  N   UNL     1      -3.414   6.596   0.313  0.00  0.00    -0.302 N 
ATOM      7  C   UNL     1      -3.321   7.936   0.269  0.00  0.00    +0.161 A 
ATOM      8  S   UNL     1      -4.746   8.879   0.383  0.00  0.00    -0.013 S 
ATOM      9  N   UNL     1      -2.134   8.553   0.138  0.00  0.00    -0.302 N 
ATOM     10  C   UNL     1      -0.985   7.833   0.050  0.00  0.00    +0.265 A 
ATOM     11  O   UNL     1       0.190   8.452  -0.076  0.00  0.00    -0.267 OA
ATOM     12  H   UNL     1      -4.285   6.178   0.408  0.00  0.00    +0.171 HD
ATOM     13  H   UNL     1      -2.097   9.522   0.109  0.00  0.00    +0.171 HD
ENDBRANCH   1   3
BRANCH   1  15
ATOM     14  N   UNL     1       0.309   3.393   0.992  0.00  0.00    -0.279 N 
ATOM     15  C   UNL     1       0.090   4.150  -0.101  0.00  0.00    +0.269 C 
ATOM     16  O   UNL     1      -0.184   3.622  -1.162  0.00  0.00    -0.268 OA
ATOM     17  H   UNL     1       0.437   3.814   1.856  0.00  0.00    +0.155 HD
BRANCH  14  19
ATOM     18  C   UNL     1      -0.358   1.359  -0.127  0.00  0.00    +0.046 A 
ATOM     19  C   UNL     1       0.352   1.999   0.880  0.00  0.00    +0.054 A 
ATOM     20  C   UNL     1       1.107   1.251   1.777  0.00  0.00    +0.064 A 
ATOM     21  C   UNL     1       1.148  -0.126   1.664  0.00  0.00    +0.043 A 
ATOM     22  C   UNL     1       0.439  -0.760   0.659  0.00  0.00    +0.061 A 
ATOM     23  C   UNL     1      -0.313  -0.018  -0.236  0.00  0.00    +0.061 A 
ATOM     24 CL   UNL     1      -1.201  -0.818  -1.495  0.00  0.00    -0.082 Cl
ATOM     25 CL   UNL     1       0.494  -2.490   0.520  0.00  0.00    -0.082 Cl
ATOM     26 CL   UNL     1       1.997   2.047   3.037  0.00  0.00    -0.082 Cl
ENDBRANCH  14  19
ENDBRANCH   1  15
BRANCH   2  27
ATOM     27  N   UNL     1       2.523   5.429   0.021  0.00  0.00    -0.217 N 
ATOM     28  H   UNL     1       2.464   4.461   0.006  0.00  0.00    +0.176 HD
BRANCH  27  29
ATOM     29  C   UNL     1       3.727   6.030   0.081  0.00  0.00    +0.164 C 
ATOM     30  S   UNL     1       5.154   5.085   0.130  0.00  0.00    -0.016 S 
BRANCH  29  31
ATOM     31  N   UNL     1       3.809   7.375   0.103  0.00  0.00    -0.264 N 
ATOM     32  H   UNL     1       4.676   7.808   0.146  0.00  0.00    +0.168 HD
BRANCH  31  33
ATOM     33  N   UNL     1       2.670   8.129   0.064  0.00  0.00    -0.255 NA
ATOM     34  H   UNL     1       2.888   9.114   0.087  0.00  0.00    +0.140 HD
ATOM     35  H   UNL     1       2.113   7.901  -0.745  0.00  0.00    +0.140 HD
ENDBRANCH  31  33
ENDBRANCH  29  31
ENDBRANCH  27  29
ENDBRANCH   2  27
TORSDOF 7
