REMARK  Name = ZINC57354733
REMARK  10 active torsions:
REMARK  status: ('A' for Active; 'I' for Inactive)
REMARK    1  A    between atoms: C_1  and  C_2
REMARK    2  A    between atoms: C_2  and  C_3
REMARK    3  A    between atoms: C_3  and  O_5
REMARK    4  A    between atoms: O_5  and  N_6
REMARK    5  A    between atoms: C_8  and  C_20
REMARK    6  A    between atoms: C_14  and  O_17
REMARK    7  A    between atoms: O_17  and  C_18
REMARK    8  A    between atoms: C_18  and  C_19
REMARK    9  A    between atoms: C_22  and  C_25
REMARK   10  A    between atoms: C_28  and  C_31
REMARK                            x       y       z     vdW  Elec       q    Type
REMARK                         _______ _______ _______ _____ _____    ______ ____
ROOT
ATOM      1  N   UNL     1      -3.011  -2.196   0.019  0.00  0.00    -0.184 N 
ATOM      2  C   UNL     1      -3.365  -3.451   0.016  0.00  0.00    +0.240 A 
ATOM      3  C   UNL     1      -4.794  -3.842   0.021  0.00  0.00    +0.102 A 
ATOM      4  C   UNL     1      -5.115  -5.060  -0.529  0.00  0.00    +0.030 A 
ATOM      5  C   UNL     1      -4.018  -5.868  -1.075  0.00  0.00    +0.022 A 
ATOM      6  C   UNL     1      -4.283  -6.981  -1.882  0.00  0.00    +0.012 A 
ATOM      7  C   UNL     1      -3.239  -7.723  -2.385  0.00  0.00    +0.004 A 
ATOM      8  C   UNL     1      -1.927  -7.376  -2.098  0.00  0.00    +0.049 A 
ATOM      9  C   UNL     1      -1.648  -6.279  -1.300  0.00  0.00    +0.163 A 
ATOM     10  C   UNL     1      -2.690  -5.517  -0.781  0.00  0.00    +0.179 A 
ATOM     11  O   UNL     1      -2.434  -4.443   0.001  0.00  0.00    -0.432 OA
ATOM     12  H   UNL     1      -3.688  -1.501   0.029  0.00  0.00    +0.211 HD
ENDROOT
BRANCH   3  13
ATOM     13  C   UNL     1      -5.827  -2.962   0.593  0.00  0.00    +0.264 A 
ATOM     14  N   UNL     1      -7.115  -3.220   0.649  0.00  0.00    -0.187 NA
ATOM     15  C   UNL     1      -7.761  -2.200   1.234  0.00  0.00    +0.202 A 
ATOM     16  N   UNL     1      -6.889  -1.276   1.558  0.00  0.00    -0.056 NA
ATOM     17  O   UNL     1      -5.616  -1.757   1.153  0.00  0.00    -0.332 OA
BRANCH  15  18
ATOM     18  C   UNL     1      -9.224  -2.129   1.475  0.00  0.00    +0.022 A 
ATOM     19  C   UNL     1     -10.049  -3.183   1.087  0.00  0.00    +0.012 A 
ATOM     20  C   UNL     1     -11.408  -3.112   1.313  0.00  0.00    +0.004 A 
ATOM     21  C   UNL     1     -11.953  -1.997   1.924  0.00  0.00    -0.050 A 
ATOM     22  C   UNL     1     -11.139  -0.948   2.311  0.00  0.00    +0.004 A 
ATOM     23  C   UNL     1      -9.777  -1.011   2.094  0.00  0.00    +0.012 A 
ATOM     24  C   UNL     1     -13.438  -1.925   2.168  0.00  0.00    +0.044 C 
ENDBRANCH  15  18
ENDBRANCH   3  13
BRANCH   1  25
ATOM     25  O   UNL     1      -1.639  -1.847   0.008  0.00  0.00    -0.339 OA
BRANCH  25  26
ATOM     26  C   UNL     1      -1.412  -0.526   0.013  0.00  0.00    +0.333 C 
ATOM     27  O   UNL     1      -2.344   0.249   0.026  0.00  0.00    -0.248 OA
BRANCH  26  29
ATOM     28  C   UNL     1      -0.019   1.526   0.010  0.00  0.00    +0.015 C 
ATOM     29  C   UNL     1       0.002  -0.004   0.002  0.00  0.00    +0.120 C 
ENDBRANCH  26  29
ENDBRANCH  25  26
ENDBRANCH   1  25
BRANCH   9  30
ATOM     30  O   UNL     1      -0.358  -5.947  -1.025  0.00  0.00    -0.489 OA
BRANCH  30  31
ATOM     31  C   UNL     1       0.659  -6.774  -1.592  0.00  0.00    +0.226 C 
ATOM     32  C   UNL     1       2.035  -6.249  -1.175  0.00  0.00    +0.048 C 
ENDBRANCH  30  31
ENDBRANCH   9  30
TORSDOF 7
