REMARK  Name = ZINC21075914
REMARK  10 active torsions:
REMARK  status: ('A' for Active; 'I' for Inactive)
REMARK    1  A    between atoms: C_2  and  C_3
REMARK    2  A    between atoms: C_3  and  C_4
REMARK    3  A    between atoms: C_8  and  C_11
REMARK    4  A    between atoms: C_9  and  O_10
REMARK    5  A    between atoms: N_12  and  N_13
REMARK    6  A    between atoms: C_16  and  S_19
REMARK    7  A    between atoms: S_19  and  C_20
REMARK    8  A    between atoms: C_20  and  C_21
REMARK    9  A    between atoms: C_21  and  C_22
REMARK   10  A    between atoms: N_24  and  C_25
REMARK                            x       y       z     vdW  Elec       q    Type
REMARK                         _______ _______ _______ _____ _____    ______ ____
ROOT
ATOM      1  N   UNL     1       4.864   4.155  -0.014  0.00  0.00    -0.205 N 
ATOM      2  C   UNL     1       4.853   5.543  -0.008  0.00  0.00    +0.232 A 
ATOM      3  N   UNL     1       5.954   6.354  -0.006  0.00  0.00    -0.186 NA
ATOM      4  C   UNL     1       5.522   7.650   0.000  0.00  0.00    +0.210 A 
ATOM      5  N   UNL     1       4.210   7.641   0.002  0.00  0.00    -0.144 NA
ATOM      6  N   UNL     1       3.787   6.305  -0.008  0.00  0.00    -0.245 N 
ATOM      7  H   UNL     1       5.820   3.612  -0.018  0.00  0.00    +0.177 HD
ATOM      8  H   UNL     1       2.785   5.850  -0.015  0.00  0.00    +0.192 HD
ENDROOT
BRANCH   1  10
ATOM      9  C   UNL     1       3.665   2.147  -0.021  0.00  0.00    +0.142 C 
ATOM     10  N   UNL     1       3.655   3.446  -0.015  0.00  0.00    -0.187 NA
BRANCH   9  15
ATOM     11  C   UNL     1      -0.015   1.378  -0.016  0.00  0.00    -0.002 A 
ATOM     12  C   UNL     1       0.004  -0.005  -0.022  0.00  0.00    +0.007 A 
ATOM     13  C   UNL     1       1.207  -0.688  -0.028  0.00  0.00    +0.001 A 
ATOM     14  C   UNL     1       2.400   0.004  -0.028  0.00  0.00    +0.013 A 
ATOM     15  C   UNL     1       2.394   1.401  -0.021  0.00  0.00    +0.036 A 
ATOM     16  C   UNL     1       1.173   2.089  -0.016  0.00  0.00    +0.129 A 
BRANCH  16  17
ATOM     17  O   UNL     1       1.155   3.447  -0.010  0.00  0.00    -0.506 OA
ATOM     18  H   UNL     1       2.100   4.010  -0.010  0.00  0.00    +0.292 HD
ENDBRANCH  16  17
BRANCH  11  19
ATOM     19  C   UNL     1      -1.331   2.113  -0.017  0.00  0.00    +0.065 C 
BRANCH  19  21
ATOM     20  C   UNL     1      -2.865   2.101  -1.916  0.00  0.00    +0.004 C 
ATOM     21  C   UNL     1      -1.706   2.471  -1.431  0.00  0.00    -0.030 C 
ENDBRANCH  19  21
ENDBRANCH  11  19
ENDBRANCH   9  15
ENDBRANCH   1  10
BRANCH   4  22
ATOM     22  S   UNL     1       6.547   9.083   0.004  0.00  0.00    -0.084 S 
BRANCH  22  23
ATOM     23  C   UNL     1       5.371  10.464   0.012  0.00  0.00    +0.086 C 
BRANCH  23  24
ATOM     24  C   UNL     1       6.138  11.788   0.015  0.00  0.00    +0.107 C 
BRANCH  24  25
ATOM     25  C   UNL     1       5.161  12.935   0.022  0.00  0.00    +0.218 C 
ATOM     26  O   UNL     1       3.969  12.716   0.024  0.00  0.00    -0.275 OA
ATOM     27  N   UNL     1       5.613  14.205   0.026  0.00  0.00    -0.285 N 
ATOM     28  H   UNL     1       6.692  14.405   0.102  0.00  0.00    +0.155 HD
BRANCH  27  29
ATOM     29  C   UNL     1       4.709  15.270  -0.065  0.00  0.00    +0.033 A 
ATOM     30  C   UNL     1       5.061  16.423  -0.754  0.00  0.00    +0.024 A 
ATOM     31  C   UNL     1       4.165  17.470  -0.847  0.00  0.00    +0.017 A 
ATOM     32  C   UNL     1       2.922  17.375  -0.245  0.00  0.00    +0.018 A 
ATOM     33  C   UNL     1       2.572  16.229   0.446  0.00  0.00    +0.017 A 
ATOM     34  C   UNL     1       3.462  15.177   0.538  0.00  0.00    +0.024 A 
ATOM     35 BR   UNL     1       1.701  18.813  -0.370  0.00  0.00    -0.050 Br
ENDBRANCH  27  29
ENDBRANCH  24  25
ENDBRANCH  23  24
ENDBRANCH  22  23
ENDBRANCH   4  22
TORSDOF 10
