REMARK  Name = ZINC08439522
REMARK  10 active torsions:
REMARK  status: ('A' for Active; 'I' for Inactive)
REMARK    1  A    between atoms: C_1  and  C_2
REMARK    2  A    between atoms: C_7  and  N_8
REMARK    3  A    between atoms: C_9  and  C_11
REMARK    4  A    between atoms: C_12  and  C_37
REMARK    5  A    between atoms: C_14  and  S_25
REMARK    6  A    between atoms: C_15  and  C_23
REMARK    7  A    between atoms: C_16  and  C_18
REMARK    8  A    between atoms: S_25  and  C_26
REMARK    9  A    between atoms: C_26  and  C_27
REMARK   10  A    between atoms: N_29  and  C_30
REMARK                            x       y       z     vdW  Elec       q    Type
REMARK                         _______ _______ _______ _____ _____    ______ ____
ROOT
ATOM      1  C   UNL     1      10.830  -2.427  -1.112  0.00  0.00    +0.047 C 
ATOM      2  C   UNL     1       9.558  -2.833  -0.971  0.00  0.00    +0.015 C 
ATOM      3  N   UNL     1       8.594  -1.981  -0.506  0.00  0.00    -0.312 N 
ATOM      4  C   UNL     1       8.809  -0.621  -0.516  0.00  0.00    +0.080 C 
ATOM      5  C   UNL     1      10.068  -0.122  -0.645  0.00  0.00    +0.072 C 
ATOM      6  C   UNL     1      11.258  -1.031  -0.760  0.00  0.00    +0.134 C 
ATOM      7  C   UNL     1       9.187  -4.248  -1.330  0.00  0.00    +0.061 C 
ATOM      8  H   UNL     1       7.644  -2.382  -0.123  0.00  0.00    +0.152 HD
ENDROOT
BRANCH   6   9
ATOM      9  C   UNL     1      11.998  -1.055   0.552  0.00  0.00    +0.118 A 
ATOM     10  C   UNL     1      13.271  -0.666   0.745  0.00  0.00    +0.045 A 
ATOM     11  C   UNL     1      13.554  -0.854   2.117  0.00  0.00    +0.041 A 
ATOM     12  C   UNL     1      12.440  -1.355   2.680  0.00  0.00    +0.195 A 
ATOM     13  O   UNL     1      11.501  -1.475   1.727  0.00  0.00    -0.467 OA
ENDBRANCH   6   9
BRANCH   1  15
ATOM     14  N   UNL     1      13.076  -2.951  -1.753  0.00  0.00    -0.281 N 
ATOM     15  C   UNL     1      11.794  -3.339  -1.605  0.00  0.00    +0.247 C 
ATOM     16  O   UNL     1      11.465  -4.475  -1.894  0.00  0.00    -0.270 OA
ATOM     17  H   UNL     1      13.389  -1.950  -1.421  0.00  0.00    +0.155 HD
BRANCH  14  24
ATOM     18  C   UNL     1      15.124  -1.835  -3.383  0.00  0.00    +0.045 C 
ATOM     19  C   UNL     1      15.024  -3.317  -3.133  0.00  0.00    -0.029 A 
ATOM     20  C   UNL     1      15.945  -4.177  -3.697  0.00  0.00    +0.005 A 
ATOM     21  C   UNL     1      15.851  -5.538  -3.472  0.00  0.00    +0.000 A 
ATOM     22  C   UNL     1      14.837  -6.042  -2.677  0.00  0.00    +0.002 A 
ATOM     23  C   UNL     1      13.916  -5.187  -2.106  0.00  0.00    +0.023 A 
ATOM     24  C   UNL     1      14.008  -3.819  -2.330  0.00  0.00    +0.037 A 
ENDBRANCH  14  24
ENDBRANCH   1  15
BRANCH   5  25
ATOM     25  C   UNL     1      10.262   1.296  -0.667  0.00  0.00    +0.098 C 
ATOM     26  N   UNL     1      10.417   2.422  -0.685  0.00  0.00    -0.191 NA
ENDBRANCH   5  25
BRANCH   4  27
ATOM     27  S   UNL     1       7.442   0.482  -0.368  0.00  0.00    -0.100 S 
BRANCH  27  28
ATOM     28  C   UNL     1       6.088  -0.712  -0.241  0.00  0.00    +0.171 C 
BRANCH  28  29
ATOM     29  C   UNL     1       4.780   0.025  -0.102  0.00  0.00    +0.227 C 
ATOM     30  O   UNL     1       4.766   1.237  -0.090  0.00  0.00    -0.275 OA
ATOM     31  N   UNL     1       3.627  -0.664   0.009  0.00  0.00    -0.285 N 
ATOM     32  H   UNL     1       3.648  -1.761   0.095  0.00  0.00    +0.155 HD
BRANCH  31  33
ATOM     33  C   UNL     1       2.404   0.016   0.015  0.00  0.00    +0.033 A 
ATOM     34  C   UNL     1       2.292   1.253  -0.606  0.00  0.00    +0.025 A 
ATOM     35  C   UNL     1       1.084   1.922  -0.598  0.00  0.00    +0.022 A 
ATOM     36  C   UNL     1      -0.015   1.360   0.029  0.00  0.00    +0.041 A 
ATOM     37  C   UNL     1       0.094   0.128   0.649  0.00  0.00    +0.022 A 
ATOM     38  C   UNL     1       1.300  -0.545   0.643  0.00  0.00    +0.025 A 
ATOM     39 CL   UNL     1      -1.530   2.207   0.044  0.00  0.00    -0.084 Cl
ENDBRANCH  31  33
ENDBRANCH  28  29
ENDBRANCH  27  28
ENDBRANCH   4  27
TORSDOF 8
