REMARK  Name = ZINC34145401
REMARK  9 active torsions:
REMARK  status: ('A' for Active; 'I' for Inactive)
REMARK    1  A    between atoms: C_1  and  C_2
REMARK    2  A    between atoms: C_6  and  C_32
REMARK    3  A    between atoms: C_8  and  O_11
REMARK    4  A    between atoms: O_11  and  C_12
REMARK    5  A    between atoms: C_12  and  C_14
REMARK    6  A    between atoms: C_15  and  C_31
REMARK    7  A    between atoms: C_22  and  C_24
REMARK    8  A    between atoms: C_32  and  C_33
REMARK    9  A    between atoms: C_32  and  C_34
REMARK                            x       y       z     vdW  Elec       q    Type
REMARK                         _______ _______ _______ _____ _____    ______ ____
ROOT
ATOM      1  C   UNL     1       2.827  -3.208   3.044  0.00  0.00    +0.082 C 
ATOM      2  C   UNL     1       3.205  -2.426   4.067  0.00  0.00    +0.020 C 
ATOM      3  N   UNL     1       3.874  -2.920   5.159  0.00  0.00    -0.286 N 
ATOM      4  C   UNL     1       3.929  -4.299   5.303  0.00  0.00    +0.240 A 
ATOM      5  N   UNL     1       4.292  -5.037   6.312  0.00  0.00    -0.092 NA
ATOM      6  N   UNL     1       4.181  -6.287   6.015  0.00  0.00    -0.021 NA
ATOM      7  N   UNL     1       3.744  -6.425   4.805  0.00  0.00    -0.042 NA
ATOM      8  N   UNL     1       3.568  -5.139   4.298  0.00  0.00    -0.201 N 
ATOM      9  C   UNL     1       3.103  -4.688   2.994  0.00  0.00    +0.181 C 
ATOM     10  C   UNL     1       2.885  -0.954   4.014  0.00  0.00    +0.061 C 
ATOM     11  H   UNL     1       4.293  -2.329   5.804  0.00  0.00    +0.155 HD
ENDROOT
BRANCH   9  12
ATOM     12  C   UNL     1       4.166  -4.966   1.962  0.00  0.00    -0.018 A 
ATOM     13  C   UNL     1       5.449  -4.487   2.147  0.00  0.00    +0.007 A 
ATOM     14  C   UNL     1       6.425  -4.743   1.201  0.00  0.00    +0.015 A 
ATOM     15  C   UNL     1       6.116  -5.478   0.071  0.00  0.00    +0.018 A 
ATOM     16  C   UNL     1       4.832  -5.957  -0.113  0.00  0.00    +0.015 A 
ATOM     17  C   UNL     1       3.858  -5.705   0.835  0.00  0.00    +0.007 A 
ATOM     18 BR   UNL     1       7.450  -5.827  -1.223  0.00  0.00    -0.050 Br
ENDBRANCH   9  12
BRANCH   1  19
ATOM     19  C   UNL     1       2.131  -2.616   1.966  0.00  0.00    +0.339 C 
ATOM     20  O   UNL     1       2.723  -2.339   0.939  0.00  0.00    -0.245 OA
BRANCH  19  21
ATOM     21  O   UNL     1       0.811  -2.358   2.074  0.00  0.00    -0.458 OA
BRANCH  21  27
ATOM     22  C   UNL     1      -0.247   1.702  -0.485  0.00  0.00    +0.007 C 
ATOM     23  C   UNL     1      -0.404   0.182  -0.412  0.00  0.00    -0.011 C 
ATOM     24  C   UNL     1      -1.891  -0.174  -0.343  0.00  0.00    +0.004 C 
ATOM     25  C   UNL     1      -2.048  -1.694  -0.271  0.00  0.00    +0.007 C 
ATOM     26  C   UNL     1      -1.338  -2.222   0.978  0.00  0.00    +0.032 C 
ATOM     27  C   UNL     1       0.148  -1.866   0.908  0.00  0.00    +0.180 C 
ATOM     28  C   UNL     1       0.305  -0.345   0.836  0.00  0.00    +0.048 C 
BRANCH  26  29
ATOM     29  C   UNL     1      -1.495  -3.742   1.050  0.00  0.00    -0.011 C 
ATOM     30  C   UNL     1      -2.969  -4.093   1.264  0.00  0.00    +0.007 C 
ATOM     31  C   UNL     1      -1.006  -4.368  -0.258  0.00  0.00    +0.007 C 
ENDBRANCH  26  29
ENDBRANCH  21  27
ENDBRANCH  19  21
ENDBRANCH   1  19
TORSDOF 5
