REMARK  Name = ZINC43265363
REMARK  7 active torsions:
REMARK  status: ('A' for Active; 'I' for Inactive)
REMARK    1  A    between atoms: C_1  and  C_2
REMARK    2  A    between atoms: C_2  and  C_3
REMARK    3  A    between atoms: C_3  and  C_5
REMARK    4  A    between atoms: C_3  and  N_22
REMARK    5  A    between atoms: C_5  and  C_7
REMARK    6  A    between atoms: C_5  and  O_13
REMARK    7  A    between atoms: O_13  and  C_14
REMARK                            x       y       z     vdW  Elec       q    Type
REMARK                         _______ _______ _______ _____ _____    ______ ____
ROOT
ATOM      1  C   UNL     1       0.652  -2.049   1.296  0.00  0.00    +0.196 C 
ENDROOT
BRANCH   1   2
ATOM      2  C   UNL     1      -0.778  -2.522   1.345  0.00  0.00    +0.029 A 
ATOM      3  C   UNL     1      -1.556  -2.994   0.341  0.00  0.00    +0.016 A 
ATOM      4  C   UNL     1      -2.855  -3.375   0.621  0.00  0.00    +0.023 A 
ATOM      5  C   UNL     1      -3.312  -3.266   1.893  0.00  0.00    +0.055 A 
ATOM      6  S   UNL     1      -1.884  -2.615   2.744  0.00  0.00    -0.083 S 
ATOM      7 BR   UNL     1      -5.017  -3.698   2.587  0.00  0.00    -0.043 Br
ENDBRANCH   1   2
BRANCH   1   8
ATOM      8  C   UNL     1       0.682  -0.520   1.259  0.00  0.00    -0.029 C 
BRANCH   8   9
ATOM      9  N   UNL     1       2.075  -0.058   1.211  0.00  0.00    +0.383 N 
ATOM     10  H   UNL     1       2.095   0.950   1.186  0.00  0.00    -0.089 HD
ATOM     11  H   UNL     1       2.566  -0.384   2.030  0.00  0.00    -0.089 HD
ATOM     12  H   UNL     1       2.522  -0.424   0.383  0.00  0.00    -0.089 HD
ENDBRANCH   8   9
BRANCH   8  14
ATOM     13  C   UNL     1      -0.141   1.503   0.044  0.00  0.00    +0.002 C 
ATOM     14  C   UNL     1      -0.062  -0.025   0.017  0.00  0.00    -0.016 C 
ENDBRANCH   8  14
ENDBRANCH   1   8
BRANCH   1  15
ATOM     15  O   UNL     1       1.347  -2.511   2.456  0.00  0.00    -0.485 OA
BRANCH  15  16
ATOM     16  C   UNL     1       2.639  -2.896   2.289  0.00  0.00    +0.124 A 
ATOM     17  C   UNL     1       3.263  -2.719   1.062  0.00  0.00    +0.048 A 
ATOM     18  C   UNL     1       4.577  -3.111   0.892  0.00  0.00    +0.045 A 
ATOM     19  C   UNL     1       5.272  -3.682   1.944  0.00  0.00    +0.159 A 
ATOM     20  C   UNL     1       4.651  -3.861   3.171  0.00  0.00    +0.162 A 
ATOM     21  C   UNL     1       3.337  -3.462   3.345  0.00  0.00    +0.087 A 
ATOM     22  F   UNL     1       5.329  -4.418   4.197  0.00  0.00    -0.202 F 
ATOM     23  F   UNL     1       6.556  -4.065   1.776  0.00  0.00    -0.202 F 
ENDBRANCH  15  16
ENDBRANCH   1  15
TORSDOF 6
