REMARK  Name = ZINC02791311
REMARK  10 active torsions:
REMARK  status: ('A' for Active; 'I' for Inactive)
REMARK    1  A    between atoms: C_1  and  N_55
REMARK    2  A    between atoms: C_2  and  N_55
REMARK    3  A    between atoms: C_3  and  C_4
REMARK    4  A    between atoms: C_3  and  N_55
REMARK    5  A    between atoms: C_4  and  C_5
REMARK    6  A    between atoms: C_5  and  N_6
REMARK    7  A    between atoms: C_7  and  C_12
REMARK    8  A    between atoms: C_10  and  S_11
REMARK    9  A    between atoms: C_17  and  C_30
REMARK   10  A    between atoms: C_20  and  C_23
REMARK                            x       y       z     vdW  Elec       q    Type
REMARK                         _______ _______ _______ _____ _____    ______ ____
ROOT
ATOM      1  C   UNL     1      -0.684   3.558   0.024  0.00  0.00    +0.132 A 
ATOM      2  C   UNL     1       0.728   3.528   0.010  0.00  0.00    +0.076 A 
ATOM      3  C   UNL     1       1.108   2.235   0.004  0.00  0.00    +0.119 A 
ATOM      4  N   UNL     1      -0.018   1.461   0.010  0.00  0.00    -0.238 N 
ATOM      5  N   UNL     1      -1.122   2.312   0.019  0.00  0.00    -0.166 NA
ATOM      6  C   UNL     1       0.002  -0.004   0.002  0.00  0.00    +0.215 C 
ATOM      7  C   UNL     1       1.373  -0.479  -0.494  0.00  0.00    +0.063 C 
ATOM      8  C   UNL     1       2.485   0.241   0.277  0.00  0.00    +0.104 C 
ATOM      9  N   UNL     1       2.393   1.687  -0.007  0.00  0.00    -0.322 N 
ATOM     10  H   UNL     1       3.179   2.224  -0.190  0.00  0.00    +0.148 HD
ENDROOT
BRANCH   8  11
ATOM     11  C   UNL     1       2.311   0.004   1.755  0.00  0.00    -0.027 A 
ATOM     12  C   UNL     1       1.390   0.747   2.471  0.00  0.00    +0.007 A 
ATOM     13  C   UNL     1       1.226   0.526   3.825  0.00  0.00    +0.020 A 
ATOM     14  C   UNL     1       1.991  -0.432   4.467  0.00  0.00    +0.041 A 
ATOM     15  C   UNL     1       2.916  -1.171   3.752  0.00  0.00    +0.020 A 
ATOM     16  C   UNL     1       3.075  -0.953   2.396  0.00  0.00    +0.007 A 
ATOM     17 CL   UNL     1       1.791  -0.705   6.170  0.00  0.00    -0.084 Cl
ENDBRANCH   8  11
BRANCH   1  19
ATOM     18  N   UNL     1      -2.901   4.817   0.043  0.00  0.00    -0.301 N 
ATOM     19  C   UNL     1      -1.526   4.774   0.035  0.00  0.00    +0.185 A 
ATOM     20  N   UNL     1      -1.102   6.016   0.035  0.00  0.00    -0.127 NA
ATOM     21  N   UNL     1      -2.103   6.822   0.046  0.00  0.00    -0.122 NA
ATOM     22  C   UNL     1      -3.228   6.143   0.055  0.00  0.00    +0.189 A 
BRANCH  22  23
ATOM     23  S   UNL     1      -4.856   6.817   0.072  0.00  0.00    -0.103 S 
ATOM     24  H   UNL     1      -5.095   6.915  -1.314  0.00  0.00    +0.110 HD
ENDBRANCH  22  23
BRANCH  18  25
ATOM     25  C   UNL     1      -3.821   3.677   0.041  0.00  0.00    +0.124 C 
BRANCH  25  26
ATOM     26  C   UNL     1      -4.134   3.272   1.483  0.00  0.00    +0.003 C 
BRANCH  26  27
ATOM     27  C   UNL     1      -5.096   2.083   1.482  0.00  0.00    -0.078 C 
BRANCH  27  30
ATOM     28  C   UNL     1      -6.492   0.717   2.913  0.00  0.00    -0.097 C 
ATOM     29  C   UNL     1      -4.199   1.174   3.539  0.00  0.00    -0.097 C 
ATOM     30  N   UNL     1      -5.405   1.718   2.880  0.00  0.00    +0.376 N 
ATOM     31  H   UNL     1      -5.711   2.558   3.385  0.00  0.00    -0.083 HD
ENDBRANCH  27  30
ENDBRANCH  26  27
ENDBRANCH  25  26
ENDBRANCH  18  25
ENDBRANCH   1  19
BRANCH   6  32
ATOM     32  C   UNL     1      -1.090  -0.526  -0.933  0.00  0.00    +0.412 C 
ATOM     33  F   UNL     1      -0.862  -0.051  -2.229  0.00  0.00    -0.168 F 
ATOM     34  F   UNL     1      -1.070  -1.925  -0.939  0.00  0.00    -0.168 F 
ATOM     35  F   UNL     1      -2.339  -0.080  -0.487  0.00  0.00    -0.168 F 
ENDBRANCH   6  32
TORSDOF 8
