REMARK  Name = ZINC58949566
REMARK  6 active torsions:
REMARK  status: ('A' for Active; 'I' for Inactive)
REMARK    1  A    between atoms: C_1  and  C_2
REMARK    2  A    between atoms: C_6  and  C_7
REMARK    3  A    between atoms: C_9  and  C_19
REMARK    4  A    between atoms: C_10  and  C_18
REMARK    5  A    between atoms: C_12  and  N_17
REMARK    6  A    between atoms: C_13  and  C_14
REMARK                            x       y       z     vdW  Elec       q    Type
REMARK                         _______ _______ _______ _____ _____    ______ ____
ROOT
ATOM      1  C   UNL     1      -0.204  -0.285   2.682  0.00  0.00    +0.104 C 
ATOM      2  C   UNL     1       1.289  -0.348   2.856  0.00  0.00    +0.064 C 
ATOM      3  C   UNL     1       1.856  -1.263   3.650  0.00  0.00    +0.113 C 
ATOM      4  O   UNL     1       1.129  -2.166   4.328  0.00  0.00    -0.446 OA
ATOM      5  C   UNL     1      -0.184  -1.954   4.529  0.00  0.00    +0.193 C 
ATOM      6  C   UNL     1      -0.879  -1.068   3.775  0.00  0.00    +0.083 C 
ATOM      7  C   UNL     1       3.357  -1.281   3.788  0.00  0.00    +0.087 C 
ENDROOT
BRANCH   1  13
ATOM      8  C   UNL     1      -1.461   1.211   0.312  0.00  0.00    +0.044 C 
ATOM      9  C   UNL     1      -1.131  -0.259   0.269  0.00  0.00    -0.039 A 
ATOM     10  C   UNL     1      -1.383  -1.001  -0.869  0.00  0.00    +0.011 A 
ATOM     11  C   UNL     1      -1.073  -2.321  -0.875  0.00  0.00    +0.046 A 
ATOM     12  S   UNL     1      -0.404  -2.550   0.764  0.00  0.00    -0.100 S 
ATOM     13  C   UNL     1      -0.576  -0.871   1.344  0.00  0.00    +0.005 A 
ENDBRANCH   1  13
BRANCH   6  14
ATOM     14  C   UNL     1      -2.251  -0.878   4.020  0.00  0.00    +0.243 C 
ATOM     15  O   UNL     1      -2.633   0.119   4.607  0.00  0.00    -0.271 OA
ATOM     16  N   UNL     1      -3.143  -1.800   3.606  0.00  0.00    -0.325 N 
ATOM     17  H   UNL     1      -2.835  -2.627   3.205  0.00  0.00    +0.145 HD
ATOM     18  H   UNL     1      -4.093  -1.635   3.710  0.00  0.00    +0.145 HD
ENDBRANCH   6  14
BRANCH   2  19
ATOM     19  C   UNL     1       2.135   0.609   2.145  0.00  0.00    +0.242 C 
ATOM     20  O   UNL     1       2.267   1.740   2.573  0.00  0.00    -0.271 OA
ATOM     21  N   UNL     1       2.768   0.237   1.014  0.00  0.00    -0.325 N 
ATOM     22  H   UNL     1       2.662  -0.664   0.673  0.00  0.00    +0.145 HD
ATOM     23  H   UNL     1       3.329   0.872   0.542  0.00  0.00    +0.145 HD
ENDBRANCH   2  19
BRANCH   5  24
ATOM     24  N   UNL     1      -0.831  -2.649   5.516  0.00  0.00    -0.329 N 
ATOM     25  H   UNL     1      -0.330  -3.231   6.108  0.00  0.00    +0.145 HD
ATOM     26  H   UNL     1      -1.791  -2.559   5.623  0.00  0.00    +0.145 HD
ENDBRANCH   5  24
TORSDOF 4
