REMARK  Name = ZINC59485826
REMARK  3 active torsions:
REMARK  status: ('A' for Active; 'I' for Inactive)
REMARK    1  A    between atoms: C_1  and  C_2
REMARK    2  A    between atoms: C_22  and  C_30
REMARK    3  A    between atoms: C_30  and  C_32
REMARK                            x       y       z     vdW  Elec       q    Type
REMARK                         _______ _______ _______ _____ _____    ______ ____
ROOT
ATOM      1  C   UNL     1      -0.164   1.542   0.074  0.00  0.00    +0.044 C 
ATOM      2  C   UNL     1      -0.210   0.036   0.066  0.00  0.00    -0.050 A 
ATOM      3  C   UNL     1      -0.325  -0.647  -1.131  0.00  0.00    +0.005 A 
ATOM      4  C   UNL     1      -0.368  -2.026  -1.145  0.00  0.00    +0.024 A 
ATOM      5  C   UNL     1      -0.296  -2.741   0.048  0.00  0.00    +0.039 A 
ATOM      6  C   UNL     1      -0.181  -2.043   1.246  0.00  0.00    +0.004 A 
ATOM      7  C   UNL     1      -0.133  -0.667   1.255  0.00  0.00    +0.011 A 
ATOM      8  C   UNL     1      -0.129  -3.085   2.331  0.00  0.00    +0.145 C 
ATOM      9  C   UNL     1      -0.227  -4.401   1.603  0.00  0.00    +0.244 C 
ATOM     10  O   UNL     1      -0.223  -5.506   2.104  0.00  0.00    -0.273 OA
ATOM     11  N   UNL     1      -0.319  -4.116   0.291  0.00  0.00    -0.283 N 
ATOM     12  C   UNL     1       1.165  -2.990   3.132  0.00  0.00    +0.116 C 
ATOM     13  C   UNL     1       1.995  -4.236   3.011  0.00  0.00    -0.008 A 
ATOM     14  C   UNL     1       1.761  -5.562   3.297  0.00  0.00    +0.006 A 
ATOM     15  C   UNL     1       2.749  -6.505   3.073  0.00  0.00    +0.000 A 
ATOM     16  C   UNL     1       3.971  -6.111   2.560  0.00  0.00    +0.002 A 
ATOM     17  C   UNL     1       4.211  -4.783   2.271  0.00  0.00    +0.023 A 
ATOM     18  C   UNL     1       3.222  -3.828   2.494  0.00  0.00    +0.038 A 
ATOM     19  N   UNL     1       3.223  -2.447   2.287  0.00  0.00    -0.284 N 
ATOM     20  C   UNL     1       2.052  -1.880   2.635  0.00  0.00    +0.231 C 
ATOM     21  O   UNL     1       1.767  -0.704   2.561  0.00  0.00    -0.274 OA
ATOM     22  C   UNL     1       0.739  -2.745   4.589  0.00  0.00    +0.099 C 
ATOM     23  C   UNL     1      -0.694  -2.177   4.442  0.00  0.00    +0.070 C 
ATOM     24  N   UNL     1      -1.252  -2.922   3.272  0.00  0.00    -0.281 NA
ATOM     25  C   UNL     1      -1.638  -4.245   3.817  0.00  0.00    +0.086 C 
ATOM     26  C   UNL     1      -2.178  -3.962   5.233  0.00  0.00    +0.017 C 
ATOM     27  C   UNL     1      -1.535  -2.609   5.655  0.00  0.00    +0.021 C 
ATOM     28  H   UNL     1      -0.394  -4.787  -0.405  0.00  0.00    +0.155 HD
ATOM     29  H   UNL     1       3.979  -1.954   1.933  0.00  0.00    +0.155 HD
ENDROOT
BRANCH  22  30
ATOM     30  C   UNL     1       0.727  -4.036   5.366  0.00  0.00    +0.169 C 
ATOM     31  O   UNL     1      -0.283  -4.707   5.412  0.00  0.00    -0.292 OA
BRANCH  30  32
ATOM     32  C   UNL     1       1.938  -4.483   6.066  0.00  0.00    +0.021 A 
ATOM     33  C   UNL     1       3.103  -3.708   6.020  0.00  0.00    +0.015 A 
ATOM     34  C   UNL     1       4.236  -4.129   6.677  0.00  0.00    +0.050 A 
ATOM     35  C   UNL     1       4.230  -5.323   7.389  0.00  0.00    +0.166 A 
ATOM     36  C   UNL     1       3.072  -6.101   7.440  0.00  0.00    +0.167 A 
ATOM     37  C   UNL     1       1.929  -5.683   6.788  0.00  0.00    +0.061 A 
ATOM     38  O   UNL     1       3.326  -7.210   8.195  0.00  0.00    -0.453 OA
ATOM     39  C   UNL     1       4.761  -7.307   8.263  0.00  0.00    +0.466 C 
ATOM     40  O   UNL     1       5.204  -5.945   8.111  0.00  0.00    -0.453 OA
ENDBRANCH  30  32
ENDBRANCH  22  30
TORSDOF 2
