REMARK  Name = ZINC16013052
REMARK  11 active torsions:
REMARK  status: ('A' for Active; 'I' for Inactive)
REMARK    1  A    between atoms: C_1  and  C_2
REMARK    2  A    between atoms: C_2  and  C_3
REMARK    3  A    between atoms: C_3  and  C_4
REMARK    4  A    between atoms: C_4  and  C_5
REMARK    5  A    between atoms: C_5  and  N_6
REMARK    6  A    between atoms: C_15  and  C_17
REMARK    7  A    between atoms: N_19  and  C_20
REMARK    8  A    between atoms: N_19  and  C_21
REMARK    9  A    between atoms: C_21  and  C_22
REMARK   10  A    between atoms: N_24  and  C_25
REMARK   11  A    between atoms: C_30  and  C_31
REMARK                            x       y       z     vdW  Elec       q    Type
REMARK                         _______ _______ _______ _____ _____    ______ ____
ROOT
ATOM      1  C   UNL     1      -0.075  -2.048   4.247  0.00  0.00    +0.267 C 
ATOM      2  O   UNL     1       0.518  -2.502   5.206  0.00  0.00    -0.268 OA
ATOM      3  N   UNL     1      -1.260  -2.572   3.877  0.00  0.00    -0.290 N 
ATOM      4  C   UNL     1      -1.952  -2.058   2.693  0.00  0.00    +0.133 C 
ENDROOT
BRANCH   1  14
ATOM      5  N   UNL     1       0.378   0.452   1.660  0.00  0.00    -0.228 N 
ATOM      6  C   UNL     1       1.479   1.168   1.967  0.00  0.00    +0.275 A 
ATOM      7  O   UNL     1       1.853   2.076   1.247  0.00  0.00    -0.266 OA
ATOM      8  C   UNL     1       2.213   0.831   3.195  0.00  0.00    +0.050 A 
ATOM      9  C   UNL     1       3.357   1.510   3.603  0.00  0.00    +0.014 A 
ATOM     10  C   UNL     1       3.991   1.128   4.765  0.00  0.00    +0.001 A 
ATOM     11  C   UNL     1       3.502   0.076   5.528  0.00  0.00    +0.001 A 
ATOM     12  C   UNL     1       2.370  -0.611   5.141  0.00  0.00    +0.011 A 
ATOM     13  C   UNL     1       1.715  -0.241   3.971  0.00  0.00    +0.020 A 
ATOM     14  C   UNL     1       0.502  -0.921   3.488  0.00  0.00    +0.154 A 
ATOM     15  N   UNL     1      -0.059  -0.514   2.375  0.00  0.00    -0.163 NA
BRANCH   5  16
ATOM     16  C   UNL     1      -0.353   0.796   0.438  0.00  0.00    +0.147 C 
BRANCH  16  17
ATOM     17  C   UNL     1       0.209  -0.007  -0.737  0.00  0.00    +0.023 C 
BRANCH  17  18
ATOM     18  C   UNL     1      -0.555   0.352  -2.013  0.00  0.00    +0.002 C 
BRANCH  18  20
ATOM     19  C   UNL     1      -0.757  -0.092  -4.463  0.00  0.00    +0.004 C 
ATOM     20  C   UNL     1       0.007  -0.451  -3.187  0.00  0.00    -0.003 C 
ENDBRANCH  18  20
ENDBRANCH  17  18
ENDBRANCH  16  17
ENDBRANCH   5  16
ENDBRANCH   1  14
BRANCH   3  21
ATOM     21  C   UNL     1      -1.857  -3.657   4.660  0.00  0.00    +0.203 C 
BRANCH  21  22
ATOM     22  C   UNL     1      -2.737  -3.075   5.737  0.00  0.00    +0.235 C 
ATOM     23  O   UNL     1      -2.853  -1.872   5.840  0.00  0.00    -0.274 OA
ATOM     24  N   UNL     1      -3.393  -3.891   6.585  0.00  0.00    -0.284 N 
ATOM     25  H   UNL     1      -3.359  -4.852   6.457  0.00  0.00    +0.155 HD
BRANCH  24  26
ATOM     26  C   UNL     1      -4.125  -3.351   7.649  0.00  0.00    +0.036 A 
ATOM     27  C   UNL     1      -3.804  -2.095   8.148  0.00  0.00    +0.024 A 
ATOM     28  C   UNL     1      -4.527  -1.565   9.198  0.00  0.00    +0.017 A 
ATOM     29  C   UNL     1      -5.572  -2.284   9.753  0.00  0.00    +0.018 A 
ATOM     30  C   UNL     1      -5.893  -3.536   9.258  0.00  0.00    +0.020 A 
ATOM     31  C   UNL     1      -5.176  -4.068   8.205  0.00  0.00    -0.028 A 
ATOM     32  C   UNL     1      -5.532  -5.428   7.662  0.00  0.00    +0.046 C 
ATOM     33 BR   UNL     1      -6.560  -1.555  11.191  0.00  0.00    -0.050 Br
ENDBRANCH  24  26
ENDBRANCH  21  22
ENDBRANCH   3  21
TORSDOF 8
