REMARK  Name = ZINC02531101
REMARK  12 active torsions:
REMARK  status: ('A' for Active; 'I' for Inactive)
REMARK    1  A    between atoms: C_1  and  O_2
REMARK    2  A    between atoms: O_2  and  C_3
REMARK    3  A    between atoms: C_6  and  C_11
REMARK    4  A    between atoms: C_8  and  O_9
REMARK    5  A    between atoms: O_9  and  C_10
REMARK    6  A    between atoms: C_11  and  O_13
REMARK    7  A    between atoms: O_13  and  C_14
REMARK    8  A    between atoms: C_17  and  C_20
REMARK    9  A    between atoms: N_21  and  N_22
REMARK   10  A    between atoms: C_23  and  C_25
REMARK   11  A    between atoms: C_25  and  O_26
REMARK   12  A    between atoms: O_26  and  C_27
REMARK                            x       y       z     vdW  Elec       q    Type
REMARK                         _______ _______ _______ _____ _____    ______ ____
ROOT
ATOM      1  C   UNL     1       3.496  12.828   0.044  0.00  0.00    +0.132 A 
ATOM      2  C   UNL     1       4.790  12.328   0.125  0.00  0.00    +0.047 A 
ATOM      3  C   UNL     1       5.006  10.967   0.123  0.00  0.00    +0.013 A 
ATOM      4  C   UNL     1       3.922  10.090   0.040  0.00  0.00    -0.005 A 
ATOM      5  C   UNL     1       2.623  10.597  -0.047  0.00  0.00    +0.013 A 
ATOM      6  C   UNL     1       2.415  11.959  -0.039  0.00  0.00    +0.047 A 
ENDROOT
BRANCH   4   7
ATOM      7  C   UNL     1       4.149   8.633   0.037  0.00  0.00    +0.138 C 
ATOM      8  N   UNL     1       3.140   7.819  -0.040  0.00  0.00    -0.188 NA
BRANCH   8   9
ATOM      9  N   UNL     1       3.356   6.435  -0.043  0.00  0.00    -0.204 N 
ATOM     10  C   UNL     1       2.308   5.590  -0.123  0.00  0.00    +0.270 C 
ATOM     11  O   UNL     1       1.179   6.029  -0.194  0.00  0.00    -0.270 OA
ATOM     12  H   UNL     1       4.258   6.085   0.014  0.00  0.00    +0.177 HD
BRANCH  10  13
ATOM     13  C   UNL     1       2.540   4.101  -0.126  0.00  0.00    +0.326 C 
BRANCH  13  14
ATOM     14  O   UNL     1       1.285   3.424  -0.218  0.00  0.00    -0.483 OA
BRANCH  14  15
ATOM     15  C   UNL     1       1.317   2.066  -0.233  0.00  0.00    +0.121 A 
ATOM     16  C   UNL     1       0.135   1.344  -0.321  0.00  0.00    +0.047 A 
ATOM     17  C   UNL     1       0.169  -0.037  -0.335  0.00  0.00    +0.019 A 
ATOM     18  C   UNL     1       1.381  -0.700  -0.262  0.00  0.00    +0.018 A 
ATOM     19  C   UNL     1       2.560   0.017  -0.173  0.00  0.00    +0.019 A 
ATOM     20  C   UNL     1       2.530   1.398  -0.159  0.00  0.00    +0.047 A 
ATOM     21 BR   UNL     1       1.425  -2.591  -0.281  0.00  0.00    -0.050 Br
ENDBRANCH  14  15
ENDBRANCH  13  14
ENDBRANCH  10  13
ENDBRANCH   8   9
ENDBRANCH   4   7
BRANCH   1  22
ATOM     22  O   UNL     1       3.287  14.170   0.046  0.00  0.00    -0.422 OA
BRANCH  22  23
ATOM     23  C   UNL     1       3.692  14.854  -1.043  0.00  0.00    +0.345 C 
ATOM     24  O   UNL     1       4.120  14.257  -2.011  0.00  0.00    -0.245 OA
BRANCH  23  28
ATOM     25  C   UNL     1       3.467  19.096  -1.086  0.00  0.00    +0.162 A 
ATOM     26  C   UNL     1       3.051  18.390   0.035  0.00  0.00    +0.050 A 
ATOM     27  C   UNL     1       3.117  17.015   0.050  0.00  0.00    +0.019 A 
ATOM     28  C   UNL     1       3.615  16.326  -1.060  0.00  0.00    +0.063 A 
ATOM     29  C   UNL     1       4.034  17.037  -2.188  0.00  0.00    +0.064 A 
ATOM     30  C   UNL     1       3.959  18.416  -2.199  0.00  0.00    +0.162 A 
BRANCH  25  32
ATOM     31  C   UNL     1       2.881  21.085   0.075  0.00  0.00    +0.277 C 
ATOM     32  O   UNL     1       3.394  20.452  -1.098  0.00  0.00    -0.491 OA
ENDBRANCH  25  32
BRANCH  30  33
ATOM     33  O   UNL     1       4.366  19.111  -3.296  0.00  0.00    -0.491 OA
ATOM     34  C   UNL     1       4.859  18.349  -4.400  0.00  0.00    +0.277 C 
ENDBRANCH  30  33
ENDBRANCH  23  28
ENDBRANCH  22  23
ENDBRANCH   1  22
TORSDOF 10
