REMARK  Name = ZINC03442746
REMARK  7 active torsions:
REMARK  status: ('A' for Active; 'I' for Inactive)
REMARK    1  A    between atoms: C_1  and  C_2
REMARK    2  A    between atoms: C_3  and  C_37
REMARK    3  A    between atoms: C_11  and  C_13
REMARK    4  A    between atoms: C_13  and  C_15
REMARK    5  A    between atoms: C_13  and  S_16
REMARK    6  A    between atoms: S_16  and  C_17
REMARK    7  A    between atoms: N_30  and  C_31
REMARK                            x       y       z     vdW  Elec       q    Type
REMARK                         _______ _______ _______ _____ _____    ______ ____
ROOT
ATOM      1  C   UNL     1      -2.222  -0.057   1.596  0.00  0.00    +0.174 A 
ATOM      2  N   UNL     1      -1.382   0.619   2.354  0.00  0.00    -0.216 NA
ATOM      3  C   UNL     1      -1.754   1.067   3.548  0.00  0.00    +0.117 A 
ATOM      4  C   UNL     1      -3.040   0.838   4.064  0.00  0.00    +0.076 A 
ATOM      5  C   UNL     1      -3.301   1.387   5.396  0.00  0.00    -0.023 A 
ATOM      6  C   UNL     1      -2.292   2.054   5.992  0.00  0.00    -0.004 A 
ATOM      7  S   UNL     1      -0.951   1.991   4.833  0.00  0.00    -0.073 S 
ATOM      8  C   UNL     1      -2.305   2.705   7.341  0.00  0.00    +0.043 C 
ATOM      9  C   UNL     1      -3.763   2.825   7.807  0.00  0.00    +0.005 C 
ATOM     10  C   UNL     1      -4.459   1.477   7.593  0.00  0.00    +0.005 C 
ATOM     11  C   UNL     1      -4.647   1.223   6.096  0.00  0.00    +0.037 C 
ATOM     12  C   UNL     1      -3.928   0.098   3.222  0.00  0.00    +0.263 A 
ATOM     13  O   UNL     1      -5.065  -0.148   3.586  0.00  0.00    -0.267 OA
ATOM     14  N   UNL     1      -3.491  -0.323   2.020  0.00  0.00    -0.284 N 
ENDROOT
BRANCH  14  15
ATOM     15  C   UNL     1      -4.395  -1.082   1.152  0.00  0.00    +0.093 C 
ATOM     16  C   UNL     1      -5.626  -0.232   0.830  0.00  0.00    +0.025 C 
ATOM     17  C   UNL     1      -6.570  -1.025  -0.076  0.00  0.00    +0.002 C 
ATOM     18  C   UNL     1      -7.007  -2.305   0.638  0.00  0.00    +0.000 C 
ATOM     19  C   UNL     1      -5.776  -3.155   0.960  0.00  0.00    +0.002 C 
ATOM     20  C   UNL     1      -4.832  -2.363   1.866  0.00  0.00    +0.025 C 
ENDBRANCH  14  15
BRANCH   1  21
ATOM     21  S   UNL     1      -1.696  -0.631   0.015  0.00  0.00    -0.077 S 
BRANCH  21  22
ATOM     22  C   UNL     1       0.002  -0.004   0.002  0.00  0.00    +0.117 C 
ATOM     23  C   UNL     1      -0.019   1.526   0.010  0.00  0.00    +0.027 C 
BRANCH  22  34
ATOM     24  C   UNL     1       2.266  -2.230  -5.903  0.00  0.00    +0.045 C 
ATOM     25  C   UNL     1       2.856  -1.817  -4.579  0.00  0.00    -0.026 A 
ATOM     26  C   UNL     1       4.184  -1.855  -4.386  0.00  0.00    -0.008 A 
ATOM     27  S   UNL     1       4.373  -1.288  -2.706  0.00  0.00    -0.073 S 
ATOM     28  C   UNL     1       2.664  -1.017  -2.313  0.00  0.00    +0.116 A 
ATOM     29  C   UNL     1       1.995  -1.375  -3.498  0.00  0.00    +0.075 A 
ATOM     30  C   UNL     1       0.568  -1.251  -3.465  0.00  0.00    +0.260 A 
ATOM     31  O   UNL     1      -0.101  -1.537  -4.442  0.00  0.00    -0.267 OA
ATOM     32  N   UNL     1      -0.022  -0.814  -2.337  0.00  0.00    -0.309 N 
ATOM     33  H   UNL     1      -0.988  -0.727  -2.308  0.00  0.00    +0.170 HD
ATOM     34  C   UNL     1       0.707  -0.490  -1.238  0.00  0.00    +0.124 A 
ATOM     35  N   UNL     1       2.010  -0.588  -1.238  0.00  0.00    -0.225 NA
ATOM     36  C   UNL     1       5.258  -2.276  -5.356  0.00  0.00    +0.052 C 
ENDBRANCH  22  34
ENDBRANCH  21  22
ENDBRANCH   1  21
TORSDOF 4
