REMARK  Name = ZINC02309533
REMARK  9 active torsions:
REMARK  status: ('A' for Active; 'I' for Inactive)
REMARK    1  A    between atoms: C_1  and  C_2
REMARK    2  A    between atoms: C_2  and  O_3
REMARK    3  A    between atoms: O_3  and  C_4
REMARK    4  A    between atoms: C_4  and  C_6
REMARK    5  A    between atoms: C_7  and  N_17
REMARK    6  A    between atoms: C_18  and  C_20
REMARK    7  A    between atoms: C_20  and  N_53
REMARK    8  A    between atoms: C_22  and  C_29
REMARK    9  A    between atoms: C_25  and  C_28
REMARK                            x       y       z     vdW  Elec       q    Type
REMARK                         _______ _______ _______ _____ _____    ______ ____
ROOT
ATOM      1  C   UNL     1      -2.308   4.372  -0.041  0.00  0.00    +0.147 A 
ATOM      2  C   UNL     1      -1.280   3.554   0.382  0.00  0.00    +0.073 A 
ATOM      3  C   UNL     1      -0.117   4.419   0.596  0.00  0.00    +0.024 A 
ATOM      4  C   UNL     1       1.196   4.179   1.013  0.00  0.00    +0.050 A 
ATOM      5  C   UNL     1       2.080   5.229   1.119  0.00  0.00    +0.124 A 
ATOM      6  C   UNL     1       1.673   6.524   0.814  0.00  0.00    +0.040 A 
ATOM      7  C   UNL     1       0.385   6.775   0.402  0.00  0.00    +0.029 A 
ATOM      8  C   UNL     1      -0.528   5.729   0.287  0.00  0.00    +0.049 A 
ATOM      9  N   UNL     1      -1.850   5.681  -0.090  0.00  0.00    -0.348 N 
ATOM     10  H   UNL     1      -2.382   6.447  -0.356  0.00  0.00    +0.166 HD
ATOM     11  F   UNL     1       3.350   5.001   1.522  0.00  0.00    -0.205 F 
ENDROOT
BRANCH   2  12
ATOM     12  N   UNL     1      -1.336   2.176   0.565  0.00  0.00    -0.285 N 
ATOM     13  C   UNL     1      -0.556   1.366  -0.178  0.00  0.00    +0.201 C 
ATOM     14  O   UNL     1       0.101   1.825  -1.089  0.00  0.00    -0.278 OA
ATOM     15  H   UNL     1      -1.936   1.799   1.227  0.00  0.00    +0.155 HD
BRANCH  13  16
ATOM     16  C   UNL     1      -0.507  -0.111   0.118  0.00  0.00    +0.019 C 
BRANCH  16  24
ATOM     17  C   UNL     1      -0.122  -0.700  -2.199  0.00  0.00    -0.075 C 
ATOM     18  C   UNL     1       0.914  -1.264  -3.174  0.00  0.00    -0.031 C 
ATOM     19  C   UNL     1       1.222  -2.716  -2.799  0.00  0.00    +0.003 C 
ATOM     20  C   UNL     1       1.722  -2.767  -1.352  0.00  0.00    -0.031 C 
ATOM     21  C   UNL     1       0.662  -2.159  -0.430  0.00  0.00    -0.075 C 
ATOM     22  C   UNL     1       1.976  -4.221  -0.950  0.00  0.00    +0.005 C 
ATOM     23  C   UNL     1       2.196  -0.433  -3.094  0.00  0.00    +0.005 C 
ATOM     24  N   UNL     1       0.428  -0.754  -0.828  0.00  0.00    +0.386 N 
ATOM     25  H   UNL     1       1.322  -0.249  -0.808  0.00  0.00    -0.081 HD
ENDBRANCH  16  24
ENDBRANCH  13  16
ENDBRANCH   2  12
BRANCH   1  26
ATOM     26  C   UNL     1      -3.619   3.944  -0.368  0.00  0.00    +0.358 C 
ATOM     27  O   UNL     1      -3.874   2.756  -0.431  0.00  0.00    -0.243 OA
BRANCH  26  28
ATOM     28  O   UNL     1      -4.585   4.855  -0.611  0.00  0.00    -0.460 OA
BRANCH  28  30
ATOM     29  C   UNL     1      -6.838   5.525  -1.174  0.00  0.00    +0.048 C 
ATOM     30  C   UNL     1      -5.884   4.354  -0.935  0.00  0.00    +0.229 C 
ENDBRANCH  28  30
ENDBRANCH  26  28
ENDBRANCH   1  26
TORSDOF 6
