REMARK  Name = ZINC58949570
REMARK  6 active torsions:
REMARK  status: ('A' for Active; 'I' for Inactive)
REMARK    1  A    between atoms: C_1  and  C_2
REMARK    2  A    between atoms: C_5  and  C_7
REMARK    3  A    between atoms: C_9  and  C_19
REMARK    4  A    between atoms: C_10  and  C_18
REMARK    5  A    between atoms: C_12  and  N_17
REMARK    6  A    between atoms: C_13  and  C_14
REMARK                            x       y       z     vdW  Elec       q    Type
REMARK                         _______ _______ _______ _____ _____    ______ ____
ROOT
ATOM      1  C   UNL     1       1.059  -4.060  -0.230  0.00  0.00    +0.104 C 
ATOM      2  C   UNL     1       1.723  -4.405   1.075  0.00  0.00    +0.064 C 
ATOM      3  C   UNL     1       3.056  -4.415   1.192  0.00  0.00    +0.113 C 
ATOM      4  O   UNL     1       3.863  -4.120   0.161  0.00  0.00    -0.446 OA
ATOM      5  C   UNL     1       3.389  -4.170  -1.097  0.00  0.00    +0.193 C 
ATOM      6  C   UNL     1       2.059  -4.145  -1.351  0.00  0.00    +0.083 C 
ATOM      7  C   UNL     1       3.669  -4.769   2.523  0.00  0.00    +0.087 C 
ENDROOT
BRANCH   1  12
ATOM      8  C   UNL     1      -0.070   1.474   0.209  0.00  0.00    +0.051 C 
ATOM      9  C   UNL     1      -0.029  -0.024   0.054  0.00  0.00    -0.013 A 
ATOM     10  C   UNL     1      -1.048  -0.886  -0.180  0.00  0.00    +0.011 A 
ATOM     11  C   UNL     1      -0.773  -2.237  -0.287  0.00  0.00    +0.012 A 
ATOM     12  C   UNL     1       0.509  -2.659  -0.155  0.00  0.00    +0.002 A 
ATOM     13  S   UNL     1       1.376  -1.123   0.123  0.00  0.00    -0.097 S 
ENDBRANCH   1  12
BRANCH   6  14
ATOM     14  C   UNL     1       1.607  -4.199  -2.682  0.00  0.00    +0.243 C 
ATOM     15  O   UNL     1       1.173  -5.244  -3.135  0.00  0.00    -0.271 OA
ATOM     16  N   UNL     1       1.655  -3.097  -3.455  0.00  0.00    -0.325 N 
ATOM     17  H   UNL     1       2.001  -2.265  -3.094  0.00  0.00    +0.145 HD
ATOM     18  H   UNL     1       1.344  -3.135  -4.373  0.00  0.00    +0.145 HD
ENDBRANCH   6  14
BRANCH   2  19
ATOM     19  C   UNL     1       0.898  -4.736   2.235  0.00  0.00    +0.242 C 
ATOM     20  O   UNL     1       0.429  -5.854   2.349  0.00  0.00    -0.271 OA
ATOM     21  N   UNL     1       0.656  -3.804   3.178  0.00  0.00    -0.325 N 
ATOM     22  H   UNL     1       1.030  -2.914   3.087  0.00  0.00    +0.145 HD
ATOM     23  H   UNL     1       0.109  -4.024   3.947  0.00  0.00    +0.145 HD
ENDBRANCH   2  19
BRANCH   5  24
ATOM     24  N   UNL     1       4.271  -4.249  -2.142  0.00  0.00    -0.329 N 
ATOM     25  H   UNL     1       5.221  -4.346  -1.970  0.00  0.00    +0.145 HD
ATOM     26  H   UNL     1       3.946  -4.207  -3.055  0.00  0.00    +0.145 HD
ENDBRANCH   5  24
TORSDOF 4
