REMARK  Name = ZINC08622853
REMARK  7 active torsions:
REMARK  status: ('A' for Active; 'I' for Inactive)
REMARK    1  A    between atoms: C_1  and  N_2
REMARK    2  A    between atoms: C_3  and  C_12
REMARK    3  A    between atoms: C_5  and  C_7
REMARK    4  A    between atoms: C_20  and  C_22
REMARK    5  A    between atoms: C_22  and  N_23
REMARK    6  A    between atoms: N_23  and  S_24
REMARK    7  A    between atoms: S_24  and  C_27
REMARK                            x       y       z     vdW  Elec       q    Type
REMARK                         _______ _______ _______ _____ _____    ______ ____
ROOT
ATOM      1  C   UNL     1       7.866   1.045  -3.505  0.00  0.00    +0.024 C 
ATOM      2  C   UNL     1       7.090  -0.164  -2.929  0.00  0.00    -0.068 C 
ATOM      3  C   UNL     1       7.268  -1.350  -5.033  0.00  0.00    -0.078 C 
ATOM      4  C   UNL     1       8.031  -0.183  -5.666  0.00  0.00    -0.015 C 
ATOM      5  C   UNL     1       7.572   1.124  -5.008  0.00  0.00    -0.007 C 
ATOM      6  C   UNL     1       6.060   1.274  -5.222  0.00  0.00    -0.010 C 
ATOM      7  C   UNL     1       5.351   0.067  -4.601  0.00  0.00    -0.053 C 
ATOM      8  N   UNL     1       6.336  -0.856  -3.997  0.00  0.00    +0.383 N 
ATOM      9  H   UNL     1       5.838  -1.655  -3.589  0.00  0.00    -0.081 HD
ENDROOT
BRANCH   1  12
ATOM     10  C   UNL     1       8.507   3.948  -4.368  0.00  0.00    +0.172 C 
ATOM     11  N   UNL     1       7.681   3.569  -3.219  0.00  0.00    -0.270 N 
ATOM     12  C   UNL     1       7.394   2.308  -2.831  0.00  0.00    +0.041 A 
ATOM     13  C   UNL     1       6.605   2.376  -1.737  0.00  0.00    +0.056 A 
ATOM     14  C   UNL     1       6.405   3.739  -1.433  0.00  0.00    +0.128 A 
ATOM     15  N   UNL     1       7.053   4.453  -2.331  0.00  0.00    -0.168 NA
BRANCH  14  16
ATOM     16  C   UNL     1       5.606   4.272  -0.309  0.00  0.00    +0.155 A 
ATOM     17  C   UNL     1       5.415   5.586  -0.019  0.00  0.00    +0.051 A 
ATOM     18  C   UNL     1       4.592   5.633   1.125  0.00  0.00    +0.042 A 
ATOM     19  C   UNL     1       4.331   4.360   1.477  0.00  0.00    +0.196 A 
ATOM     20  O   UNL     1       4.945   3.539   0.608  0.00  0.00    -0.461 OA
ENDBRANCH  14  16
ENDBRANCH   1  12
BRANCH   7  21
ATOM     21  C   UNL     1       4.387   0.545  -3.514  0.00  0.00    +0.090 C 
BRANCH  21  22
ATOM     22  N   UNL     1       3.795  -0.615  -2.842  0.00  0.00    -0.191 NA
ATOM     23  H   UNL     1       3.863  -1.495  -3.244  0.00  0.00    +0.148 HD
BRANCH  22  24
ATOM     24  S   UNL     1       3.010  -0.423  -1.397  0.00  0.00    +0.058 S 
ATOM     25  O   UNL     1       3.870   0.343  -0.565  0.00  0.00    -0.153 OA
ATOM     26  O   UNL     1       2.532  -1.707  -1.021  0.00  0.00    -0.153 OA
BRANCH  24  27
ATOM     27  C   UNL     1       1.589   0.573  -1.704  0.00  0.00    +0.105 A 
ATOM     28  C   UNL     1       0.388  -0.022  -2.043  0.00  0.00    +0.028 A 
ATOM     29  C   UNL     1      -0.727   0.760  -2.284  0.00  0.00    +0.002 A 
ATOM     30  C   UNL     1      -0.640   2.136  -2.185  0.00  0.00    +0.000 A 
ATOM     31  C   UNL     1       0.560   2.731  -1.845  0.00  0.00    +0.002 A 
ATOM     32  C   UNL     1       1.675   1.949  -1.605  0.00  0.00    +0.028 A 
ENDBRANCH  24  27
ENDBRANCH  22  24
ENDBRANCH  21  22
ENDBRANCH   7  21
TORSDOF 6
