REMARK  Name = ZINC34787084
REMARK  4 active torsions:
REMARK  status: ('A' for Active; 'I' for Inactive)
REMARK    1  A    between atoms: C_4  and  C_7
REMARK    2  A    between atoms: N_16  and  C_17
REMARK    3  A    between atoms: C_17  and  C_18
REMARK    4  A    between atoms: C_26  and  C_28
REMARK                            x       y       z     vdW  Elec       q    Type
REMARK                         _______ _______ _______ _____ _____    ______ ____
ROOT
ATOM      1  C   UNL     1       4.882  -1.879   2.977  0.00  0.00    +0.020 C 
ENDROOT
BRANCH   1  10
ATOM      2  C   UNL     1       5.822  -1.257   0.865  0.00  0.00    -0.005 C 
ATOM      3  C   UNL     1       6.416  -1.799  -0.431  0.00  0.00    -0.047 A 
ATOM      4  C   UNL     1       6.588  -1.041  -1.587  0.00  0.00    +0.010 A 
ATOM      5  C   UNL     1       7.122  -1.607  -2.694  0.00  0.00    +0.045 A 
ATOM      6  S   UNL     1       7.418  -3.283  -2.147  0.00  0.00    -0.101 S 
ATOM      7  C   UNL     1       6.813  -3.102  -0.493  0.00  0.00    -0.010 A 
ATOM      8  C   UNL     1       6.736  -4.106   0.610  0.00  0.00    +0.024 C 
ATOM      9  C   UNL     1       6.457  -3.340   1.915  0.00  0.00    -0.072 C 
ATOM     10  N   UNL     1       5.365  -2.385   1.685  0.00  0.00    +0.393 N 
ATOM     11  H   UNL     1       4.609  -2.856   1.211  0.00  0.00    -0.080 HD
BRANCH   2  15
ATOM     12  C   UNL     1       2.517   1.296  -0.034  0.00  0.00    +0.000 A 
ATOM     13  C   UNL     1       3.750   1.842   0.269  0.00  0.00    +0.000 A 
ATOM     14  C   UNL     1       4.820   1.016   0.560  0.00  0.00    +0.002 A 
ATOM     15  C   UNL     1       4.656  -0.357   0.549  0.00  0.00    -0.057 A 
ATOM     16  C   UNL     1       3.423  -0.903   0.247  0.00  0.00    +0.002 A 
ATOM     17  C   UNL     1       2.354  -0.077  -0.046  0.00  0.00    +0.000 A 
ENDBRANCH   2  15
ENDBRANCH   1  10
BRANCH   1  18
ATOM     18  C   UNL     1       4.298  -3.015   3.776  0.00  0.00    +0.199 C 
ATOM     19  O   UNL     1       4.285  -4.137   3.314  0.00  0.00    -0.278 OA
ATOM     20  N   UNL     1       3.790  -2.785   5.003  0.00  0.00    -0.300 N 
ATOM     21  C   UNL     1       3.793  -1.430   5.572  0.00  0.00    +0.126 C 
ATOM     22  C   UNL     1       2.358  -1.060   5.966  0.00  0.00    +0.127 C 
ATOM     23  N   UNL     1       1.790  -2.160   6.758  0.00  0.00    -0.295 N 
ATOM     24  C   UNL     1       1.787  -3.515   6.189  0.00  0.00    +0.127 C 
ATOM     25  C   UNL     1       3.217  -3.884   5.793  0.00  0.00    +0.126 C 
ATOM     26  C   UNL     1       1.282  -1.930   7.985  0.00  0.00    +0.247 C 
ATOM     27  O   UNL     1       0.753  -2.834   8.603  0.00  0.00    -0.270 OA
BRANCH  26  28
ATOM     28  C   UNL     1       1.368  -0.580   8.580  0.00  0.00    +0.038 A 
ATOM     29  C   UNL     1       0.931   0.533   7.859  0.00  0.00    +0.013 A 
ATOM     30  C   UNL     1       1.014   1.791   8.419  0.00  0.00    +0.002 A 
ATOM     31  C   UNL     1       1.530   1.952   9.693  0.00  0.00    +0.015 A 
ATOM     32  C   UNL     1       1.966   0.853  10.413  0.00  0.00    +0.019 A 
ATOM     33  C   UNL     1       1.882  -0.412   9.867  0.00  0.00    +0.028 A 
ATOM     34 BR   UNL     1       2.671   1.085  12.153  0.00  0.00    -0.050 Br
ENDBRANCH  26  28
ENDBRANCH   1  18
TORSDOF 4
