REMARK  Name = ZINC59501792
REMARK  8 active torsions:
REMARK  status: ('A' for Active; 'I' for Inactive)
REMARK    1  A    between atoms: C_4  and  C_7
REMARK    2  A    between atoms: N_8  and  N_9
REMARK    3  A    between atoms: N_9  and  C_10
REMARK    4  A    between atoms: C_13  and  N_16
REMARK    5  A    between atoms: N_19  and  C_20
REMARK    6  A    between atoms: C_20  and  C_21
REMARK    7  A    between atoms: C_21  and  O_22
REMARK    8  A    between atoms: O_22  and  C_23
REMARK                            x       y       z     vdW  Elec       q    Type
REMARK                         _______ _______ _______ _____ _____    ______ ____
ROOT
ATOM      1  C   UNL     1       3.699  -0.634   0.020  0.00  0.00    +0.117 C 
ATOM      2  N   UNL     1       4.825  -0.031  -0.469  0.00  0.00    -0.293 N 
ATOM      3  N   UNL     1       3.785  -1.835   0.617  0.00  0.00    -0.326 N 
ATOM      4  H   UNL     1       4.630  -2.311   0.629  0.00  0.00    +0.148 HD
ATOM      5  H   UNL     1       4.775   0.864  -0.840  0.00  0.00    +0.186 HD
ENDROOT
BRANCH   1   9
ATOM      6  C   UNL     1      -0.053   1.285  -0.345  0.00  0.00    +0.000 A 
ATOM      7  C   UNL     1       1.043   1.999   0.117  0.00  0.00    +0.001 A 
ATOM      8  C   UNL     1       2.264   1.387   0.239  0.00  0.00    +0.011 A 
ATOM      9  C   UNL     1       2.402   0.029  -0.106  0.00  0.00    +0.014 A 
ATOM     10  C   UNL     1       1.283  -0.685  -0.573  0.00  0.00    +0.011 A 
ATOM     11  C   UNL     1       0.072  -0.053  -0.688  0.00  0.00    +0.001 A 
ENDBRANCH   1   9
BRANCH   2  12
ATOM     12  N   UNL     1       5.955  -0.654  -0.438  0.00  0.00    -0.259 N 
ATOM     13  H   UNL     1       6.021  -1.517  -0.002  0.00  0.00    +0.172 HD
BRANCH  12  14
ATOM     14  C   UNL     1       7.062  -0.094  -1.022  0.00  0.00    +0.046 A 
ATOM     15  C   UNL     1       6.972   1.156  -1.648  0.00  0.00    +0.027 A 
ATOM     16  C   UNL     1       8.089   1.711  -2.232  0.00  0.00    +0.034 A 
ATOM     17  C   UNL     1       9.300   1.037  -2.202  0.00  0.00    +0.126 A 
ATOM     18  C   UNL     1       9.397  -0.201  -1.584  0.00  0.00    +0.034 A 
ATOM     19  C   UNL     1       8.290  -0.767  -0.990  0.00  0.00    +0.027 A 
BRANCH  17  20
ATOM     20  N   UNL     1      10.495   1.641  -2.832  0.00  0.00    +0.056 N 
ATOM     21  O   UNL     1      10.406   2.816  -3.421  0.00  0.00    -0.126 OA
ATOM     22  O   UNL     1      11.647   1.003  -2.805  0.00  0.00    -0.126 OA
ENDBRANCH  17  20
ENDBRANCH  12  14
ENDBRANCH   2  12
BRANCH   3  23
ATOM     23  C   UNL     1       2.602  -2.425   1.249  0.00  0.00    +0.144 C 
BRANCH  23  24
ATOM     24  C   UNL     1       3.011  -3.677   2.027  0.00  0.00    +0.247 C 
BRANCH  24  25
ATOM     25  O   UNL     1       3.871  -3.307   3.107  0.00  0.00    -0.489 OA
BRANCH  25  26
ATOM     26  C   UNL     1       4.328  -4.309   3.903  0.00  0.00    +0.139 A 
ATOM     27  C   UNL     1       3.961  -5.622   3.647  0.00  0.00    +0.047 A 
ATOM     28  C   UNL     1       4.427  -6.639   4.458  0.00  0.00    +0.004 A 
ATOM     29  C   UNL     1       5.259  -6.349   5.524  0.00  0.00    +0.002 A 
ATOM     30  C   UNL     1       5.627  -5.042   5.782  0.00  0.00    +0.023 A 
ATOM     31  C   UNL     1       5.168  -4.021   4.970  0.00  0.00    +0.083 A 
ATOM     32 CL   UNL     1       5.636  -2.380   5.290  0.00  0.00    -0.080 Cl
ENDBRANCH  25  26
ENDBRANCH  24  25
ENDBRANCH  23  24
ENDBRANCH   3  23
TORSDOF 8
