REMARK  Name = ZINC36301910
REMARK  12 active torsions:
REMARK  status: ('A' for Active; 'I' for Inactive)
REMARK    1  A    between atoms: C_1  and  C_2
REMARK    2  A    between atoms: C_3  and  C_21
REMARK    3  A    between atoms: C_4  and  O_14
REMARK    4  A    between atoms: N_5  and  C_7
REMARK    5  A    between atoms: O_14  and  C_15
REMARK    6  A    between atoms: C_21  and  N_22
REMARK    7  A    between atoms: N_22  and  C_23
REMARK    8  A    between atoms: N_22  and  C_27
REMARK    9  A    between atoms: C_23  and  C_24
REMARK   10  A    between atoms: C_27  and  C_28
REMARK   11  A    between atoms: C_28  and  C_30
REMARK   12  A    between atoms: C_28  and  O_31
REMARK                            x       y       z     vdW  Elec       q    Type
REMARK                         _______ _______ _______ _____ _____    ______ ____
ROOT
ATOM      1  C   UNL     1      -0.154   1.921  -0.567  0.00  0.00    +0.068 C 
ATOM      2  C   UNL     1      -0.111   0.416  -0.615  0.00  0.00    +0.065 A 
ATOM      3  C   UNL     1       0.101  -0.361  -1.758  0.00  0.00    +0.021 A 
ATOM      4  C   UNL     1       0.068  -1.669  -1.387  0.00  0.00    +0.225 A 
ATOM      5  N   UNL     1      -0.160  -1.707  -0.046  0.00  0.00    -0.200 N 
ATOM      6  N   UNL     1      -0.262  -0.386   0.409  0.00  0.00    -0.168 NA
ENDROOT
BRANCH   5   7
ATOM      7  C   UNL     1      -0.268  -2.863   0.740  0.00  0.00    +0.069 A 
ATOM      8  C   UNL     1      -1.008  -3.946   0.287  0.00  0.00    +0.029 A 
ATOM      9  C   UNL     1      -1.113  -5.083   1.064  0.00  0.00    +0.022 A 
ATOM     10  C   UNL     1      -0.479  -5.144   2.293  0.00  0.00    +0.041 A 
ATOM     11  C   UNL     1       0.259  -4.065   2.747  0.00  0.00    +0.022 A 
ATOM     12  C   UNL     1       0.371  -2.928   1.971  0.00  0.00    +0.029 A 
ATOM     13 CL   UNL     1      -0.612  -6.575   3.266  0.00  0.00    -0.084 Cl
ENDBRANCH   5   7
BRANCH   4  14
ATOM     14  O   UNL     1       0.231  -2.740  -2.204  0.00  0.00    -0.438 OA
BRANCH  14  15
ATOM     15  C   UNL     1      -0.862  -3.218  -2.855  0.00  0.00    +0.130 A 
ATOM     16  C   UNL     1      -2.071  -2.543  -2.772  0.00  0.00    +0.046 A 
ATOM     17  C   UNL     1      -3.180  -3.032  -3.434  0.00  0.00    +0.004 A 
ATOM     18  C   UNL     1      -3.087  -4.193  -4.178  0.00  0.00    +0.000 A 
ATOM     19  C   UNL     1      -1.883  -4.868  -4.262  0.00  0.00    +0.004 A 
ATOM     20  C   UNL     1      -0.769  -4.380  -3.607  0.00  0.00    +0.046 A 
ENDBRANCH  14  15
ENDBRANCH   4  14
BRANCH   3  21
ATOM     21  C   UNL     1       0.327   0.160  -3.154  0.00  0.00    -0.036 C 
BRANCH  21  22
ATOM     22  N   UNL     1       1.765   0.360  -3.376  0.00  0.00    +0.384 N 
ATOM     23  H   UNL     1       2.147   0.914  -2.624  0.00  0.00    -0.081 HD
BRANCH  22  24
ATOM     24  C   UNL     1       1.971   1.057  -4.652  0.00  0.00    -0.075 C 
BRANCH  24  25
ATOM     25  C   UNL     1       3.456   1.388  -4.819  0.00  0.00    -0.028 C 
ATOM     26  C   UNL     1       3.852   2.865  -4.845  0.00  0.00    +0.002 C 
ATOM     27  C   UNL     1       3.891   2.039  -6.133  0.00  0.00    +0.002 C 
ENDBRANCH  24  25
ENDBRANCH  22  24
BRANCH  22  28
ATOM     28  C   UNL     1       2.441  -0.944  -3.415  0.00  0.00    -0.047 C 
BRANCH  28  29
ATOM     29  C   UNL     1       2.035  -1.690  -4.687  0.00  0.00    +0.095 C 
ATOM     30  C   UNL     1       2.875  -2.962  -4.823  0.00  0.00    +0.035 C 
BRANCH  29  31
ATOM     31  O   UNL     1       0.651  -2.040  -4.614  0.00  0.00    -0.394 OA
ATOM     32  H   UNL     1       0.341  -2.577  -5.356  0.00  0.00    +0.210 HD
ENDBRANCH  29  31
ENDBRANCH  28  29
ENDBRANCH  22  28
ENDBRANCH  21  22
ENDBRANCH   3  21
TORSDOF 10
