REMARK  Name = ZINC40051666
REMARK  8 active torsions:
REMARK  status: ('A' for Active; 'I' for Inactive)
REMARK    1  A    between atoms: C_1  and  C_2
REMARK    2  A    between atoms: C_3  and  C_11
REMARK    3  A    between atoms: C_13  and  C_29
REMARK    4  A    between atoms: C_14  and  C_16
REMARK    5  A    between atoms: C_16  and  C_18
REMARK    6  A    between atoms: C_26  and  C_28
REMARK    7  A    between atoms: C_29  and  C_30
REMARK    8  A    between atoms: C_30  and  C_31
REMARK                            x       y       z     vdW  Elec       q    Type
REMARK                         _______ _______ _______ _____ _____    ______ ____
ROOT
ATOM      1  C   UNL     1      -0.227  -0.385  -2.525  0.00  0.00    +0.128 A 
ATOM      2  N   UNL     1      -0.385   0.846  -3.020  0.00  0.00    -0.242 NA
ATOM      3  C   UNL     1      -0.340   1.077  -4.297  0.00  0.00    +0.060 A 
ATOM      4  C   UNL     1      -0.122   0.010  -5.173  0.00  0.00    +0.082 A 
ATOM      5  S   UNL     1       0.020  -1.344  -4.013  0.00  0.00    -0.062 S 
ENDROOT
BRANCH   1   8
ATOM      6  C   UNL     1      -0.678   1.449  -0.009  0.00  0.00    +0.068 C 
ATOM      7  C   UNL     1      -0.442  -0.039  -0.011  0.00  0.00    +0.067 A 
ATOM      8  C   UNL     1      -0.245  -0.830  -1.133  0.00  0.00    +0.101 A 
ATOM      9  N   UNL     1      -0.070  -2.122  -0.675  0.00  0.00    -0.297 N 
ATOM     10  C   UNL     1       0.158  -3.300  -1.316  0.00  0.00    +0.093 A 
ATOM     11  C   UNL     1       0.296  -4.450  -0.617  0.00  0.00    +0.018 A 
ATOM     12  C   UNL     1       0.204  -4.438   0.782  0.00  0.00    +0.005 A 
ATOM     13  C   UNL     1      -0.024  -3.262   1.433  0.00  0.00    +0.047 A 
ATOM     14  C   UNL     1      -0.164  -2.077   0.689  0.00  0.00    +0.138 A 
ATOM     15  N   UNL     1      -0.382  -0.817   1.059  0.00  0.00    -0.232 NA
ENDBRANCH   1   8
BRANCH   4  16
ATOM     16  C   UNL     1      -0.033   0.003  -6.588  0.00  0.00    +0.200 C 
ATOM     17  O   UNL     1      -0.054   1.056  -7.205  0.00  0.00    -0.286 OA
BRANCH  16  18
ATOM     18  C   UNL     1       0.085  -1.265  -7.308  0.00  0.00    +0.031 C 
ATOM     19  C   UNL     1      -0.945  -2.095  -7.710  0.00  0.00    +0.007 A 
ATOM     20  C   UNL     1      -2.352  -2.015  -7.578  0.00  0.00    +0.010 A 
ATOM     21  C   UNL     1      -3.140  -2.993  -8.079  0.00  0.00    +0.001 A 
ATOM     22  C   UNL     1      -2.618  -4.114  -8.740  0.00  0.00    +0.002 A 
ATOM     23  C   UNL     1      -1.288  -4.284  -8.919  0.00  0.00    +0.026 A 
ATOM     24  C   UNL     1      -0.362  -3.266  -8.405  0.00  0.00    +0.043 A 
ATOM     25  N   UNL     1       0.942  -3.178  -8.436  0.00  0.00    -0.377 N 
ATOM     26  C   UNL     1       1.357  -1.939  -7.772  0.00  0.00    +0.111 C 
ATOM     27  C   UNL     1       2.103  -1.035  -8.756  0.00  0.00    +0.035 C 
ATOM     28  H   UNL     1       1.539  -3.828  -8.839  0.00  0.00    +0.160 HD
ENDBRANCH  16  18
ENDBRANCH   4  16
BRANCH   3  29
ATOM     29  C   UNL     1      -0.522   2.476  -4.827  0.00  0.00    +0.057 C 
BRANCH  29  30
ATOM     30  C   UNL     1       0.839   3.168  -4.917  0.00  0.00    +0.010 C 
BRANCH  30  31
ATOM     31  C   UNL     1       0.655   4.589  -5.456  0.00  0.00    -0.011 C 
ATOM     32  C   UNL     1       0.136   4.526  -6.894  0.00  0.00    +0.003 C 
ATOM     33  C   UNL     1      -0.049   5.946  -7.432  0.00  0.00    +0.000 C 
ATOM     34  C   UNL     1       1.294   6.680  -7.405  0.00  0.00    +0.000 C 
ATOM     35  C   UNL     1       1.812   6.743  -5.967  0.00  0.00    +0.000 C 
ATOM     36  C   UNL     1       1.997   5.322  -5.429  0.00  0.00    +0.003 C 
ENDBRANCH  30  31
ENDBRANCH  29  30
ENDBRANCH   3  29
TORSDOF 6
