REMARK  Name = ZINC30977714
REMARK  12 active torsions:
REMARK  status: ('A' for Active; 'I' for Inactive)
REMARK    1  A    between atoms: C_1  and  C_2
REMARK    2  A    between atoms: C_5  and  C_8
REMARK    3  A    between atoms: C_8  and  C_10
REMARK    4  A    between atoms: C_8  and  N_11
REMARK    5  A    between atoms: C_12  and  C_14
REMARK    6  A    between atoms: N_17  and  C_20
REMARK    7  A    between atoms: C_20  and  C_21
REMARK    8  A    between atoms: C_23  and  C_26
REMARK    9  A    between atoms: C_29  and  C_32
REMARK   10  A    between atoms: C_32  and  C_33
REMARK   11  A    between atoms: C_32  and  C_34
REMARK   12  A    between atoms: C_32  and  C_35
REMARK                            x       y       z     vdW  Elec       q    Type
REMARK                         _______ _______ _______ _____ _____    ______ ____
ROOT
ATOM      1  C   UNL     1      -3.442  -1.177   1.191  0.00  0.00    +0.071 C 
ATOM      2  C   UNL     1      -4.341  -0.236   0.384  0.00  0.00    -0.006 C 
ATOM      3  C   UNL     1      -5.785  -0.738   0.449  0.00  0.00    -0.077 C 
ATOM      4  N   UNL     1      -6.227  -0.783   1.849  0.00  0.00    +0.386 N 
ATOM      5  C   UNL     1      -5.408  -1.716   2.634  0.00  0.00    -0.077 C 
ATOM      6  C   UNL     1      -3.952  -1.244   2.634  0.00  0.00    -0.006 C 
ATOM      7  H   UNL     1      -6.092   0.222   2.276  0.00  0.00    -0.081 HD
ENDROOT
BRANCH   1   9
ATOM      8  N   UNL     1      -1.372  -0.511   0.012  0.00  0.00    -0.309 N 
ATOM      9  C   UNL     1      -2.029  -0.655   1.181  0.00  0.00    +0.216 C 
ATOM     10  O   UNL     1      -1.481  -0.365   2.224  0.00  0.00    -0.276 OA
ATOM     11  H   UNL     1      -1.869  -0.774  -0.933  0.00  0.00    +0.149 HD
BRANCH   8  12
ATOM     12  C   UNL     1       0.002  -0.004   0.002  0.00  0.00    +0.100 C 
ATOM     13  C   UNL     1      -0.019   1.526   0.010  0.00  0.00    +0.033 C 
BRANCH  12  18
ATOM     14  C   UNL     1       2.707  -1.868  -4.752  0.00  0.00    +0.044 C 
ATOM     15  C   UNL     1       2.001  -1.382  -3.512  0.00  0.00    -0.050 A 
ATOM     16  C   UNL     1       2.673  -1.345  -2.305  0.00  0.00    +0.004 A 
ATOM     17  C   UNL     1       2.026  -0.899  -1.167  0.00  0.00    +0.006 A 
ATOM     18  C   UNL     1       0.707  -0.490  -1.238  0.00  0.00    -0.027 A 
ATOM     19  C   UNL     1       0.034  -0.532  -2.444  0.00  0.00    +0.006 A 
ATOM     20  C   UNL     1       0.683  -0.974  -3.583  0.00  0.00    +0.004 A 
ENDBRANCH  12  18
ENDBRANCH   8  12
ENDBRANCH   1   9
BRANCH   4  21
ATOM     21  C   UNL     1      -7.652  -1.127   1.941  0.00  0.00    +0.022 C 
BRANCH  21  22
ATOM     22  C   UNL     1      -8.476  -0.021   1.335  0.00  0.00    +0.211 A 
ATOM     23  N   UNL     1      -8.848   0.077   0.083  0.00  0.00    -0.193 NA
ATOM     24  C   UNL     1      -9.564   1.221   0.005  0.00  0.00    +0.202 A 
ATOM     25  N   UNL     1      -9.585   1.746   1.202  0.00  0.00    -0.056 NA
ATOM     26  O   UNL     1      -8.970   1.043   1.976  0.00  0.00    -0.340 OA
BRANCH  24  27
ATOM     27  C   UNL     1     -10.206   1.777  -1.213  0.00  0.00    +0.022 A 
ATOM     28  C   UNL     1     -10.095   1.107  -2.429  0.00  0.00    +0.012 A 
ATOM     29  C   UNL     1     -10.698   1.626  -3.557  0.00  0.00    +0.005 A 
ATOM     30  C   UNL     1     -11.403   2.814  -3.483  0.00  0.00    -0.042 A 
ATOM     31  C   UNL     1     -11.512   3.485  -2.279  0.00  0.00    +0.005 A 
ATOM     32  C   UNL     1     -10.917   2.973  -1.144  0.00  0.00    +0.012 A 
BRANCH  30  33
ATOM     33  C   UNL     1     -12.054   3.379  -4.720  0.00  0.00    -0.013 C 
ATOM     34  C   UNL     1     -11.475   4.764  -5.013  0.00  0.00    +0.015 C 
ATOM     35  C   UNL     1     -11.784   2.452  -5.907  0.00  0.00    +0.015 C 
ATOM     36  C   UNL     1     -13.563   3.494  -4.494  0.00  0.00    +0.015 C 
ENDBRANCH  30  33
ENDBRANCH  24  27
ENDBRANCH  21  22
ENDBRANCH   4  21
TORSDOF 7
