REMARK  Name = ZINC39448817
REMARK  4 active torsions:
REMARK  status: ('A' for Active; 'I' for Inactive)
REMARK    1  A    between atoms: C_4  and  C_7
REMARK    2  A    between atoms: C_12  and  S_14
REMARK    3  A    between atoms: S_14  and  C_15
REMARK    4  A    between atoms: C_15  and  C_16
REMARK                            x       y       z     vdW  Elec       q    Type
REMARK                         _______ _______ _______ _____ _____    ______ ____
ROOT
ATOM      1  S   UNL     1       2.728  -3.187   2.973  0.00  0.00    -0.081 S 
ENDROOT
BRANCH   1   6
ATOM      2  C   UNL     1       3.711  -0.707  -0.038  0.00  0.00    +0.200 C 
ATOM      3  N   UNL     1       4.731   0.086   0.658  0.00  0.00    -0.336 N 
ATOM      4  C   UNL     1       4.956  -0.098   1.932  0.00  0.00    +0.190 C 
ATOM      5  N   UNL     1       4.307  -1.037   2.641  0.00  0.00    -0.195 NA
ATOM      6  C   UNL     1       3.603  -1.978   2.037  0.00  0.00    +0.159 C 
ATOM      7  N   UNL     1       3.569  -1.994   0.662  0.00  0.00    -0.300 N 
ATOM      8  N   UNL     1       5.890   0.695   2.568  0.00  0.00    -0.329 N 
ATOM      9  H   UNL     1       6.367   1.377   2.070  0.00  0.00    +0.145 HD
ATOM     10  H   UNL     1       6.068   0.571   3.514  0.00  0.00    +0.145 HD
ATOM     11  H   UNL     1       3.456  -2.822   0.171  0.00  0.00    +0.150 HD
ATOM     12  H   UNL     1       5.241   0.751   0.170  0.00  0.00    +0.164 HD
BRANCH   2  16
ATOM     13  C   UNL     1      -0.017   1.378   0.010  0.00  0.00    +0.000 A 
ATOM     14  C   UNL     1       1.171   2.086   0.002  0.00  0.00    +0.000 A 
ATOM     15  C   UNL     1       2.377   1.411  -0.013  0.00  0.00    +0.007 A 
ATOM     16  C   UNL     1       2.396   0.029  -0.020  0.00  0.00    -0.007 A 
ATOM     17  C   UNL     1       1.208  -0.679  -0.012  0.00  0.00    +0.007 A 
ATOM     18  C   UNL     1       0.002  -0.004   0.002  0.00  0.00    +0.000 A 
ENDBRANCH   2  16
ENDBRANCH   1   6
BRANCH   1  19
ATOM     19  C   UNL     1       3.081  -2.748   4.697  0.00  0.00    +0.173 C 
BRANCH  19  20
ATOM     20  C   UNL     1       2.382  -3.717   5.616  0.00  0.00    +0.234 C 
ATOM     21  O   UNL     1       1.711  -4.615   5.153  0.00  0.00    -0.274 OA
ATOM     22  N   UNL     1       2.501  -3.585   6.952  0.00  0.00    -0.239 N 
ATOM     23  C   UNL     1       3.266  -2.551   7.511  0.00  0.00    +0.044 A 
ATOM     24  C   UNL     1       2.946  -1.243   7.163  0.00  0.00    +0.024 A 
ATOM     25  C   UNL     1       3.640  -0.183   7.709  0.00  0.00    +0.002 A 
ATOM     26  C   UNL     1       4.656  -0.437   8.613  0.00  0.00    +0.000 A 
ATOM     27  C   UNL     1       4.981  -1.732   8.946  0.00  0.00    +0.005 A 
ATOM     28  C   UNL     1       4.305  -2.820   8.389  0.00  0.00    -0.025 A 
ATOM     29  C   UNL     1       4.843  -4.173   8.793  0.00  0.00    +0.042 C 
ATOM     30  C   UNL     1       4.136  -5.330   8.110  0.00  0.00    +0.042 C 
ATOM     31  C   UNL     1       2.673  -5.374   8.473  0.00  0.00    -0.025 A 
ATOM     32  C   UNL     1       1.861  -4.473   7.827  0.00  0.00    +0.044 A 
ATOM     33  C   UNL     1       0.495  -4.456   8.049  0.00  0.00    +0.024 A 
ATOM     34  C   UNL     1      -0.040  -5.351   8.961  0.00  0.00    +0.002 A 
ATOM     35  C   UNL     1       0.779  -6.240   9.634  0.00  0.00    +0.000 A 
ATOM     36  C   UNL     1       2.158  -6.260   9.391  0.00  0.00    +0.005 A 
ENDBRANCH  19  20
ENDBRANCH   1  19
TORSDOF 4
