REMARK  Name = ZINC13031590
REMARK  8 active torsions:
REMARK  status: ('A' for Active; 'I' for Inactive)
REMARK    1  A    between atoms: C_3  and  S_20
REMARK    2  A    between atoms: C_6  and  N_7
REMARK    3  A    between atoms: N_7  and  S_8
REMARK    4  A    between atoms: S_8  and  C_11
REMARK    5  A    between atoms: C_14  and  O_19
REMARK    6  A    between atoms: C_15  and  C_17
REMARK    7  A    between atoms: S_20  and  N_23
REMARK    8  A    between atoms: N_23  and  C_24
REMARK                            x       y       z     vdW  Elec       q    Type
REMARK                         _______ _______ _______ _____ _____    ______ ____
ROOT
ATOM      1  C   UNL     1       2.872   3.474  -4.073  0.00  0.00    +0.026 A 
ATOM      2  C   UNL     1       1.738   2.687  -4.042  0.00  0.00    +0.030 A 
ATOM      3  C   UNL     1       0.531   3.225  -3.637  0.00  0.00    +0.105 A 
ATOM      4  C   UNL     1       0.453   4.556  -3.267  0.00  0.00    +0.030 A 
ATOM      5  C   UNL     1       1.585   5.347  -3.290  0.00  0.00    +0.026 A 
ATOM      6  C   UNL     1       2.799   4.809  -3.696  0.00  0.00    +0.048 A 
ENDROOT
BRANCH   3   7
ATOM      7  S   UNL     1      -0.913   2.217  -3.600  0.00  0.00    +0.059 S 
ATOM      8  O   UNL     1      -0.691   1.155  -4.518  0.00  0.00    -0.153 OA
ATOM      9  O   UNL     1      -2.025   3.096  -3.707  0.00  0.00    -0.153 OA
BRANCH   7  10
ATOM     10  N   UNL     1      -0.994   1.532  -2.094  0.00  0.00    -0.185 NA
ATOM     11  H   UNL     1      -0.909   0.571  -1.993  0.00  0.00    +0.148 HD
BRANCH  10  12
ATOM     12  C   UNL     1      -1.193   2.378  -0.915  0.00  0.00    +0.099 C 
ATOM     13  C   UNL     1      -2.685   2.408  -0.544  0.00  0.00    +0.044 C 
ATOM     14  C   UNL     1      -2.867   3.023   0.865  0.00  0.00    +0.167 C 
ATOM     15  S   UNL     1      -1.276   2.610   1.694  0.00  0.00    -0.029 S 
ATOM     16  O   UNL     1      -1.520   1.649   2.712  0.00  0.00    -0.174 OA
ATOM     17  O   UNL     1      -0.597   3.816   2.019  0.00  0.00    -0.174 OA
ATOM     18  C   UNL     1      -0.406   1.791   0.292  0.00  0.00    +0.186 C 
ENDBRANCH  10  12
ENDBRANCH   7  10
ENDBRANCH   3   7
BRANCH   6  19
ATOM     19  N   UNL     1       3.944   5.609  -3.725  0.00  0.00    -0.216 N 
ATOM     20  H   UNL     1       4.386   5.852  -2.897  0.00  0.00    +0.174 HD
BRANCH  19  21
ATOM     21  S   UNL     1       4.546   6.140  -5.173  0.00  0.00    +0.072 S 
ATOM     22  O   UNL     1       5.664   6.964  -4.871  0.00  0.00    -0.150 OA
ATOM     23  O   UNL     1       4.646   4.999  -6.015  0.00  0.00    -0.150 OA
BRANCH  21  24
ATOM     24  C   UNL     1       3.327   7.189  -5.891  0.00  0.00    +0.110 A 
ATOM     25  C   UNL     1       3.374   8.556  -5.666  0.00  0.00    +0.032 A 
ATOM     26  C   UNL     1       2.424   9.389  -6.222  0.00  0.00    +0.048 A 
ATOM     27  C   UNL     1       1.414   8.861  -7.013  0.00  0.00    +0.131 A 
ATOM     28  C   UNL     1       1.363   7.479  -7.244  0.00  0.00    +0.106 A 
ATOM     29  C   UNL     1       2.334   6.649  -6.678  0.00  0.00    +0.047 A 
BRANCH  28  30
ATOM     30  C   UNL     1       0.294   6.907  -8.083  0.00  0.00    +0.390 C 
ATOM     31  O   UNL     1      -0.545   7.633  -8.576  0.00  0.00    -0.240 OA
ATOM     32  O   UNL     1       0.249   5.578  -8.302  0.00  0.00    -0.240 OA
ENDBRANCH  28  30
BRANCH  27  33
ATOM     33  O   UNL     1       0.480   9.679  -7.560  0.00  0.00    -0.506 OA
ATOM     34  H   UNL     1       0.717  10.016  -8.435  0.00  0.00    +0.292 HD
ENDBRANCH  27  33
ENDBRANCH  21  24
ENDBRANCH  19  21
ENDBRANCH   6  19
TORSDOF 8
