REMARK  Name = ZINC22063162
REMARK  6 active torsions:
REMARK  status: ('A' for Active; 'I' for Inactive)
REMARK    1  A    between atoms: C_4  and  N_7
REMARK    2  A    between atoms: C_8  and  C_10
REMARK    3  A    between atoms: C_10  and  N_20
REMARK    4  A    between atoms: C_11  and  C_12
REMARK    5  A    between atoms: C_15  and  N_17
REMARK    6  A    between atoms: C_21  and  C_23
REMARK                            x       y       z     vdW  Elec       q    Type
REMARK                         _______ _______ _______ _____ _____    ______ ____
ROOT
ATOM      1  C   UNL     1      -2.190   1.576   0.169  0.00  0.00    +0.100 C 
ATOM      2  C   UNL     1      -2.193   0.300  -0.302  0.00  0.00    +0.075 C 
ENDROOT
BRANCH   2   3
ATOM      3  C   UNL     1      -3.390  -0.266  -0.805  0.00  0.00    +0.133 A 
ATOM      4  C   UNL     1      -3.565  -1.575  -1.206  0.00  0.00    +0.052 A 
ATOM      5  C   UNL     1      -4.899  -1.689  -1.628  0.00  0.00    +0.076 A 
ATOM      6  C   UNL     1      -5.472  -0.476  -1.472  0.00  0.00    +0.280 A 
ATOM      7  O   UNL     1      -4.564   0.376  -0.973  0.00  0.00    -0.434 OA
BRANCH   6   8
ATOM      8  N   UNL     1      -6.879  -0.141  -1.796  0.00  0.00    +0.093 N 
ATOM      9  O   UNL     1      -7.647  -1.017  -2.153  0.00  0.00    -0.123 OA
ATOM     10  O   UNL     1      -7.268   1.010  -1.706  0.00  0.00    -0.123 OA
ENDBRANCH   6   8
ENDBRANCH   2   3
BRANCH   1  12
ATOM     11  N   UNL     1      -4.211   2.185   1.386  0.00  0.00    -0.280 N 
ATOM     12  C   UNL     1      -3.448   2.317   0.283  0.00  0.00    +0.263 C 
ATOM     13  O   UNL     1      -3.805   3.054  -0.619  0.00  0.00    -0.268 OA
ATOM     14  H   UNL     1      -3.835   1.618   2.250  0.00  0.00    +0.155 HD
BRANCH  11  18
ATOM     15  C   UNL     1      -7.995   3.921   1.522  0.00  0.00    +0.000 A 
ATOM     16  C   UNL     1      -7.267   3.760   2.687  0.00  0.00    +0.002 A 
ATOM     17  C   UNL     1      -6.013   3.184   2.645  0.00  0.00    +0.023 A 
ATOM     18  C   UNL     1      -5.481   2.767   1.431  0.00  0.00    +0.034 A 
ATOM     19  C   UNL     1      -6.212   2.936   0.263  0.00  0.00    +0.023 A 
ATOM     20  C   UNL     1      -7.469   3.507   0.312  0.00  0.00    +0.002 A 
ENDBRANCH  11  18
ENDBRANCH   1  12
BRANCH   1  21
ATOM     21  N   UNL     1      -0.985   2.180   0.545  0.00  0.00    -0.277 N 
ATOM     22  C   UNL     1      -0.993   3.400   1.117  0.00  0.00    +0.248 C 
ATOM     23  O   UNL     1      -2.037   4.015   1.224  0.00  0.00    -0.270 OA
ATOM     24  H   UNL     1      -0.032   1.659   0.374  0.00  0.00    +0.155 HD
BRANCH  22  25
ATOM     25  C   UNL     1       0.266   3.988   1.620  0.00  0.00    +0.038 A 
ATOM     26  C   UNL     1       1.465   3.283   1.504  0.00  0.00    +0.013 A 
ATOM     27  C   UNL     1       2.638   3.839   1.971  0.00  0.00    +0.002 A 
ATOM     28  C   UNL     1       2.626   5.090   2.563  0.00  0.00    +0.015 A 
ATOM     29  C   UNL     1       1.440   5.793   2.687  0.00  0.00    +0.019 A 
ATOM     30  C   UNL     1       0.261   5.249   2.219  0.00  0.00    +0.028 A 
ATOM     31 BR   UNL     1       1.436   7.501   3.498  0.00  0.00    -0.050 Br
ENDBRANCH  22  25
ENDBRANCH   1  21
TORSDOF 6
