REMARK  Name = ZINC01901209
REMARK  14 active torsions:
REMARK  status: ('A' for Active; 'I' for Inactive)
REMARK    1  A    between atoms: C_1  and  C_2
REMARK    2  A    between atoms: C_2  and  C_3
REMARK    3  A    between atoms: C_3  and  C_4
REMARK    4  A    between atoms: C_4  and  C_5
REMARK    5  A    between atoms: C_5  and  N_6
REMARK    6  A    between atoms: C_10  and  C_25
REMARK    7  A    between atoms: N_12  and  C_13
REMARK    8  A    between atoms: C_13  and  C_15
REMARK    9  A    between atoms: C_19  and  N_22
REMARK   10  A    between atoms: C_20  and  C_21
REMARK   11  A    between atoms: C_25  and  O_27
REMARK   12  A    between atoms: O_27  and  C_28
REMARK   13  A    between atoms: C_28  and  C_29
REMARK   14  A    between atoms: C_36  and  C_39
REMARK                            x       y       z     vdW  Elec       q    Type
REMARK                         _______ _______ _______ _____ _____    ______ ____
ROOT
ATOM      1  N   UNL     1       0.277  -6.211   1.856  0.00  0.00    -0.311 N 
ATOM      2  C   UNL     1      -0.401  -7.040   2.712  0.00  0.00    +0.150 A 
ATOM      3  C   UNL     1       0.089  -8.345   2.966  0.00  0.00    +0.083 A 
ATOM      4  C   UNL     1       1.259  -8.790   2.348  0.00  0.00    +0.035 A 
ATOM      5  C   UNL     1       1.935  -7.932   1.479  0.00  0.00    +0.100 A 
ATOM      6  C   UNL     1       1.421  -6.633   1.238  0.00  0.00    +0.142 A 
ATOM      7  N   UNL     1       2.062  -5.816   0.406  0.00  0.00    -0.158 NA
ATOM      8  C   UNL     1      -0.661  -9.200   3.887  0.00  0.00    +0.268 A 
ATOM      9  O   UNL     1      -0.286 -10.331   4.142  0.00  0.00    -0.267 OA
ATOM     10  N   UNL     1      -1.785  -8.694   4.446  0.00  0.00    -0.267 N 
ATOM     11  C   UNL     1      -2.503  -9.469   5.307  0.00  0.00    +0.096 A 
ATOM     12  C   UNL     1      -3.632  -8.999   5.885  0.00  0.00    +0.019 A 
ATOM     13  C   UNL     1      -4.076  -7.700   5.602  0.00  0.00    +0.008 A 
ATOM     14  C   UNL     1      -3.364  -6.918   4.742  0.00  0.00    -0.007 A 
ATOM     15  C   UNL     1      -2.191  -7.423   4.149  0.00  0.00    +0.145 A 
ATOM     16  N   UNL     1      -1.512  -6.640   3.311  0.00  0.00    -0.211 NA
ATOM     17  C   UNL     1      -3.829  -5.519   4.428  0.00  0.00    +0.047 C 
ENDROOT
BRANCH   7  18
ATOM     18  C   UNL     1       2.601  -6.295  -0.719  0.00  0.00    +0.269 C 
ATOM     19  O   UNL     1       2.425  -7.460  -1.031  0.00  0.00    -0.268 OA
BRANCH  18  20
ATOM     20  C   UNL     1       3.411  -5.410  -1.588  0.00  0.00    +0.044 A 
ATOM     21  C   UNL     1       3.719  -4.114  -1.174  0.00  0.00    +0.013 A 
ATOM     22  C   UNL     1       4.474  -3.294  -1.987  0.00  0.00    +0.003 A 
ATOM     23  C   UNL     1       4.925  -3.755  -3.212  0.00  0.00    +0.033 A 
ATOM     24  C   UNL     1       4.622  -5.039  -3.628  0.00  0.00    +0.130 A 
ATOM     25  C   UNL     1       3.873  -5.870  -2.821  0.00  0.00    -0.008 A 
ATOM     26  C   UNL     1       3.549  -7.271  -3.272  0.00  0.00    +0.047 C 
BRANCH  24  27
ATOM     27  N   UNL     1       5.107  -5.524  -4.940  0.00  0.00    +0.057 N 
ATOM     28  O   UNL     1       5.868  -4.847  -5.591  0.00  0.00    -0.126 OA
ATOM     29  O   UNL     1       4.742  -6.597  -5.360  0.00  0.00    -0.126 OA
ENDBRANCH  24  27
ENDBRANCH  18  20
ENDBRANCH   7  18
BRANCH   5  30
ATOM     30  C   UNL     1       3.167  -8.373   0.815  0.00  0.00    +0.343 C 
ATOM     31  O   UNL     1       3.270  -9.520   0.424  0.00  0.00    -0.245 OA
BRANCH  30  32
ATOM     32  O   UNL     1       4.186  -7.507   0.638  0.00  0.00    -0.461 OA
BRANCH  32  33
ATOM     33  C   UNL     1       5.397  -8.033   0.093  0.00  0.00    +0.229 C 
ATOM     34  C   UNL     1       6.483  -6.956   0.130  0.00  0.00    +0.048 C 
ENDBRANCH  32  33
ENDBRANCH  30  32
ENDBRANCH   5  30
BRANCH   1  35
ATOM     35  C   UNL     1      -0.234  -4.862   1.596  0.00  0.00    +0.125 C 
BRANCH  35  36
ATOM     36  C   UNL     1      -1.193  -4.901   0.405  0.00  0.00    +0.022 C 
BRANCH  36  37
ATOM     37  C   UNL     1      -1.726  -3.493   0.133  0.00  0.00    +0.001 C 
BRANCH  37  39
ATOM     38  C   UNL     1      -3.219  -2.124  -1.330  0.00  0.00    +0.004 C 
ATOM     39  C   UNL     1      -2.686  -3.532  -1.058  0.00  0.00    -0.003 C 
ENDBRANCH  37  39
ENDBRANCH  36  37
ENDBRANCH  35  36
ENDBRANCH   1  35
TORSDOF 10
