REMARK  Name = ZINC59947269
REMARK  8 active torsions:
REMARK  status: ('A' for Active; 'I' for Inactive)
REMARK    1  A    between atoms: C_1  and  N_2
REMARK    2  A    between atoms: N_2  and  C_3
REMARK    3  A    between atoms: N_2  and  C_4
REMARK    4  A    between atoms: C_7  and  C_10
REMARK    5  A    between atoms: N_14  and  N_23
REMARK    6  A    between atoms: C_15  and  C_17
REMARK    7  A    between atoms: C_24  and  C_26
REMARK    8  A    between atoms: C_31  and  N_32
REMARK                            x       y       z     vdW  Elec       q    Type
REMARK                         _______ _______ _______ _____ _____    ______ ____
ROOT
ATOM      1  C   UNL     1      -0.204  -2.697  -4.827  0.00  0.00    +0.041 C 
ATOM      2  C   UNL     1      -0.303  -2.017  -6.024  0.00  0.00    +0.130 C 
ATOM      3  C   UNL     1      -0.390  -2.603  -7.372  0.00  0.00    +0.287 C 
ATOM      4  O   UNL     1      -0.388  -3.785  -7.664  0.00  0.00    -0.266 OA
ATOM      5  N   UNL     1      -0.471  -1.551  -8.217  0.00  0.00    -0.164 N 
ATOM      6  C   UNL     1      -0.439  -0.396  -7.472  0.00  0.00    +0.153 C 
ATOM      7  N   UNL     1      -0.348  -0.666  -6.197  0.00  0.00    -0.225 NA
ENDROOT
BRANCH   1  11
ATOM      8  C   UNL     1      -0.330  -0.578  -1.172  0.00  0.00    +0.029 A 
ATOM      9  C   UNL     1      -0.307   0.119  -2.379  0.00  0.00    +0.023 A 
ATOM     10  C   UNL     1      -0.266  -0.560  -3.562  0.00  0.00    +0.010 A 
ATOM     11  C   UNL     1      -0.247  -1.963  -3.562  0.00  0.00    -0.023 A 
ATOM     12  C   UNL     1      -0.271  -2.660  -2.344  0.00  0.00    +0.010 A 
ATOM     13  C   UNL     1      -0.306  -1.970  -1.166  0.00  0.00    +0.023 A 
BRANCH   8  15
ATOM     14  C   UNL     1      -0.390  -0.610   1.300  0.00  0.00    +0.129 C 
ATOM     15  N   UNL     1      -0.372   0.120   0.030  0.00  0.00    -0.336 N 
ATOM     16  C   UNL     1      -0.397   1.585   0.026  0.00  0.00    +0.129 C 
ENDBRANCH   8  15
ENDBRANCH   1  11
BRANCH   6  17
ATOM     17  C   UNL     1      -0.506   0.967  -8.037  0.00  0.00    +0.017 A 
ATOM     18  C   UNL     1      -0.615   1.150  -9.417  0.00  0.00    +0.011 A 
ATOM     19  C   UNL     1      -0.677   2.426  -9.938  0.00  0.00    +0.001 A 
ATOM     20  C   UNL     1      -0.632   3.523  -9.096  0.00  0.00    +0.000 A 
ATOM     21  C   UNL     1      -0.524   3.349  -7.728  0.00  0.00    +0.001 A 
ATOM     22  C   UNL     1      -0.467   2.079  -7.193  0.00  0.00    +0.011 A 
ENDBRANCH   6  17
BRANCH   5  23
ATOM     23  N   UNL     1      -0.570  -1.625  -9.613  0.00  0.00    -0.222 N 
ATOM     24  C   UNL     1      -1.735  -1.984 -10.188  0.00  0.00    +0.263 C 
ATOM     25  O   UNL     1      -2.700  -2.244  -9.496  0.00  0.00    -0.269 OA
ATOM     26  H   UNL     1       0.200  -1.418 -10.165  0.00  0.00    +0.174 HD
BRANCH  24  27
ATOM     27  C   UNL     1      -1.839  -2.062 -11.661  0.00  0.00    +0.068 A 
ATOM     28  C   UNL     1      -1.506  -0.958 -12.447  0.00  0.00    +0.015 A 
ATOM     29  C   UNL     1      -1.605  -1.037 -13.820  0.00  0.00    +0.001 A 
ATOM     30  C   UNL     1      -2.033  -2.209 -14.419  0.00  0.00    +0.002 A 
ATOM     31  C   UNL     1      -2.365  -3.307 -13.646  0.00  0.00    +0.033 A 
ATOM     32  C   UNL     1      -2.265  -3.243 -12.271  0.00  0.00    +0.138 A 
BRANCH  32  33
ATOM     33  N   UNL     1      -2.614  -4.420 -11.446  0.00  0.00    +0.057 N 
ATOM     34  O   UNL     1      -3.099  -5.399 -11.964  0.00  0.00    -0.126 OA
ATOM     35  O   UNL     1      -2.414  -4.404 -10.254  0.00  0.00    -0.126 OA
ENDBRANCH  32  33
ENDBRANCH  24  27
ENDBRANCH   5  23
TORSDOF 6
