REMARK  Name = ZINC13064624
REMARK  12 active torsions:
REMARK  status: ('A' for Active; 'I' for Inactive)
REMARK    1  A    between atoms: C_1  and  C_2
REMARK    2  A    between atoms: C_2  and  C_3
REMARK    3  A    between atoms: C_3  and  C_5
REMARK    4  A    between atoms: C_3  and  N_73
REMARK    5  A    between atoms: N_9  and  C_10
REMARK    6  A    between atoms: C_10  and  C_11
REMARK    7  A    between atoms: C_17  and  C_18
REMARK    8  A    between atoms: C_17  and  N_73
REMARK    9  A    between atoms: C_27  and  C_28
REMARK   10  A    between atoms: C_27  and  N_73
REMARK   11  A    between atoms: C_32  and  C_41
REMARK   12  A    between atoms: C_33  and  C_40
REMARK                            x       y       z     vdW  Elec       q    Type
REMARK                         _______ _______ _______ _____ _____    ______ ____
ROOT
ATOM      1  N   UNL     1      -5.476   4.058  -1.746  0.00  0.00    +0.392 N 
ATOM      2  H   UNL     1      -4.919   4.440  -2.520  0.00  0.00    -0.080 HD
ENDROOT
BRANCH   1   3
ATOM      3  C   UNL     1      -6.793   4.727  -1.726  0.00  0.00    +0.003 C 
BRANCH   3   4
ATOM      4  C   UNL     1      -6.611   6.160  -2.155  0.00  0.00    +0.138 A 
ATOM      5  N   UNL     1      -5.646   6.969  -1.792  0.00  0.00    -0.115 NA
ATOM      6  N   UNL     1      -5.839   8.104  -2.370  0.00  0.00    -0.023 NA
ATOM      7  N   UNL     1      -6.902   8.041  -3.093  0.00  0.00    -0.044 NA
ATOM      8  N   UNL     1      -7.404   6.856  -2.991  0.00  0.00    -0.228 N 
BRANCH   8   9
ATOM      9  C   UNL     1      -8.612   6.363  -3.657  0.00  0.00    +0.178 C 
BRANCH   9  10
ATOM     10  C   UNL     1      -9.829   6.628  -2.769  0.00  0.00    +0.140 C 
ATOM     11  C   UNL     1     -11.090   6.010  -3.410  0.00  0.00    +0.035 C 
ATOM     12  C   UNL     1     -12.171   7.084  -3.113  0.00  0.00    +0.031 C 
ATOM     13  C   UNL     1     -11.330   8.382  -3.207  0.00  0.00    +0.160 C 
ATOM     14  O   UNL     1     -10.049   8.039  -2.655  0.00  0.00    -0.375 OA
ENDBRANCH   9  10
ENDBRANCH   8   9
ENDBRANCH   3   4
BRANCH   3  16
ATOM     15  C   UNL     1      -7.702   3.240   0.064  0.00  0.00    +0.002 C 
ATOM     16  C   UNL     1      -7.390   4.689  -0.318  0.00  0.00    -0.011 C 
ENDBRANCH   3  16
ENDBRANCH   1   3
BRANCH   1  17
ATOM     17  C   UNL     1      -5.651   2.605  -1.954  0.00  0.00    -0.041 C 
BRANCH  17  18
ATOM     18  C   UNL     1      -6.103   2.368  -3.372  0.00  0.00    -0.060 A 
ATOM     19  C   UNL     1      -5.170   2.294  -4.389  0.00  0.00    +0.005 A 
ATOM     20  C   UNL     1      -5.579   2.077  -5.692  0.00  0.00    +0.050 A 
ATOM     21  C   UNL     1      -6.927   1.932  -5.980  0.00  0.00    +0.166 A 
ATOM     22  C   UNL     1      -7.866   2.006  -4.955  0.00  0.00    +0.166 A 
ATOM     23  C   UNL     1      -7.448   2.219  -3.651  0.00  0.00    +0.051 A 
ATOM     24  O   UNL     1      -9.110   1.833  -5.489  0.00  0.00    -0.453 OA
ATOM     25  C   UNL     1      -8.893   1.246  -6.786  0.00  0.00    +0.466 C 
ATOM     26  O   UNL     1      -7.582   1.712  -7.157  0.00  0.00    -0.453 OA
ENDBRANCH  17  18
ENDBRANCH   1  17
BRANCH   1  27
ATOM     27  C   UNL     1      -4.764   4.305  -0.475  0.00  0.00    -0.036 C 
BRANCH  27  28
ATOM     28  C   UNL     1      -3.323   3.896  -0.639  0.00  0.00    +0.001 A 
ATOM     29  C   UNL     1      -2.394   4.819  -0.991  0.00  0.00    +0.017 A 
ATOM     30  C   UNL     1      -1.003   4.390  -1.141  0.00  0.00    -0.001 A 
ATOM     31  C   UNL     1      -0.001   5.296  -1.503  0.00  0.00    +0.013 A 
ATOM     32  C   UNL     1       1.288   4.864  -1.636  0.00  0.00    -0.047 A 
ATOM     33  C   UNL     1       1.613   3.532  -1.414  0.00  0.00    -0.046 A 
ATOM     34  C   UNL     1       0.642   2.622  -1.057  0.00  0.00    +0.030 A 
ATOM     35  C   UNL     1      -0.679   3.038  -0.922  0.00  0.00    +0.049 A 
ATOM     36  N   UNL     1      -1.669   2.149  -0.560  0.00  0.00    -0.322 N 
ATOM     37  H   UNL     1      -1.443   1.219  -0.406  0.00  0.00    +0.169 HD
ATOM     38  C   UNL     1      -2.944   2.553  -0.424  0.00  0.00    +0.251 A 
ATOM     39  O   UNL     1      -3.795   1.739  -0.109  0.00  0.00    -0.268 OA
ATOM     40  C   UNL     1       3.041   3.078  -1.566  0.00  0.00    +0.044 C 
ATOM     41  C   UNL     1       2.367   5.841  -2.026  0.00  0.00    +0.044 C 
ENDBRANCH  27  28
ENDBRANCH   1  27
TORSDOF 9
