REMARK  Name = ZINC21300070
REMARK  5 active torsions:
REMARK  status: ('A' for Active; 'I' for Inactive)
REMARK    1  A    between atoms: C_11  and  C_30
REMARK    2  A    between atoms: C_14  and  C_16
REMARK    3  A    between atoms: C_16  and  N_17
REMARK    4  A    between atoms: N_20  and  C_23
REMARK    5  A    between atoms: C_23  and  C_24
REMARK                            x       y       z     vdW  Elec       q    Type
REMARK                         _______ _______ _______ _____ _____    ______ ____
ROOT
ATOM      1  C   UNL     1      -0.013   1.076   0.008  0.00  0.00    +0.002 A 
ATOM      2  C   UNL     1       1.177   1.781   0.000  0.00  0.00    +0.002 A 
ATOM      3  C   UNL     1       1.168   3.164  -0.001  0.00  0.00    +0.025 A 
ATOM      4  C   UNL     1      -0.038   3.845   0.004  0.00  0.00    +0.058 A 
ATOM      5  C   UNL     1      -1.238   3.133   0.029  0.00  0.00    +0.055 A 
ATOM      6  C   UNL     1      -1.221   1.748   0.017  0.00  0.00    +0.025 A 
ATOM      7  N   UNL     1      -2.449   3.835   0.073  0.00  0.00    -0.284 N 
ATOM      8  C   UNL     1      -2.685   4.846  -0.791  0.00  0.00    +0.219 C 
ATOM      9  O   UNL     1      -3.701   5.500  -0.689  0.00  0.00    -0.275 OA
ATOM     10  C   UNL     1      -1.696   5.165  -1.881  0.00  0.00    +0.128 C 
ATOM     11  C   UNL     1      -0.485   5.894  -1.296  0.00  0.00    +0.194 C 
ATOM     12  N   UNL     1      -0.069   5.245  -0.051  0.00  0.00    -0.259 N 
ATOM     13  C   UNL     1       0.279   5.981   1.024  0.00  0.00    +0.204 C 
ATOM     14  O   UNL     1       0.249   7.192   0.964  0.00  0.00    -0.277 OA
ATOM     15  H   UNL     1      -3.215   3.564   0.815  0.00  0.00    +0.155 HD
ENDROOT
BRANCH  11  16
ATOM     16  C   UNL     1       0.667   5.853  -2.300  0.00  0.00    +0.409 C 
ATOM     17  F   UNL     1       0.274   6.480  -3.487  0.00  0.00    -0.169 F 
ATOM     18  F   UNL     1       1.776   6.519  -1.766  0.00  0.00    -0.169 F 
ATOM     19  F   UNL     1       1.008   4.522  -2.567  0.00  0.00    -0.169 F 
ENDBRANCH  11  16
BRANCH  13  20
ATOM     20  C   UNL     1       0.706   5.300   2.298  0.00  0.00    +0.019 C 
BRANCH  20  21
ATOM     21  N   UNL     1       1.030   6.313   3.310  0.00  0.00    +0.387 N 
ATOM     22  C   UNL     1       2.216   7.088   2.918  0.00  0.00    -0.063 C 
ATOM     23  C   UNL     1       2.474   8.182   3.957  0.00  0.00    +0.066 C 
ATOM     24  N   UNL     1       2.664   7.566   5.277  0.00  0.00    -0.301 NA
ATOM     25  C   UNL     1       1.478   6.791   5.669  0.00  0.00    +0.066 C 
ATOM     26  C   UNL     1       1.220   5.697   4.631  0.00  0.00    -0.063 C 
ATOM     27  H   UNL     1       0.179   7.007   3.378  0.00  0.00    -0.081 HD
BRANCH  24  28
ATOM     28  C   UNL     1       2.989   8.579   6.290  0.00  0.00    +0.126 C 
BRANCH  28  29
ATOM     29  C   UNL     1       4.335   9.183   5.982  0.00  0.00    +0.005 A 
ATOM     30  C   UNL     1       4.632  10.259   5.214  0.00  0.00    +0.014 A 
ATOM     31  C   UNL     1       5.954  10.639   5.076  0.00  0.00    +0.028 A 
ATOM     32  C   UNL     1       6.915   9.916   5.704  0.00  0.00    +0.078 A 
ATOM     33  S   UNL     1       5.952   8.660   6.529  0.00  0.00    -0.080 S 
ATOM     34 CL   UNL     1       8.635  10.152   5.705  0.00  0.00    -0.076 Cl
ENDBRANCH  28  29
ENDBRANCH  24  28
ENDBRANCH  20  21
ENDBRANCH  13  20
TORSDOF 5
