REMARK  Name = ZINC19354092
REMARK  3 active torsions:
REMARK  status: ('A' for Active; 'I' for Inactive)
REMARK    1  A    between atoms: C_4  and  N_7
REMARK    2  A    between atoms: C_9  and  C_18
REMARK    3  A    between atoms: C_10  and  C_12
REMARK                            x       y       z     vdW  Elec       q    Type
REMARK                         _______ _______ _______ _____ _____    ______ ____
ROOT
ATOM      1  C   UNL     1       5.843  -3.530  -0.528  0.00  0.00    +0.212 C 
ATOM      2  N   UNL     1       4.962  -4.650  -0.149  0.00  0.00    -0.293 N 
ATOM      3  C   UNL     1       3.990  -5.076  -1.015  0.00  0.00    +0.183 C 
ATOM      4  N   UNL     1       4.140  -4.972  -2.324  0.00  0.00    -0.183 NA
ATOM      5  C   UNL     1       5.258  -4.374  -2.799  0.00  0.00    +0.236 A 
ATOM      6  N   UNL     1       6.112  -3.674  -1.963  0.00  0.00    -0.285 N 
ATOM      7  C   UNL     1       7.154  -3.200  -2.725  0.00  0.00    +0.076 A 
ATOM      8  C   UNL     1       8.298  -2.461  -2.450  0.00  0.00    +0.077 A 
ATOM      9  C   UNL     1       9.171  -2.141  -3.471  0.00  0.00    +0.164 A 
ATOM     10  C   UNL     1       8.915  -2.554  -4.776  0.00  0.00    +0.164 A 
ATOM     11  C   UNL     1       7.783  -3.287  -5.066  0.00  0.00    +0.079 A 
ATOM     12  C   UNL     1       6.889  -3.617  -4.043  0.00  0.00    +0.095 A 
ATOM     13  N   UNL     1       5.714  -4.317  -4.023  0.00  0.00    -0.210 NA
ATOM     14  O   UNL     1       9.793  -2.230  -5.770  0.00  0.00    -0.488 OA
ATOM     15  C   UNL     1       9.867  -0.845  -6.113  0.00  0.00    +0.232 C 
ATOM     16  C   UNL     1      10.821  -0.110  -5.185  0.00  0.00    +0.082 C 
ATOM     17  C   UNL     1      10.331  -0.093  -3.746  0.00  0.00    +0.232 C 
ATOM     18  O   UNL     1      10.298  -1.415  -3.205  0.00  0.00    -0.488 OA
ATOM     19  N   UNL     1       2.839  -5.622  -0.514  0.00  0.00    -0.331 N 
ATOM     20  H   UNL     1       5.069  -5.083   0.712  0.00  0.00    +0.151 HD
ATOM     21  H   UNL     1       2.719  -5.704   0.445  0.00  0.00    +0.145 HD
ATOM     22  H   UNL     1       2.144  -5.928  -1.119  0.00  0.00    +0.145 HD
ENDROOT
BRANCH   1  25
ATOM     23  N   UNL     1       3.604  -0.693   0.015  0.00  0.00    -0.239 N 
ATOM     24  C   UNL     1       3.819  -2.004  -0.273  0.00  0.00    +0.122 A 
ATOM     25  C   UNL     1       5.152  -2.217  -0.262  0.00  0.00    +0.039 A 
ATOM     26  C   UNL     1       5.784  -0.995   0.044  0.00  0.00    +0.100 A 
ATOM     27  N   UNL     1       4.850  -0.081   0.204  0.00  0.00    -0.166 NA
BRANCH  23  31
ATOM     28  C   UNL     1      -0.110   1.181   0.272  0.00  0.00    +0.000 A 
ATOM     29  C   UNL     1       1.047   1.909   0.483  0.00  0.00    +0.002 A 
ATOM     30  C   UNL     1       2.279   1.291   0.399  0.00  0.00    +0.028 A 
ATOM     31  C   UNL     1       2.356  -0.063   0.102  0.00  0.00    +0.065 A 
ATOM     32  C   UNL     1       1.193  -0.791  -0.111  0.00  0.00    +0.028 A 
ATOM     33  C   UNL     1      -0.036  -0.167  -0.025  0.00  0.00    +0.002 A 
ENDBRANCH  23  31
BRANCH  26  34
ATOM     34  C   UNL     1       7.247  -0.776   0.160  0.00  0.00    +0.005 A 
ATOM     35  C   UNL     1       8.059  -1.692   0.834  0.00  0.00    +0.030 A 
ATOM     36  C   UNL     1       9.415  -1.449   0.918  0.00  0.00    +0.111 A 
ATOM     37  N   UNL     1       9.944  -0.371   0.374  0.00  0.00    -0.263 NA
ATOM     38  C   UNL     1       9.213   0.519  -0.271  0.00  0.00    +0.111 A 
ATOM     39  C   UNL     1       7.851   0.350  -0.407  0.00  0.00    +0.030 A 
ENDBRANCH  26  34
ENDBRANCH   1  25
TORSDOF 3
