REMARK  Name = ZINC17146313
REMARK  10 active torsions:
REMARK  status: ('A' for Active; 'I' for Inactive)
REMARK    1  A    between atoms: C_1  and  C_2
REMARK    2  A    between atoms: C_2  and  C_3
REMARK    3  A    between atoms: C_2  and  C_4
REMARK    4  A    between atoms: C_7  and  C_10
REMARK    5  A    between atoms: C_10  and  C_31
REMARK    6  A    between atoms: N_13  and  C_17
REMARK    7  A    between atoms: C_17  and  C_18
REMARK    8  A    between atoms: N_23  and  C_24
REMARK    9  A    between atoms: C_24  and  C_25
REMARK   10  A    between atoms: C_25  and  C_26
REMARK                            x       y       z     vdW  Elec       q    Type
REMARK                         _______ _______ _______ _____ _____    ______ ____
ROOT
ATOM      1  C   UNL     1       2.451   3.937  -0.001  0.00  0.00    +0.135 C 
ATOM      2  C   UNL     1       2.287   5.262   0.717  0.00  0.00    +0.251 C 
ATOM      3  O   UNL     1       1.542   6.170   0.417  0.00  0.00    -0.272 OA
ATOM      4  N   UNL     1       3.143   5.221   1.757  0.00  0.00    -0.215 N 
ATOM      5  C   UNL     1       3.818   4.066   1.796  0.00  0.00    +0.310 C 
ATOM      6  O   UNL     1       4.647   3.796   2.643  0.00  0.00    -0.252 OA
ATOM      7  N   UNL     1       3.476   3.237   0.792  0.00  0.00    -0.281 N 
ATOM      8  C   UNL     1       2.934   4.158  -1.436  0.00  0.00    +0.047 C 
ATOM      9  H   UNL     1       3.835   2.352   0.625  0.00  0.00    +0.152 HD
ENDROOT
BRANCH   1  13
ATOM     10  C   UNL     1      -1.219   1.751   0.017  0.00  0.00    -0.045 A 
ATOM     11  C   UNL     1      -0.013   1.076   0.008  0.00  0.00    +0.004 A 
ATOM     12  C   UNL     1       1.175   1.783   0.000  0.00  0.00    +0.006 A 
ATOM     13  C   UNL     1       1.156   3.165   0.008  0.00  0.00    -0.015 A 
ATOM     14  C   UNL     1      -0.050   3.840   0.022  0.00  0.00    +0.006 A 
ATOM     15  C   UNL     1      -1.238   3.133   0.030  0.00  0.00    +0.004 A 
BRANCH  10  17
ATOM     16  C   UNL     1      -3.315   1.331   1.274  0.00  0.00    +0.012 C 
ATOM     17  C   UNL     1      -2.514   0.980   0.019  0.00  0.00    +0.013 C 
ATOM     18  C   UNL     1      -3.327   1.345  -1.224  0.00  0.00    +0.012 C 
ENDBRANCH  10  17
ENDBRANCH   1  13
BRANCH   4  19
ATOM     19  C   UNL     1       3.314   6.307   2.725  0.00  0.00    +0.214 C 
BRANCH  19  20
ATOM     20  C   UNL     1       2.356   6.113   3.872  0.00  0.00    +0.238 C 
ATOM     21  O   UNL     1       1.604   5.162   3.879  0.00  0.00    -0.274 OA
ATOM     22  N   UNL     1       2.334   6.997   4.889  0.00  0.00    -0.239 N 
ATOM     23  C   UNL     1       1.477   6.824   5.914  0.00  0.00    +0.306 C 
ATOM     24  O   UNL     1       0.723   5.871   5.922  0.00  0.00    -0.252 OA
ATOM     25  N   UNL     1       1.455   7.708   6.931  0.00  0.00    -0.299 N 
ATOM     26  H   UNL     1       2.936   7.758   4.883  0.00  0.00    +0.159 HD
ATOM     27  H   UNL     1       2.057   8.469   6.925  0.00  0.00    +0.150 HD
BRANCH  25  28
ATOM     28  C   UNL     1       0.523   7.520   8.046  0.00  0.00    +0.111 C 
BRANCH  28  29
ATOM     29  C   UNL     1       0.702   8.654   9.057  0.00  0.00    +0.061 C 
BRANCH  29  30
ATOM     30  C   UNL     1      -0.257   8.461  10.204  0.00  0.00    -0.009 A 
ATOM     31  C   UNL     1      -0.077   7.778  11.360  0.00  0.00    +0.011 A 
ATOM     32  C   UNL     1      -1.107   7.737  12.282  0.00  0.00    +0.008 A 
ATOM     33  C   UNL     1      -2.269   8.373  11.996  0.00  0.00    +0.045 A 
ATOM     34  S   UNL     1      -1.927   9.065  10.387  0.00  0.00    -0.102 S 
ENDBRANCH  29  30
ENDBRANCH  28  29
ENDBRANCH  25  28
ENDBRANCH  19  20
ENDBRANCH   4  19
TORSDOF 7
