REMARK  Name = ZINC13063889
REMARK  12 active torsions:
REMARK  status: ('A' for Active; 'I' for Inactive)
REMARK    1  A    between atoms: C_1  and  C_2
REMARK    2  A    between atoms: C_2  and  C_3
REMARK    3  A    between atoms: C_3  and  C_5
REMARK    4  A    between atoms: C_3  and  N_70
REMARK    5  A    between atoms: N_9  and  C_10
REMARK    6  A    between atoms: C_10  and  C_11
REMARK    7  A    between atoms: C_14  and  O_17
REMARK    8  A    between atoms: O_17  and  C_18
REMARK    9  A    between atoms: C_19  and  C_20
REMARK   10  A    between atoms: C_19  and  N_70
REMARK   11  A    between atoms: C_25  and  C_32
REMARK   12  A    between atoms: C_33  and  N_70
REMARK                            x       y       z     vdW  Elec       q    Type
REMARK                         _______ _______ _______ _____ _____    ______ ____
ROOT
ATOM      1  N   UNL     1      -0.746   2.997   1.499  0.00  0.00    +0.391 N 
ATOM      2  H   UNL     1      -0.753   3.097   2.521  0.00  0.00    -0.080 HD
ENDROOT
BRANCH   1   3
ATOM      3  C   UNL     1       0.616   3.280   0.999  0.00  0.00    -0.067 C 
ATOM      4  C   UNL     1       1.568   2.137   1.409  0.00  0.00    -0.015 C 
ATOM      5  C   UNL     1       2.894   2.857   1.763  0.00  0.00    -0.002 C 
ATOM      6  C   UNL     1       2.406   4.149   2.464  0.00  0.00    -0.002 C 
ATOM      7  C   UNL     1       1.149   4.558   1.669  0.00  0.00    -0.015 C 
ENDBRANCH   1   3
BRANCH   1   8
ATOM      8  C   UNL     1      -1.135   1.614   1.149  0.00  0.00    +0.003 C 
BRANCH   8   9
ATOM      9  C   UNL     1      -1.252   1.461  -0.346  0.00  0.00    +0.138 A 
ATOM     10  N   UNL     1      -1.900   2.252  -1.165  0.00  0.00    -0.115 NA
ATOM     11  N   UNL     1      -1.763   1.787  -2.359  0.00  0.00    -0.023 NA
ATOM     12  N   UNL     1      -1.051   0.716  -2.321  0.00  0.00    -0.044 NA
ATOM     13  N   UNL     1      -0.717   0.481  -1.097  0.00  0.00    -0.226 N 
BRANCH  13  14
ATOM     14  C   UNL     1       0.093  -0.641  -0.616  0.00  0.00    +0.182 C 
BRANCH  14  15
ATOM     15  C   UNL     1      -0.807  -1.802  -0.279  0.00  0.00    -0.026 A 
ATOM     16  C   UNL     1      -1.318  -1.930   1.000  0.00  0.00    +0.009 A 
ATOM     17  C   UNL     1      -2.147  -2.990   1.310  0.00  0.00    +0.046 A 
ATOM     18  C   UNL     1      -2.459  -3.932   0.341  0.00  0.00    +0.120 A 
ATOM     19  C   UNL     1      -1.940  -3.805  -0.940  0.00  0.00    +0.046 A 
ATOM     20  C   UNL     1      -1.115  -2.740  -1.246  0.00  0.00    +0.009 A 
BRANCH  18  21
ATOM     21  O   UNL     1      -3.271  -4.979   0.645  0.00  0.00    -0.495 OA
ATOM     22  C   UNL     1      -3.768  -5.047   1.983  0.00  0.00    +0.277 C 
ENDBRANCH  18  21
ENDBRANCH  14  15
ENDBRANCH  13  14
ENDBRANCH   8   9
BRANCH   8  24
ATOM     23  C   UNL     1      -2.335   1.343   3.323  0.00  0.00    +0.002 C 
ATOM     24  C   UNL     1      -2.483   1.300   1.801  0.00  0.00    -0.011 C 
ENDBRANCH   8  24
ENDBRANCH   1   8
BRANCH   1  25
ATOM     25  C   UNL     1      -1.707   3.955   0.915  0.00  0.00    -0.036 C 
BRANCH  25  26
ATOM     26  C   UNL     1      -1.547   5.283   1.610  0.00  0.00    +0.001 A 
ATOM     27  C   UNL     1      -0.930   6.309   0.972  0.00  0.00    +0.017 A 
ATOM     28  C   UNL     1      -0.795   7.588   1.672  0.00  0.00    -0.001 A 
ATOM     29  C   UNL     1      -0.172   8.683   1.065  0.00  0.00    +0.010 A 
ATOM     30  C   UNL     1      -0.058   9.861   1.747  0.00  0.00    +0.004 A 
ATOM     31  C   UNL     1      -0.554   9.981   3.039  0.00  0.00    -0.048 A 
ATOM     32  C   UNL     1      -1.172   8.915   3.656  0.00  0.00    +0.029 A 
ATOM     33  C   UNL     1      -1.300   7.705   2.981  0.00  0.00    +0.049 A 
ATOM     34  N   UNL     1      -1.912   6.623   3.575  0.00  0.00    -0.322 N 
ATOM     35  H   UNL     1      -2.259   6.705   4.478  0.00  0.00    +0.169 HD
ATOM     36  C   UNL     1      -2.036   5.454   2.923  0.00  0.00    +0.251 A 
ATOM     37  O   UNL     1      -2.583   4.517   3.479  0.00  0.00    -0.268 OA
ATOM     38  C   UNL     1      -0.416  11.290   3.772  0.00  0.00    +0.044 C 
ENDBRANCH  25  26
ENDBRANCH   1  25
TORSDOF 9
