REMARK  Name = ZINC22326273
REMARK  10 active torsions:
REMARK  status: ('A' for Active; 'I' for Inactive)
REMARK    1  A    between atoms: C_1  and  C_2
REMARK    2  A    between atoms: C_5  and  S_8
REMARK    3  A    between atoms: S_8  and  N_11
REMARK    4  A    between atoms: N_11  and  C_12
REMARK    5  A    between atoms: N_11  and  C_26
REMARK    6  A    between atoms: C_12  and  C_13
REMARK    7  A    between atoms: N_15  and  C_16
REMARK    8  A    between atoms: N_15  and  C_17
REMARK    9  A    between atoms: C_23  and  O_25
REMARK   10  A    between atoms: C_30  and  C_32
REMARK                            x       y       z     vdW  Elec       q    Type
REMARK                         _______ _______ _______ _____ _____    ______ ____
ROOT
ATOM      1  N   UNL     1      -2.826   4.688   4.925  0.00  0.00    -0.194 N 
ENDROOT
BRANCH   1   2
ATOM      2  C   UNL     1      -1.824   5.399   5.589  0.00  0.00    +0.052 A 
ATOM      3  C   UNL     1      -1.113   6.389   4.922  0.00  0.00    +0.026 A 
ATOM      4  C   UNL     1      -0.128   7.095   5.583  0.00  0.00    +0.022 A 
ATOM      5  C   UNL     1       0.161   6.808   6.906  0.00  0.00    +0.053 A 
ATOM      6  C   UNL     1      -0.541   5.819   7.572  0.00  0.00    +0.075 A 
ATOM      7  C   UNL     1      -1.532   5.114   6.917  0.00  0.00    +0.038 A 
ATOM      8 CL   UNL     1       1.406   7.692   7.732  0.00  0.00    -0.083 Cl
BRANCH   6   9
ATOM      9  C   UNL     1      -0.224   5.510   9.012  0.00  0.00    +0.419 C 
ATOM     10  F   UNL     1      -1.058   4.482   9.463  0.00  0.00    -0.166 F 
ATOM     11  F   UNL     1       1.112   5.108   9.120  0.00  0.00    -0.166 F 
ATOM     12  F   UNL     1      -0.431   6.654   9.791  0.00  0.00    -0.166 F 
ENDBRANCH   6   9
ENDBRANCH   1   2
BRANCH   1  13
ATOM     13  S   UNL     1      -2.707   3.044   4.764  0.00  0.00    +0.075 S 
ATOM     14  O   UNL     1      -4.036   2.543   4.718  0.00  0.00    -0.150 OA
ATOM     15  O   UNL     1      -1.763   2.608   5.733  0.00  0.00    -0.150 OA
BRANCH  13  20
ATOM     16  C   UNL     1      -0.261   1.949  -0.641  0.00  0.00    +0.044 C 
ATOM     17  C   UNL     1      -0.872   2.222   0.709  0.00  0.00    -0.050 A 
ATOM     18  C   UNL     1      -2.245   2.321   0.839  0.00  0.00    +0.005 A 
ATOM     19  C   UNL     1      -2.805   2.567   2.079  0.00  0.00    +0.029 A 
ATOM     20  C   UNL     1      -1.993   2.724   3.186  0.00  0.00    +0.109 A 
ATOM     21  C   UNL     1      -0.620   2.630   3.055  0.00  0.00    +0.029 A 
ATOM     22  C   UNL     1      -0.059   2.380   1.816  0.00  0.00    +0.005 A 
ENDBRANCH  13  20
ENDBRANCH   1  13
BRANCH   1  23
ATOM     23  C   UNL     1      -3.982   5.396   4.369  0.00  0.00    +0.227 C 
BRANCH  23  24
ATOM     24  C   UNL     1      -5.023   5.577   5.443  0.00  0.00    +0.235 C 
ATOM     25  O   UNL     1      -4.820   5.156   6.562  0.00  0.00    -0.274 OA
ATOM     26  N   UNL     1      -6.181   6.207   5.160  0.00  0.00    -0.298 N 
ATOM     27  C   UNL     1      -6.426   6.716   3.808  0.00  0.00    +0.132 C 
BRANCH  26  28
ATOM     28  C   UNL     1      -7.193   6.384   6.203  0.00  0.00    +0.104 C 
ATOM     29  C   UNL     1      -7.456   7.876   6.412  0.00  0.00    +0.025 C 
ATOM     30  C   UNL     1      -8.514   8.060   7.502  0.00  0.00    +0.002 C 
ATOM     31  C   UNL     1      -9.810   7.369   7.077  0.00  0.00    +0.003 C 
ATOM     32  C   UNL     1      -9.548   5.876   6.868  0.00  0.00    +0.033 C 
ATOM     33  C   UNL     1      -8.490   5.692   5.778  0.00  0.00    +0.135 C 
BRANCH  33  34
ATOM     34  O   UNL     1      -8.245   4.298   5.583  0.00  0.00    -0.390 OA
ATOM     35  H   UNL     1      -9.064   3.633   5.273  0.00  0.00    +0.210 HD
ENDBRANCH  33  34
ENDBRANCH  26  28
ENDBRANCH  23  24
ENDBRANCH   1  23
TORSDOF 8
