REMARK  Name = ZINC39065984
REMARK  2 active torsions:
REMARK  status: ('A' for Active; 'I' for Inactive)
REMARK    1  A    between atoms: C_4  and  C_5
REMARK    2  A    between atoms: C_4  and  C_8
REMARK                            x       y       z     vdW  Elec       q    Type
REMARK                         _______ _______ _______ _____ _____    ______ ____
ROOT
ATOM      1  C   UNL     1      -0.019   1.526   0.010  0.00  0.00    +0.071 C 
ATOM      2  C   UNL     1       1.317   0.779  -0.006  0.00  0.00    +0.196 C 
ATOM      3  C   UNL     1       0.002  -0.004   0.002  0.00  0.00    +0.205 C 
ATOM      4  F   UNL     1       2.051   0.796  -1.197  0.00  0.00    -0.244 F 
ENDROOT
BRANCH   3   5
ATOM      5  C   UNL     1      -0.402  -0.698  -1.273  0.00  0.00    +0.376 C 
ATOM      6  O   UNL     1       0.078  -1.783  -1.555  0.00  0.00    -0.245 OA
ATOM      7  O   UNL     1      -1.210  -0.176  -2.022  0.00  0.00    -0.245 OA
ENDBRANCH   3   5
BRANCH   3   8
ATOM      8  C   UNL     1      -0.378  -0.712   1.277  0.00  0.00    +0.376 C 
ATOM      9  O   UNL     1      -0.903  -1.812   1.230  0.00  0.00    -0.245 OA
ATOM     10  O   UNL     1      -0.161  -0.185   2.355  0.00  0.00    -0.245 OA
ENDBRANCH   3   8
TORSDOF 2
