REMARK  Name = ZINC05769934
REMARK  3 active torsions:
REMARK  status: ('A' for Active; 'I' for Inactive)
REMARK    1  A    between atoms: C_6  and  N_7
REMARK    2  A    between atoms: C_8  and  C_9
REMARK    3  A    between atoms: C_14  and  O_15
REMARK                            x       y       z     vdW  Elec       q    Type
REMARK                         _______ _______ _______ _____ _____    ______ ____
ROOT
ATOM      1  C   UNL     1       1.588  -4.873   0.816  0.00  0.00    +0.031 A 
ATOM      2  C   UNL     1       1.616  -6.252   0.807  0.00  0.00    +0.052 A 
ATOM      3  C   UNL     1       2.468  -6.928  -0.053  0.00  0.00    +0.173 A 
ATOM      4  C   UNL     1       3.302  -6.214  -0.914  0.00  0.00    +0.175 A 
ATOM      5  C   UNL     1       3.275  -4.832  -0.913  0.00  0.00    +0.077 A 
ATOM      6  C   UNL     1       2.420  -4.152  -0.043  0.00  0.00    +0.068 A 
ATOM      7  O   UNL     1       4.035  -7.102  -1.648  0.00  0.00    -0.395 OA
ATOM      8  C   UNL     1       3.349  -8.362  -1.521  0.00  0.00    +0.589 C 
ATOM      9  O   UNL     1       2.680  -8.262  -0.250  0.00  0.00    -0.395 OA
ATOM     10  F   UNL     1       2.420  -8.522  -2.554  0.00  0.00    -0.125 F 
ATOM     11  F   UNL     1       4.264  -9.421  -1.516  0.00  0.00    -0.125 F 
ENDROOT
BRANCH   6  12
ATOM     12  N   UNL     1       2.394  -2.784  -0.035  0.00  0.00    -0.255 NA
ATOM     13  C   UNL     1       1.252  -2.154  -0.021  0.00  0.00    +0.123 C 
BRANCH  13  14
ATOM     14  C   UNL     1       1.224  -0.684  -0.013  0.00  0.00    +0.036 A 
ATOM     15  C   UNL     1       0.002  -0.004   0.002  0.00  0.00    +0.028 A 
ATOM     16  C   UNL     1      -0.017   1.375   0.010  0.00  0.00    +0.019 A 
ATOM     17  C   UNL     1       1.171   2.090   0.002  0.00  0.00    +0.019 A 
ATOM     18  C   UNL     1       2.384   1.430  -0.013  0.00  0.00    +0.047 A 
ATOM     19  C   UNL     1       2.423   0.045  -0.021  0.00  0.00    +0.125 A 
ATOM     20 BR   UNL     1      -1.669   2.293   0.022  0.00  0.00    -0.050 Br
BRANCH  19  21
ATOM     21  O   UNL     1       3.615  -0.604  -0.036  0.00  0.00    -0.506 OA
ATOM     22  H   UNL     1       3.952  -0.787  -0.924  0.00  0.00    +0.292 HD
ENDBRANCH  19  21
ENDBRANCH  13  14
ENDBRANCH   6  12
TORSDOF 3
