REMARK  Name = ZINC54527427
REMARK  3 active torsions:
REMARK  status: ('A' for Active; 'I' for Inactive)
REMARK    1  A    between atoms: C_1  and  C_2
REMARK    2  A    between atoms: C_8  and  N_10
REMARK    3  A    between atoms: CA_12  and  C_17
REMARK                            x       y       z     vdW  Elec       q    Type
REMARK                         _______ _______ _______ _____ _____    ______ ____
ROOT
ATOM      1  N   UNL     1       0.055  -0.043   2.448  0.00  0.00    -0.324 N 
ATOM      2  C   UNL     1       0.754   0.094   3.631  0.00  0.00    +0.152 A 
ATOM      3  CA  UNL     1       0.127   0.643   4.763  0.00  0.00    +0.192 A 
ATOM      4  N   UNL     1       0.811   0.770   5.899  0.00  0.00    -0.244 NA
ATOM      5  C   UNL     1       2.068   0.384   5.957  0.00  0.00    +0.131 A 
ATOM      6  C   UNL     1       2.688  -0.158   4.838  0.00  0.00    +0.132 A 
ATOM      7  N   UNL     1       2.022  -0.297   3.707  0.00  0.00    -0.237 NA
ATOM      8  H   UNL     1      -0.892   0.167   2.417  0.00  0.00    +0.148 HD
ENDROOT
BRANCH   1  15
ATOM      9  C   UNL     1      -0.037   1.527   0.017  0.00  0.00    +0.009 C 
ATOM     10  C   UNL     1      -0.004  -0.002   0.004  0.00  0.00    +0.006 C 
ATOM     11  C   UNL     1      -1.435  -0.544   0.015  0.00  0.00    +0.005 C 
ATOM     12  C   UNL     1      -1.401  -2.074   0.002  0.00  0.00    +0.000 C 
ATOM     13  C   UNL     1      -0.655  -2.578   1.239  0.00  0.00    +0.002 C 
ATOM     14  C   UNL     1       0.776  -2.036   1.228  0.00  0.00    +0.022 C 
ATOM     15  C   UNL     1       0.743  -0.506   1.240  0.00  0.00    +0.075 C 
ENDBRANCH   1  15
BRANCH   3  16
ATOM     16  C   UNL     1      -1.281   1.075   4.694  0.00  0.00    +0.408 C 
ATOM     17  O   UNL     1      -1.960   1.113   5.711  0.00  0.00    -0.239 OA
ATOM     18  OXT UNL     1      -1.770   1.396   3.620  0.00  0.00    -0.239 OA
ENDBRANCH   3  16
TORSDOF 2
