REMARK  Name = ZINC01819891
REMARK  14 active torsions:
REMARK  status: ('A' for Active; 'I' for Inactive)
REMARK    1  A    between atoms: C_1  and  C_2
REMARK    2  A    between atoms: C_5  and  S_8
REMARK    3  A    between atoms: S_8  and  N_11
REMARK    4  A    between atoms: N_11  and  C_12
REMARK    5  A    between atoms: N_11  and  C_31
REMARK    6  A    between atoms: C_12  and  C_13
REMARK    7  A    between atoms: C_13  and  C_15
REMARK    8  A    between atoms: C_13  and  O_30
REMARK    9  A    between atoms: C_15  and  N_71
REMARK   10  A    between atoms: C_16  and  C_17
REMARK   11  A    between atoms: C_16  and  N_71
REMARK   12  A    between atoms: C_23  and  C_24
REMARK   13  A    between atoms: C_23  and  N_71
REMARK   14  A    between atoms: C_35  and  C_37
REMARK                            x       y       z     vdW  Elec       q    Type
REMARK                         _______ _______ _______ _____ _____    ______ ____
ROOT
ATOM      1  C   UNL     1      -2.274   2.194   0.286  0.00  0.00    +0.117 C 
ENDROOT
BRANCH   1   2
ATOM      2  O   UNL     1      -1.733   3.431  -0.183  0.00  0.00    -0.392 OA
ATOM      3  H   UNL     1      -0.799   3.384  -0.429  0.00  0.00    +0.210 HD
ENDBRANCH   1   2
BRANCH   1   4
ATOM      4  C   UNL     1      -2.149   1.135  -0.811  0.00  0.00    +0.161 C 
BRANCH   4   5
ATOM      5  N   UNL     1      -2.887   1.571  -1.998  0.00  0.00    -0.201 N 
BRANCH   5   6
ATOM      6  C   UNL     1      -4.257   1.322  -2.100  0.00  0.00    +0.052 A 
ATOM      7  C   UNL     1      -4.723   0.015  -2.183  0.00  0.00    +0.025 A 
ATOM      8  C   UNL     1      -6.078  -0.228  -2.279  0.00  0.00    +0.002 A 
ATOM      9  C   UNL     1      -6.972   0.827  -2.303  0.00  0.00    +0.003 A 
ATOM     10  C   UNL     1      -6.512   2.128  -2.225  0.00  0.00    -0.049 A 
ATOM     11  C   UNL     1      -5.157   2.379  -2.124  0.00  0.00    +0.028 A 
ATOM     12  C   UNL     1      -7.490   3.275  -2.251  0.00  0.00    +0.044 C 
ENDBRANCH   5   6
BRANCH   5  13
ATOM     13  S   UNL     1      -2.096   2.361  -3.221  0.00  0.00    +0.075 S 
ATOM     14  O   UNL     1      -3.080   3.106  -3.926  0.00  0.00    -0.150 OA
ATOM     15  O   UNL     1      -0.953   2.970  -2.637  0.00  0.00    -0.150 OA
BRANCH  13  20
ATOM     16  C   UNL     1      -0.052  -1.844  -7.034  0.00  0.00    +0.044 C 
ATOM     17  C   UNL     1      -0.563  -0.794  -6.082  0.00  0.00    -0.050 A 
ATOM     18  C   UNL     1      -1.820  -0.248  -6.264  0.00  0.00    +0.005 A 
ATOM     19  C   UNL     1      -2.288   0.716  -5.390  0.00  0.00    +0.029 A 
ATOM     20  C   UNL     1      -1.500   1.133  -4.334  0.00  0.00    +0.109 A 
ATOM     21  C   UNL     1      -0.241   0.590  -4.155  0.00  0.00    +0.029 A 
ATOM     22  C   UNL     1       0.226  -0.376  -5.026  0.00  0.00    +0.005 A 
ENDBRANCH  13  20
ENDBRANCH   5  13
ENDBRANCH   4   5
ENDBRANCH   1   4
BRANCH   1  23
ATOM     23  C   UNL     1      -1.503   1.738   1.526  0.00  0.00    -0.045 C 
BRANCH  23  24
ATOM     24  N   UNL     1      -1.716   2.722   2.608  0.00  0.00    +0.387 N 
ATOM     25  H   UNL     1      -1.503   3.661   2.251  0.00  0.00    -0.081 HD
BRANCH  24  26
ATOM     26  C   UNL     1      -3.124   2.686   3.055  0.00  0.00    -0.042 C 
BRANCH  26  27
ATOM     27  C   UNL     1      -3.375   3.860   3.966  0.00  0.00    -0.064 A 
ATOM     28  C   UNL     1      -3.323   3.694   5.338  0.00  0.00    +0.002 A 
ATOM     29  C   UNL     1      -3.547   4.772   6.173  0.00  0.00    +0.000 A 
ATOM     30  C   UNL     1      -3.836   6.013   5.638  0.00  0.00    +0.000 A 
ATOM     31  C   UNL     1      -3.893   6.178   4.266  0.00  0.00    +0.000 A 
ATOM     32  C   UNL     1      -3.663   5.101   3.431  0.00  0.00    +0.002 A 
ENDBRANCH  26  27
ENDBRANCH  24  26
BRANCH  24  33
ATOM     33  C   UNL     1      -0.818   2.426   3.744  0.00  0.00    -0.042 C 
BRANCH  33  34
ATOM     34  C   UNL     1       0.578   2.865   3.384  0.00  0.00    -0.064 A 
ATOM     35  C   UNL     1       1.490   1.946   2.900  0.00  0.00    +0.002 A 
ATOM     36  C   UNL     1       2.768   2.350   2.565  0.00  0.00    +0.000 A 
ATOM     37  C   UNL     1       3.139   3.672   2.725  0.00  0.00    +0.000 A 
ATOM     38  C   UNL     1       2.230   4.591   3.214  0.00  0.00    +0.000 A 
ATOM     39  C   UNL     1       0.949   4.188   3.544  0.00  0.00    +0.002 A 
ENDBRANCH  33  34
ENDBRANCH  24  33
ENDBRANCH  23  24
ENDBRANCH   1  23
TORSDOF 12
