REMARK  Name = ZINC38733248
REMARK  3 active torsions:
REMARK  status: ('A' for Active; 'I' for Inactive)
REMARK    1  A    between atoms: C_13  and  C_15
REMARK    2  A    between atoms: C_21  and  C_23
REMARK    3  A    between atoms: N_28  and  C_31
REMARK                            x       y       z     vdW  Elec       q    Type
REMARK                         _______ _______ _______ _____ _____    ______ ____
ROOT
ATOM      1  C   UNL     1      -0.029  -6.637   1.132  0.00  0.00    +0.091 C 
ATOM      2  C   UNL     1      -0.795  -6.408  -0.173  0.00  0.00    +0.040 C 
ATOM      3  C   UNL     1      -1.934  -7.379  -0.281  0.00  0.00    -0.030 C 
ATOM      4  C   UNL     1      -2.034  -8.461   0.422  0.00  0.00    -0.030 C 
ATOM      5  C   UNL     1      -1.031  -8.889   1.452  0.00  0.00    +0.040 C 
ATOM      6  C   UNL     1       0.285  -8.133   1.259  0.00  0.00    +0.091 C 
ENDROOT
BRANCH   1  19
ATOM      7  C   UNL     1       0.007   1.389   2.324  0.00  0.00    +0.005 A 
ATOM      8  C   UNL     1       1.217   2.071   2.294  0.00  0.00    +0.018 A 
ATOM      9  C   UNL     1       2.396   1.354   2.266  0.00  0.00    +0.084 A 
ATOM     10  N   UNL     1       2.386   0.034   2.268  0.00  0.00    -0.350 N 
ATOM     11  C   UNL     1       1.254  -0.651   2.296  0.00  0.00    +0.099 A 
ATOM     12  C   UNL     1       0.028   0.006   2.325  0.00  0.00    +0.042 A 
ATOM     13  N   UNL     1       1.290  -2.041   2.296  0.00  0.00    -0.314 N 
ATOM     14  C   UNL     1       0.053  -2.821   2.438  0.00  0.00    +0.125 C 
ATOM     15  C   UNL     1      -0.056  -3.787   1.251  0.00  0.00    +0.126 C 
ATOM     16  N   UNL     1       1.220  -4.502   1.109  0.00  0.00    -0.298 N 
ATOM     17  C   UNL     1       2.458  -3.722   0.968  0.00  0.00    +0.126 C 
ATOM     18  C   UNL     1       2.566  -2.756   2.148  0.00  0.00    +0.125 C 
ATOM     19  C   UNL     1       1.255  -5.850   1.110  0.00  0.00    +0.220 C 
ATOM     20  O   UNL     1       2.321  -6.428   1.092  0.00  0.00    -0.275 OA
ATOM     21  H   UNL     1       3.229  -0.445   2.248  0.00  0.00    +0.166 HD
ENDBRANCH   1  19
BRANCH   6  22
ATOM     22  C   UNL     1       0.962  -8.617   0.002  0.00  0.00    +0.220 C 
ATOM     23  O   UNL     1       0.361  -8.610  -1.051  0.00  0.00    -0.275 OA
ATOM     24  N   UNL     1       2.235  -9.057   0.050  0.00  0.00    -0.298 N 
ATOM     25  C   UNL     1       2.930  -9.199   1.337  0.00  0.00    +0.126 C 
ATOM     26  C   UNL     1       3.446 -10.637   1.459  0.00  0.00    +0.124 C 
ATOM     27  N   UNL     1       4.164 -10.986   0.225  0.00  0.00    -0.325 N 
ATOM     28  C   UNL     1       3.469 -10.844  -1.062  0.00  0.00    +0.124 C 
ATOM     29  C   UNL     1       2.950  -9.411  -1.185  0.00  0.00    +0.126 C 
BRANCH  27  30
ATOM     30  C   UNL     1       5.479 -11.441   0.274  0.00  0.00    +0.070 A 
ATOM     31  C   UNL     1       6.549 -10.547   0.215  0.00  0.00    +0.081 A 
ATOM     32  C   UNL     1       7.838 -11.039   0.267  0.00  0.00    +0.132 A 
ATOM     33  N   UNL     1       8.063 -12.335   0.370  0.00  0.00    -0.260 NA
ATOM     34  C   UNL     1       7.079 -13.213   0.428  0.00  0.00    +0.132 A 
ATOM     35  C   UNL     1       5.762 -12.802   0.388  0.00  0.00    +0.081 A 
ATOM     36 CL   UNL     1       4.475 -13.964   0.472  0.00  0.00    -0.080 Cl
ATOM     37 CL   UNL     1       6.263  -8.840   0.079  0.00  0.00    -0.080 Cl
ENDBRANCH  27  30
ENDBRANCH   6  22
TORSDOF 3
