REMARK  Name = ZINC39846300
REMARK  9 active torsions:
REMARK  status: ('A' for Active; 'I' for Inactive)
REMARK    1  A    between atoms: C_1  and  C_2
REMARK    2  A    between atoms: C_5  and  C_19
REMARK    3  A    between atoms: C_6  and  C_7
REMARK    4  A    between atoms: C_6  and  C_8
REMARK    5  A    between atoms: C_12  and  C_17
REMARK    6  A    between atoms: C_13  and  C_15
REMARK    7  A    between atoms: N_21  and  C_22
REMARK    8  A    between atoms: C_27  and  S_28
REMARK    9  A    between atoms: S_28  and  C_29
REMARK                            x       y       z     vdW  Elec       q    Type
REMARK                         _______ _______ _______ _____ _____    ______ ____
ROOT
ATOM      1  C   UNL     1       1.309   1.226  -1.096  0.00  0.00    +0.018 C 
ATOM      2  C   UNL     1       0.937  -0.226  -0.789  0.00  0.00    +0.018 C 
ATOM      3  C   UNL     1       1.066  -1.237  -1.973  0.00  0.00    +0.015 C 
ATOM      4  C   UNL     1       1.088  -2.622  -1.283  0.00  0.00    +0.024 C 
ATOM      5  C   UNL     1       0.969  -2.291   0.238  0.00  0.00    +0.097 C 
ATOM      6  C   UNL     1       1.802  -0.958   0.302  0.00  0.00    -0.005 C 
ATOM      7  C   UNL     1       3.247  -1.174  -0.151  0.00  0.00    +0.013 C 
ATOM      8  C   UNL     1       1.725  -0.267   1.665  0.00  0.00    +0.013 C 
ATOM      9  C   UNL     1      -0.446  -1.728   0.392  0.00  0.00    +0.080 A 
ATOM     10  C   UNL     1      -0.464  -0.460  -0.218  0.00  0.00    +0.072 A 
ATOM     11  N   UNL     1      -1.556   0.268  -0.237  0.00  0.00    -0.236 NA
ATOM     12  C   UNL     1      -2.662  -0.186   0.350  0.00  0.00    +0.176 A 
ATOM     13  C   UNL     1      -2.651  -1.440   0.987  0.00  0.00    +0.176 A 
ATOM     14  N   UNL     1      -1.526  -2.204   0.965  0.00  0.00    -0.236 NA
ENDROOT
BRANCH   5  15
ATOM     15  C   UNL     1       1.375  -3.385   1.191  0.00  0.00    +0.230 C 
ATOM     16  O   UNL     1       2.290  -3.205   1.967  0.00  0.00    -0.274 OA
ATOM     17  N   UNL     1       0.721  -4.564   1.182  0.00  0.00    -0.284 N 
ATOM     18  H   UNL     1      -0.057  -4.682   0.615  0.00  0.00    +0.155 HD
BRANCH  17  19
ATOM     19  C   UNL     1       1.165  -5.618   1.990  0.00  0.00    +0.047 A 
ATOM     20  C   UNL     1       1.819  -5.351   3.184  0.00  0.00    +0.024 A 
ATOM     21  C   UNL     1       2.256  -6.393   3.981  0.00  0.00    +0.002 A 
ATOM     22  C   UNL     1       2.045  -7.703   3.592  0.00  0.00    +0.001 A 
ATOM     23  C   UNL     1       1.395  -7.979   2.404  0.00  0.00    +0.017 A 
ATOM     24  C   UNL     1       0.947  -6.939   1.600  0.00  0.00    +0.034 A 
BRANCH  24  25
ATOM     25  S   UNL     1       0.112  -7.288   0.088  0.00  0.00    -0.088 S 
BRANCH  25  26
ATOM     26  C   UNL     1       0.035  -9.047   0.040  0.00  0.00    +0.013 A 
ATOM     27  C   UNL     1      -0.997  -9.717   0.686  0.00  0.00    +0.015 A 
ATOM     28  C   UNL     1      -1.054 -11.096   0.646  0.00  0.00    +0.001 A 
ATOM     29  C   UNL     1      -0.087 -11.811  -0.036  0.00  0.00    +0.000 A 
ATOM     30  C   UNL     1       0.942 -11.148  -0.681  0.00  0.00    +0.001 A 
ATOM     31  C   UNL     1       1.002  -9.769  -0.650  0.00  0.00    +0.015 A 
ENDBRANCH  25  26
ENDBRANCH  24  25
ENDBRANCH  17  19
ENDBRANCH   5  15
BRANCH  13  32
ATOM     32  C   UNL     1      -3.835  -1.935   1.621  0.00  0.00    +0.122 C 
ATOM     33  N   UNL     1      -4.774  -2.328   2.125  0.00  0.00    -0.189 NA
ENDBRANCH  13  32
BRANCH  12  34
ATOM     34  C   UNL     1      -3.858   0.602   0.335  0.00  0.00    +0.122 C 
ATOM     35  N   UNL     1      -4.807   1.226   0.323  0.00  0.00    -0.189 NA
ENDBRANCH  12  34
TORSDOF 6
