REMARK  Name = ZINC01375100
REMARK  14 active torsions:
REMARK  status: ('A' for Active; 'I' for Inactive)
REMARK    1  A    between atoms: C_1  and  C_2
REMARK    2  A    between atoms: C_2  and  C_3
REMARK    3  A    between atoms: C_3  and  C_5
REMARK    4  A    between atoms: C_3  and  N_19
REMARK    5  A    between atoms: N_9  and  C_10
REMARK    6  A    between atoms: C_10  and  C_11
REMARK    7  A    between atoms: C_14  and  O_17
REMARK    8  A    between atoms: O_17  and  C_18
REMARK    9  A    between atoms: N_19  and  C_20
REMARK   10  A    between atoms: N_19  and  C_26
REMARK   11  A    between atoms: C_20  and  C_21
REMARK   12  A    between atoms: C_26  and  C_27
REMARK   13  A    between atoms: C_31  and  C_40
REMARK   14  A    between atoms: C_32  and  C_39
REMARK                            x       y       z     vdW  Elec       q    Type
REMARK                         _______ _______ _______ _____ _____    ______ ____
ROOT
ATOM      1  N   UNL     1      -2.519  -0.279  -1.888  0.00  0.00    -0.284 NA
ENDROOT
BRANCH   1   2
ATOM      2  C   UNL     1      -2.311  -0.737  -0.507  0.00  0.00    +0.127 C 
BRANCH   2   3
ATOM      3  C   UNL     1      -3.087  -2.008  -0.277  0.00  0.00    +0.169 A 
ATOM      4  N   UNL     1      -3.181  -3.026  -1.096  0.00  0.00    -0.112 NA
ATOM      5  N   UNL     1      -3.930  -3.916  -0.541  0.00  0.00    -0.023 NA
ATOM      6  N   UNL     1      -4.316  -3.490   0.611  0.00  0.00    -0.044 NA
ATOM      7  N   UNL     1      -3.812  -2.320   0.813  0.00  0.00    -0.223 N 
BRANCH   7   8
ATOM      8  C   UNL     1      -3.998  -1.486   2.002  0.00  0.00    +0.182 C 
BRANCH   8   9
ATOM      9  C   UNL     1      -5.209  -0.608   1.816  0.00  0.00    -0.026 A 
ATOM     10  C   UNL     1      -5.074   0.641   1.238  0.00  0.00    +0.009 A 
ATOM     11  C   UNL     1      -6.182   1.448   1.067  0.00  0.00    +0.046 A 
ATOM     12  C   UNL     1      -7.431   1.004   1.475  0.00  0.00    +0.120 A 
ATOM     13  C   UNL     1      -7.565  -0.250   2.054  0.00  0.00    +0.046 A 
ATOM     14  C   UNL     1      -6.454  -1.055   2.218  0.00  0.00    +0.009 A 
BRANCH  12  15
ATOM     15  O   UNL     1      -8.523   1.796   1.307  0.00  0.00    -0.495 OA
ATOM     16  C   UNL     1      -9.777   1.274   1.750  0.00  0.00    +0.277 C 
ENDBRANCH  12  15
ENDBRANCH   8   9
ENDBRANCH   7   8
ENDBRANCH   2   3
BRANCH   2  18
ATOM     17  C   UNL     1      -0.053   0.321  -0.352  0.00  0.00    +0.006 C 
ATOM     18  C   UNL     1      -0.821  -1.000  -0.277  0.00  0.00    +0.023 C 
ENDBRANCH   2  18
ENDBRANCH   1   2
BRANCH   1  19
ATOM     19  C   UNL     1      -1.493  -0.826  -2.785  0.00  0.00    +0.127 C 
BRANCH  19  20
ATOM     20  C   UNL     1      -1.730  -2.302  -2.979  0.00  0.00    +0.004 A 
ATOM     21  C   UNL     1      -2.599  -2.924  -3.813  0.00  0.00    +0.012 A 
ATOM     22  C   UNL     1      -2.645  -4.306  -3.823  0.00  0.00    +0.008 A 
ATOM     23  C   UNL     1      -1.821  -4.997  -2.999  0.00  0.00    +0.045 A 
ATOM     24  S   UNL     1      -0.935  -3.684  -2.176  0.00  0.00    -0.100 S 
ENDBRANCH  19  20
ENDBRANCH   1  19
BRANCH   1  25
ATOM     25  C   UNL     1      -2.551   1.188  -1.957  0.00  0.00    +0.126 C 
BRANCH  25  26
ATOM     26  C   UNL     1      -3.154   1.616  -3.270  0.00  0.00    +0.031 A 
ATOM     27  C   UNL     1      -4.482   1.876  -3.350  0.00  0.00    +0.020 A 
ATOM     28  C   UNL     1      -5.037   2.290  -4.640  0.00  0.00    -0.001 A 
ATOM     29  C   UNL     1      -6.400   2.572  -4.785  0.00  0.00    +0.013 A 
ATOM     30  C   UNL     1      -6.886   2.957  -6.003  0.00  0.00    -0.047 A 
ATOM     31  C   UNL     1      -6.040   3.070  -7.098  0.00  0.00    -0.046 A 
ATOM     32  C   UNL     1      -4.694   2.797  -6.978  0.00  0.00    +0.030 A 
ATOM     33  C   UNL     1      -4.176   2.405  -5.748  0.00  0.00    +0.049 A 
ATOM     34  N   UNL     1      -2.834   2.126  -5.600  0.00  0.00    -0.322 N 
ATOM     35  H   UNL     1      -2.242   2.205  -6.364  0.00  0.00    +0.169 HD
ATOM     36  C   UNL     1      -2.333   1.752  -4.410  0.00  0.00    +0.254 A 
ATOM     37  O   UNL     1      -1.140   1.518  -4.314  0.00  0.00    -0.268 OA
ATOM     38  C   UNL     1      -6.599   3.496  -8.431  0.00  0.00    +0.044 C 
ATOM     39  C   UNL     1      -8.354   3.260  -6.158  0.00  0.00    +0.044 C 
ENDBRANCH  25  26
ENDBRANCH   1  25
TORSDOF 10
