REMARK  Name = ZINC13231848
REMARK  11 active torsions:
REMARK  status: ('A' for Active; 'I' for Inactive)
REMARK    1  A    between atoms: C_1  and  C_2
REMARK    2  A    between atoms: C_2  and  C_3
REMARK    3  A    between atoms: C_2  and  C_4
REMARK    4  A    between atoms: C_4  and  N_5
REMARK    5  A    between atoms: C_11  and  C_29
REMARK    6  A    between atoms: C_15  and  S_16
REMARK    7  A    between atoms: S_16  and  C_17
REMARK    8  A    between atoms: C_17  and  C_18
REMARK    9  A    between atoms: N_20  and  C_21
REMARK   10  A    between atoms: N_20  and  C_22
REMARK   11  A    between atoms: C_22  and  C_23
REMARK                            x       y       z     vdW  Elec       q    Type
REMARK                         _______ _______ _______ _____ _____    ______ ____
ROOT
ATOM      1  N   UNL     1       0.634  -1.958  -1.325  0.00  0.00    -0.287 N 
ATOM      2  C   UNL     1      -0.408  -2.541  -1.962  0.00  0.00    +0.262 A 
ATOM      3  O   UNL     1      -1.283  -1.874  -2.482  0.00  0.00    -0.267 OA
ATOM      4  C   UNL     1      -0.445  -4.012  -2.003  0.00  0.00    +0.065 A 
ATOM      5  C   UNL     1      -1.479  -4.701  -2.635  0.00  0.00    +0.016 A 
ATOM      6  C   UNL     1      -1.478  -6.066  -2.650  0.00  0.00    +0.016 A 
ATOM      7  C   UNL     1      -0.444  -6.785  -2.036  0.00  0.00    +0.065 A 
ATOM      8  C   UNL     1       0.596  -6.119  -1.401  0.00  0.00    +0.043 A 
ATOM      9  C   UNL     1       0.605  -4.722  -1.378  0.00  0.00    +0.080 A 
ATOM     10  N   UNL     1       1.598  -4.031  -0.770  0.00  0.00    -0.223 NA
ATOM     11  C   UNL     1       1.611  -2.721  -0.752  0.00  0.00    +0.173 A 
ENDROOT
BRANCH   7  12
ATOM     12  C   UNL     1      -0.461  -8.264  -2.064  0.00  0.00    +0.387 C 
ATOM     13  O   UNL     1       0.433  -8.892  -1.533  0.00  0.00    -0.241 OA
ATOM     14  O   UNL     1      -1.467  -8.915  -2.679  0.00  0.00    -0.241 OA
ENDBRANCH   7  12
BRANCH   1  15
ATOM     15  C   UNL     1       0.718  -0.497  -1.257  0.00  0.00    +0.130 C 
BRANCH  15  17
ATOM     16  C   UNL     1      -0.019   1.526   0.010  0.00  0.00    +0.009 C 
ATOM     17  C   UNL     1       0.002  -0.004   0.002  0.00  0.00    +0.003 C 
ATOM     18  C   UNL     1       0.742  -0.511   1.242  0.00  0.00    +0.009 C 
ENDBRANCH  15  17
ENDBRANCH   1  15
BRANCH  11  19
ATOM     19  S   UNL     1       2.947  -1.905   0.056  0.00  0.00    -0.078 S 
BRANCH  19  20
ATOM     20  C   UNL     1       3.903  -3.339   0.609  0.00  0.00    +0.173 C 
BRANCH  20  21
ATOM     21  C   UNL     1       5.130  -2.870   1.348  0.00  0.00    +0.226 C 
ATOM     22  O   UNL     1       5.338  -1.684   1.487  0.00  0.00    -0.275 OA
ATOM     23  N   UNL     1       5.997  -3.770   1.854  0.00  0.00    -0.299 N 
ATOM     24  C   UNL     1       5.746  -5.204   1.686  0.00  0.00    +0.132 C 
BRANCH  23  25
ATOM     25  C   UNL     1       7.190  -3.315   2.572  0.00  0.00    +0.149 C 
BRANCH  25  26
ATOM     26  C   UNL     1       6.870  -3.174   4.038  0.00  0.00    +0.008 A 
ATOM     27  C   UNL     1       6.976  -4.095   5.026  0.00  0.00    +0.014 A 
ATOM     28  C   UNL     1       6.623  -3.739   6.315  0.00  0.00    +0.028 A 
ATOM     29  C   UNL     1       6.180  -2.479   6.551  0.00  0.00    +0.078 A 
ATOM     30  S   UNL     1       6.262  -1.748   4.924  0.00  0.00    -0.080 S 
ATOM     31 CL   UNL     1       5.674  -1.760   8.048  0.00  0.00    -0.076 Cl
ENDBRANCH  25  26
ENDBRANCH  23  25
ENDBRANCH  20  21
ENDBRANCH  19  20
ENDBRANCH  11  19
TORSDOF 8
