REMARK  Name = ZINC21255523
REMARK  9 active torsions:
REMARK  status: ('A' for Active; 'I' for Inactive)
REMARK    1  A    between atoms: C_1  and  C_2
REMARK    2  A    between atoms: C_2  and  C_3
REMARK    3  A    between atoms: C_2  and  O_4
REMARK    4  A    between atoms: O_4  and  C_5
REMARK    5  A    between atoms: C_8  and  C_11
REMARK    6  A    between atoms: C_16  and  C_22
REMARK    7  A    between atoms: C_26  and  O_28
REMARK    8  A    between atoms: O_28  and  C_29
REMARK    9  A    between atoms: C_29  and  C_30
REMARK                            x       y       z     vdW  Elec       q    Type
REMARK                         _______ _______ _______ _____ _____    ______ ____
ROOT
ATOM      1  C   UNL     1      -1.732   5.436   2.927  0.00  0.00    +0.032 C 
ATOM      2  C   UNL     1      -0.497   6.004   2.224  0.00  0.00    +0.059 C 
ATOM      3  C   UNL     1      -0.302   5.308   0.900  0.00  0.00    +0.018 C 
ATOM      4  C   UNL     1      -0.684   4.025   0.730  0.00  0.00    +0.020 C 
ATOM      5  C   UNL     1      -0.468   3.345  -0.602  0.00  0.00    +0.063 C 
ATOM      6  C   UNL     1      -0.657   4.363  -1.728  0.00  0.00    +0.109 C 
ATOM      7  C   UNL     1       0.131   5.607  -1.407  0.00  0.00    +0.218 C 
ATOM      8  O   UNL     1       0.635   6.251  -2.302  0.00  0.00    -0.275 OA
ATOM      9  N   UNL     1       0.277   6.004  -0.131  0.00  0.00    -0.289 N 
ATOM     10  C   UNL     1      -1.286   3.297   1.770  0.00  0.00    +0.162 C 
ATOM     11  O   UNL     1      -1.609   2.141   1.582  0.00  0.00    -0.292 OA
ATOM     12  C   UNL     1      -1.538   3.928   3.113  0.00  0.00    +0.088 C 
ATOM     13  H   UNL     1       0.873   6.904   0.080  0.00  0.00    +0.155 HD
ENDROOT
BRANCH   1  17
ATOM     14  C   UNL     1      -2.199   7.305   6.742  0.00  0.00    +0.121 A 
ATOM     15  C   UNL     1      -3.209   7.396   5.795  0.00  0.00    +0.046 A 
ATOM     16  C   UNL     1      -3.055   6.791   4.562  0.00  0.00    +0.007 A 
ATOM     17  C   UNL     1      -1.896   6.095   4.272  0.00  0.00    -0.043 A 
ATOM     18  C   UNL     1      -0.891   5.998   5.216  0.00  0.00    +0.007 A 
ATOM     19  C   UNL     1      -1.037   6.606   6.448  0.00  0.00    +0.046 A 
BRANCH  14  20
ATOM     20  O   UNL     1      -2.348   7.898   7.955  0.00  0.00    -0.489 OA
BRANCH  20  22
ATOM     21  C   UNL     1      -0.181   8.662   8.704  0.00  0.00    +0.051 C 
ATOM     22  C   UNL     1      -1.322   7.665   8.921  0.00  0.00    +0.167 C 
ATOM     23  C   UNL     1      -1.895   7.846  10.328  0.00  0.00    +0.051 C 
ENDBRANCH  20  22
ENDBRANCH  14  20
ENDBRANCH   1  17
BRANCH   5  24
ATOM     24  C   UNL     1       0.930   2.786  -0.659  0.00  0.00    -0.036 A 
ATOM     25  C   UNL     1       2.018   3.631  -0.539  0.00  0.00    +0.004 A 
ATOM     26  C   UNL     1       3.302   3.121  -0.597  0.00  0.00    +0.004 A 
ATOM     27  C   UNL     1       3.501   1.766  -0.776  0.00  0.00    +0.045 A 
ATOM     28  C   UNL     1       2.411   0.916  -0.898  0.00  0.00    +0.121 A 
ATOM     29  C   UNL     1       1.123   1.430  -0.839  0.00  0.00    +0.050 A 
BRANCH  28  30
ATOM     30  O   UNL     1       2.604  -0.417  -1.074  0.00  0.00    -0.487 OA
BRANCH  30  31
ATOM     31  C   UNL     1       3.957  -0.876  -1.125  0.00  0.00    +0.264 C 
BRANCH  31  32
ATOM     32  C   UNL     1       3.973  -2.370  -1.325  0.00  0.00    -0.010 A 
ATOM     33  C   UNL     1       3.978  -3.213  -0.230  0.00  0.00    +0.007 A 
ATOM     34  C   UNL     1       3.989  -4.583  -0.413  0.00  0.00    +0.000 A 
ATOM     35  C   UNL     1       4.005  -5.110  -1.691  0.00  0.00    +0.000 A 
ATOM     36  C   UNL     1       4.006  -4.266  -2.786  0.00  0.00    +0.000 A 
ATOM     37  C   UNL     1       3.990  -2.896  -2.603  0.00  0.00    +0.007 A 
ENDBRANCH  31  32
ENDBRANCH  30  31
ENDBRANCH  28  30
ENDBRANCH   5  24
TORSDOF 7
