REMARK  Name = ZINC43193533
REMARK  15 active torsions:
REMARK  status: ('A' for Active; 'I' for Inactive)
REMARK    1  A    between atoms: C_1  and  C_2
REMARK    2  A    between atoms: C_4  and  C_30
REMARK    3  A    between atoms: C_7  and  C_20
REMARK    4  A    between atoms: C_10  and  C_11
REMARK    5  A    between atoms: C_10  and  O_19
REMARK    6  A    between atoms: C_16  and  O_17
REMARK    7  A    between atoms: O_17  and  C_18
REMARK    8  A    between atoms: C_22  and  O_28
REMARK    9  A    between atoms: C_25  and  O_26
REMARK   10  A    between atoms: O_26  and  C_27
REMARK   11  A    between atoms: O_28  and  C_29
REMARK   12  A    between atoms: C_32  and  O_38
REMARK   13  A    between atoms: C_35  and  O_36
REMARK   14  A    between atoms: O_36  and  C_37
REMARK   15  A    between atoms: O_38  and  C_39
REMARK                            x       y       z     vdW  Elec       q    Type
REMARK                         _______ _______ _______ _____ _____    ______ ____
ROOT
ATOM      1  C   UNL     1      -0.069   1.727   0.537  0.00  0.00    +0.009 C 
ATOM      2  C   UNL     1      -0.084   0.232   0.211  0.00  0.00    +0.012 C 
ATOM      3  C   UNL     1      -1.506  -0.310   0.363  0.00  0.00    -0.030 C 
ATOM      4  N   UNL     1      -1.967  -0.108   1.742  0.00  0.00    +0.389 N 
ATOM      5  C   UNL     1      -1.124  -0.875   2.666  0.00  0.00    -0.033 C 
ATOM      6  C   UNL     1       0.314  -0.354   2.603  0.00  0.00    +0.029 C 
ATOM      7  C   UNL     1       0.846  -0.510   1.175  0.00  0.00    +0.094 C 
ATOM      8  H   UNL     1      -1.912   0.873   1.973  0.00  0.00    -0.084 HD
ATOM      9  H   UNL     1      -2.924  -0.417   1.825  0.00  0.00    -0.084 HD
ENDROOT
BRANCH   7  10
ATOM     10  C   UNL     1       2.233   0.072   1.086  0.00  0.00    +0.026 A 
ATOM     11  C   UNL     1       2.799   0.681   2.190  0.00  0.00    +0.010 A 
ATOM     12  C   UNL     1       4.072   1.216   2.108  0.00  0.00    +0.001 A 
ATOM     13  C   UNL     1       4.781   1.143   0.924  0.00  0.00    +0.004 A 
ATOM     14  C   UNL     1       4.220   0.535  -0.182  0.00  0.00    +0.046 A 
ATOM     15  C   UNL     1       2.945  -0.008  -0.102  0.00  0.00    +0.126 A 
BRANCH  15  16
ATOM     16  O   UNL     1       2.393  -0.612  -1.187  0.00  0.00    -0.495 OA
ATOM     17  C   UNL     1       3.183  -0.657  -2.376  0.00  0.00    +0.277 C 
ENDBRANCH  15  16
ENDBRANCH   7  10
BRANCH   5  18
ATOM     18  C   UNL     1      -1.651  -0.723   4.070  0.00  0.00    -0.016 A 
ATOM     19  C   UNL     1      -2.482   0.335   4.385  0.00  0.00    +0.051 A 
ATOM     20  C   UNL     1      -2.967   0.475   5.676  0.00  0.00    +0.121 A 
ATOM     21  C   UNL     1      -2.618  -0.447   6.652  0.00  0.00    +0.049 A 
ATOM     22  C   UNL     1      -1.787  -1.504   6.337  0.00  0.00    +0.049 A 
ATOM     23  C   UNL     1      -1.306  -1.647   5.044  0.00  0.00    +0.122 A 
BRANCH  23  24
ATOM     24  O   UNL     1      -0.493  -2.692   4.733  0.00  0.00    -0.495 OA
ATOM     25  C   UNL     1      -0.179  -3.606   5.786  0.00  0.00    +0.277 C 
ENDBRANCH  23  24
BRANCH  20  26
ATOM     26  O   UNL     1      -3.785   1.517   5.986  0.00  0.00    -0.495 OA
ATOM     27  C   UNL     1      -4.247   1.599   7.336  0.00  0.00    +0.277 C 
ENDBRANCH  20  26
ENDBRANCH   5  18
BRANCH   3  28
ATOM     28  C   UNL     1      -2.425   0.418  -0.584  0.00  0.00    -0.016 A 
ATOM     29  C   UNL     1      -3.143   1.513  -0.145  0.00  0.00    +0.051 A 
ATOM     30  C   UNL     1      -3.987   2.184  -1.016  0.00  0.00    +0.121 A 
ATOM     31  C   UNL     1      -4.111   1.755  -2.330  0.00  0.00    +0.049 A 
ATOM     32  C   UNL     1      -3.394   0.660  -2.769  0.00  0.00    +0.049 A 
ATOM     33  C   UNL     1      -2.545  -0.008  -1.899  0.00  0.00    +0.122 A 
BRANCH  33  34
ATOM     34  O   UNL     1      -1.834  -1.083  -2.333  0.00  0.00    -0.495 OA
ATOM     35  C   UNL     1      -2.006  -1.466  -3.699  0.00  0.00    +0.277 C 
ENDBRANCH  33  34
BRANCH  30  36
ATOM     36  O   UNL     1      -4.695   3.262  -0.584  0.00  0.00    -0.495 OA
ATOM     37  C   UNL     1      -5.545   3.904  -1.536  0.00  0.00    +0.277 C 
ENDBRANCH  30  36
ENDBRANCH   3  28
BRANCH   7  38
ATOM     38  O   UNL     1       0.885  -1.896   0.829  0.00  0.00    -0.384 OA
ATOM     39  H   UNL     1       1.457  -2.428   1.399  0.00  0.00    +0.211 HD
ENDBRANCH   7  38
TORSDOF 9
