REMARK  Name = ZINC64083740
REMARK  7 active torsions:
REMARK  status: ('A' for Active; 'I' for Inactive)
REMARK    1  A    between atoms: C_1  and  C_2
REMARK    2  A    between atoms: C_4  and  C_30
REMARK    3  A    between atoms: C_7  and  C_29
REMARK    4  A    between atoms: C_9  and  C_12
REMARK    5  A    between atoms: C_12  and  C_13
REMARK    6  A    between atoms: C_15  and  C_18
REMARK    7  A    between atoms: C_19  and  C_28
REMARK                            x       y       z     vdW  Elec       q    Type
REMARK                         _______ _______ _______ _____ _____    ______ ____
ROOT
ATOM      1  C   UNL     1       0.528  -0.838   3.363  0.00  0.00    +0.232 A 
ATOM      2  N   UNL     1      -0.619  -0.246   3.539  0.00  0.00    -0.191 NA
ATOM      3  C   UNL     1      -0.427   1.002   4.003  0.00  0.00    +0.204 A 
ATOM      4  N   UNL     1       0.860   1.210   4.124  0.00  0.00    -0.056 NA
ATOM      5  O   UNL     1       1.502   0.012   3.713  0.00  0.00    -0.337 OA
ENDROOT
BRANCH   3   6
ATOM      6  C   UNL     1      -1.497   1.980   4.322  0.00  0.00    +0.047 A 
ATOM      7  C   UNL     1      -1.457   2.710   5.508  0.00  0.00    +0.049 A 
ATOM      8  N   UNL     1      -2.408   3.578   5.790  0.00  0.00    -0.259 NA
ATOM      9  C   UNL     1      -3.422   3.790   4.976  0.00  0.00    +0.113 A 
ATOM     10  C   UNL     1      -3.533   3.103   3.777  0.00  0.00    -0.043 A 
ATOM     11  C   UNL     1      -2.558   2.189   3.436  0.00  0.00    -0.034 A 
ATOM     12  C   UNL     1      -2.611   1.419   2.146  0.00  0.00    +0.017 C 
ATOM     13  C   UNL     1      -4.019   1.507   1.552  0.00  0.00    -0.077 C 
ATOM     14  N   UNL     1      -4.424   2.921   1.510  0.00  0.00    +0.382 N 
ATOM     15  C   UNL     1      -4.709   3.373   2.879  0.00  0.00    -0.045 C 
ATOM     16  C   UNL     1      -0.320   2.506   6.476  0.00  0.00    +0.066 C 
ATOM     17  H   UNL     1      -3.678   3.474   1.115  0.00  0.00    -0.085 HD
ATOM     18  H   UNL     1      -5.253   3.018   0.945  0.00  0.00    -0.085 HD
ENDBRANCH   3   6
BRANCH   1  19
ATOM     19  C   UNL     1       0.726  -2.243   2.857  0.00  0.00    +0.132 C 
BRANCH  19  27
ATOM     20  C   UNL     1       0.404   2.629   0.054  0.00  0.00    +0.044 C 
ATOM     21  C   UNL     1       0.591   1.159  -0.220  0.00  0.00    -0.050 A 
ATOM     22  C   UNL     1       0.746   0.725  -1.544  0.00  0.00    +0.008 A 
ATOM     23  C   UNL     1       0.918  -0.573  -1.871  0.00  0.00    -0.027 A 
ATOM     24  C   UNL     1       0.949  -1.571  -0.859  0.00  0.00    +0.046 A 
ATOM     25  N   UNL     1       1.100  -2.872  -0.920  0.00  0.00    -0.378 N 
ATOM     26  C   UNL     1       1.051  -3.413   0.443  0.00  0.00    +0.104 C 
ATOM     27  C   UNL     1       0.845  -2.224   1.355  0.00  0.00    -0.030 C 
ATOM     28  C   UNL     1       0.788  -1.139   0.548  0.00  0.00    +0.000 A 
ATOM     29  C   UNL     1       0.611   0.293   0.819  0.00  0.00    +0.013 A 
ATOM     30  C   UNL     1      -0.116  -4.393   0.580  0.00  0.00    +0.035 C 
ATOM     31  C   UNL     1       1.078  -0.967  -3.317  0.00  0.00    +0.046 C 
ATOM     32  H   UNL     1       1.222  -3.390  -1.730  0.00  0.00    +0.160 HD
ENDBRANCH  19  27
ENDBRANCH   1  19
TORSDOF 3
