REMARK  Name = ZINC00838674
REMARK  14 active torsions:
REMARK  status: ('A' for Active; 'I' for Inactive)
REMARK    1  A    between atoms: C_1  and  C_2
REMARK    2  A    between atoms: C_2  and  C_3
REMARK    3  A    between atoms: C_3  and  C_5
REMARK    4  A    between atoms: C_3  and  O_6
REMARK    5  A    between atoms: O_6  and  C_7
REMARK    6  A    between atoms: C_7  and  C_9
REMARK    7  A    between atoms: C_10  and  C_42
REMARK    8  A    between atoms: C_14  and  C_16
REMARK    9  A    between atoms: C_18  and  N_23
REMARK   10  A    between atoms: C_29  and  C_32
REMARK   11  A    between atoms: C_35  and  O_40
REMARK   12  A    between atoms: C_36  and  O_38
REMARK   13  A    between atoms: O_38  and  C_39
REMARK   14  A    between atoms: O_40  and  C_41
REMARK                            x       y       z     vdW  Elec       q    Type
REMARK                         _______ _______ _______ _____ _____    ______ ____
ROOT
ATOM      1  C   UNL     1       4.185   0.286   2.387  0.00  0.00    +0.065 C 
ATOM      2  C   UNL     1       4.700   0.794   3.519  0.00  0.00    +0.016 C 
ATOM      3  N   UNL     1       5.935   1.381   3.516  0.00  0.00    -0.321 N 
ATOM      4  C   UNL     1       6.825   1.125   2.508  0.00  0.00    +0.016 C 
ATOM      5  C   UNL     1       6.399   0.632   1.326  0.00  0.00    +0.024 C 
ATOM      6  C   UNL     1       4.939   0.348   1.091  0.00  0.00    +0.094 C 
ATOM      7  C   UNL     1       7.303   0.369   0.282  0.00  0.00    +0.162 C 
ATOM      8  O   UNL     1       6.889  -0.090  -0.764  0.00  0.00    -0.292 OA
ATOM      9  C   UNL     1       8.774   0.645   0.436  0.00  0.00    +0.088 C 
ATOM     10  C   UNL     1       8.964   1.791   1.435  0.00  0.00    +0.032 C 
ATOM     11  C   UNL     1       8.288   1.404   2.752  0.00  0.00    +0.059 C 
ATOM     12  C   UNL     1       3.912   0.716   4.801  0.00  0.00    +0.061 C 
ATOM     13  H   UNL     1       6.182   1.984   4.234  0.00  0.00    +0.152 HD
ENDROOT
BRANCH   6  14
ATOM     14  C   UNL     1       4.359   1.443   0.233  0.00  0.00    -0.015 A 
ATOM     15  C   UNL     1       4.362   2.750   0.684  0.00  0.00    +0.038 A 
ATOM     16  C   UNL     1       3.830   3.754  -0.102  0.00  0.00    +0.127 A 
ATOM     17  C   UNL     1       3.294   3.452  -1.341  0.00  0.00    +0.034 A 
ATOM     18  C   UNL     1       3.291   2.146  -1.793  0.00  0.00    +0.022 A 
ATOM     19  C   UNL     1       3.829   1.141  -1.008  0.00  0.00    +0.045 A 
ATOM     20 CL   UNL     1       3.832  -0.498  -1.579  0.00  0.00    -0.083 Cl
BRANCH  16  21
ATOM     21  N   UNL     1       3.833   5.153   0.381  0.00  0.00    +0.056 N 
ATOM     22  O   UNL     1       4.301   5.417   1.464  0.00  0.00    -0.126 OA
ATOM     23  O   UNL     1       3.368   6.031  -0.307  0.00  0.00    -0.126 OA
ENDBRANCH  16  21
ENDBRANCH   6  14
BRANCH  10  24
ATOM     24  C   UNL     1      10.435   2.024   1.665  0.00  0.00    -0.040 A 
ATOM     25  C   UNL     1      11.224   1.006   2.166  0.00  0.00    +0.008 A 
ATOM     26  C   UNL     1      12.574   1.214   2.379  0.00  0.00    +0.049 A 
ATOM     27  C   UNL     1      13.139   2.446   2.089  0.00  0.00    +0.161 A 
ATOM     28  C   UNL     1      12.345   3.471   1.584  0.00  0.00    +0.162 A 
ATOM     29  C   UNL     1      10.993   3.254   1.369  0.00  0.00    +0.053 A 
BRANCH  28  30
ATOM     30  O   UNL     1      12.894   4.681   1.298  0.00  0.00    -0.491 OA
ATOM     31  C   UNL     1      12.018   5.686   0.783  0.00  0.00    +0.277 C 
ENDBRANCH  28  30
BRANCH  27  32
ATOM     32  O   UNL     1      14.467   2.653   2.298  0.00  0.00    -0.491 OA
ATOM     33  C   UNL     1      15.220   1.556   2.819  0.00  0.00    +0.277 C 
ENDBRANCH  27  32
ENDBRANCH  10  24
BRANCH   1  34
ATOM     34  C   UNL     1       2.909  -0.324   2.418  0.00  0.00    +0.338 C 
ATOM     35  O   UNL     1       2.342  -0.496   3.481  0.00  0.00    -0.245 OA
BRANCH  34  36
ATOM     36  O   UNL     1       2.320  -0.717   1.269  0.00  0.00    -0.458 OA
BRANCH  36  37
ATOM     37  C   UNL     1       1.032  -1.326   1.375  0.00  0.00    +0.173 C 
ATOM     38  C   UNL     1       1.195  -2.839   1.535  0.00  0.00    +0.052 C 
BRANCH  37  40
ATOM     39  C   UNL     1      -0.046   0.471   0.015  0.00  0.00    +0.007 C 
ATOM     40  C   UNL     1       0.223  -1.032   0.110  0.00  0.00    +0.041 C 
ENDBRANCH  37  40
ENDBRANCH  36  37
ENDBRANCH  34  36
ENDBRANCH   1  34
TORSDOF 9
