REMARK  Name = ZINC39666388
REMARK  8 active torsions:
REMARK  status: ('A' for Active; 'I' for Inactive)
REMARK    1  A    between atoms: C_1  and  C_2
REMARK    2  A    between atoms: C_2  and  C_4
REMARK    3  A    between atoms: C_2  and  O_31
REMARK    4  A    between atoms: C_4  and  N_5
REMARK    5  A    between atoms: C_6  and  C_8
REMARK    6  A    between atoms: C_19  and  C_21
REMARK    7  A    between atoms: C_24  and  C_27
REMARK    8  A    between atoms: O_31  and  C_32
REMARK                            x       y       z     vdW  Elec       q    Type
REMARK                         _______ _______ _______ _____ _____    ______ ____
ROOT
ATOM      1  C   UNL     1       4.430  -6.264   2.132  0.00  0.00    +0.100 C 
ATOM      2  C   UNL     1       5.447  -5.618   1.164  0.00  0.00    +0.121 C 
ATOM      3  N   UNL     1       5.892  -4.386   1.857  0.00  0.00    -0.296 N 
ATOM      4  C   UNL     1       6.008  -4.785   3.280  0.00  0.00    +0.115 C 
ATOM      5  C   UNL     1       4.805  -5.718   3.521  0.00  0.00    -0.004 C 
ATOM      6  C   UNL     1       5.200  -6.861   4.450  0.00  0.00    -0.010 C 
ATOM      7  C   UNL     1       5.512  -6.299   5.840  0.00  0.00    -0.082 C 
ATOM      8  N   UNL     1       4.331  -5.603   6.364  0.00  0.00    +0.379 N 
ATOM      9  C   UNL     1       4.013  -4.448   5.515  0.00  0.00    -0.082 C 
ATOM     10  C   UNL     1       3.638  -4.931   4.111  0.00  0.00    -0.010 C 
ATOM     11  C   UNL     1       6.138  -3.176   1.315  0.00  0.00    +0.247 C 
ATOM     12  O   UNL     1       6.532  -2.265   2.017  0.00  0.00    -0.270 OA
ATOM     13  H   UNL     1       3.546  -6.236   6.375  0.00  0.00    -0.086 HD
ATOM     14  H   UNL     1       4.518  -5.286   7.303  0.00  0.00    -0.086 HD
ENDROOT
BRANCH  11  15
ATOM     15  C   UNL     1       5.927  -2.958  -0.132  0.00  0.00    +0.037 A 
ATOM     16  C   UNL     1       4.633  -2.933  -0.655  0.00  0.00    +0.013 A 
ATOM     17  C   UNL     1       4.443  -2.728  -2.007  0.00  0.00    +0.013 A 
ATOM     18  C   UNL     1       5.532  -2.548  -2.842  0.00  0.00    +0.055 A 
ATOM     19  C   UNL     1       6.817  -2.572  -2.329  0.00  0.00    +0.013 A 
ATOM     20  C   UNL     1       7.020  -2.770  -0.979  0.00  0.00    +0.013 A 
BRANCH  18  21
ATOM     21  C   UNL     1       5.317  -2.325  -4.317  0.00  0.00    +0.417 C 
ATOM     22  F   UNL     1       5.192  -0.955  -4.568  0.00  0.00    -0.166 F 
ATOM     23  F   UNL     1       6.409  -2.833  -5.029  0.00  0.00    -0.166 F 
ATOM     24  F   UNL     1       4.150  -2.982  -4.722  0.00  0.00    -0.166 F 
ENDBRANCH  18  21
ENDBRANCH  11  15
BRANCH   1  26
ATOM     25  N   UNL     1       2.018  -6.743   1.873  0.00  0.00    -0.312 N 
ATOM     26  C   UNL     1       3.026  -5.855   1.769  0.00  0.00    +0.218 C 
ATOM     27  O   UNL     1       2.804  -4.727   1.383  0.00  0.00    -0.275 OA
ATOM     28  H   UNL     1       2.207  -7.668   2.097  0.00  0.00    +0.149 HD
BRANCH  25  29
ATOM     29  C   UNL     1       0.636  -6.311   1.649  0.00  0.00    +0.148 C 
BRANCH  29  31
ATOM     30  C   UNL     1      -1.761  -6.977   1.887  0.00  0.00    +0.053 C 
ATOM     31  C   UNL     1      -0.315  -7.476   1.933  0.00  0.00    +0.187 C 
BRANCH  31  32
ATOM     32  O   UNL     1      -0.131  -8.493   0.947  0.00  0.00    -0.486 OA
BRANCH  32  33
ATOM     33  C   UNL     1      -0.482  -9.759   1.293  0.00  0.00    +0.139 A 
ATOM     34  C   UNL     1      -1.270  -9.980   2.413  0.00  0.00    +0.047 A 
ATOM     35  C   UNL     1      -1.627 -11.268   2.763  0.00  0.00    +0.004 A 
ATOM     36  C   UNL     1      -1.200 -12.338   1.997  0.00  0.00    +0.002 A 
ATOM     37  C   UNL     1      -0.414 -12.121   0.880  0.00  0.00    +0.023 A 
ATOM     38  C   UNL     1      -0.059 -10.834   0.522  0.00  0.00    +0.083 A 
ATOM     39 CL   UNL     1       0.920 -10.562  -0.885  0.00  0.00    -0.080 Cl
ENDBRANCH  32  33
ENDBRANCH  31  32
ENDBRANCH  29  31
ENDBRANCH  25  29
ENDBRANCH   1  26
TORSDOF 7
