REMARK  Name = ZINC12401676
REMARK  7 active torsions:
REMARK  status: ('A' for Active; 'I' for Inactive)
REMARK    1  A    between atoms: C_1  and  C_2
REMARK    2  A    between atoms: C_2  and  C_3
REMARK    3  A    between atoms: C_2  and  S_4
REMARK    4  A    between atoms: S_4  and  C_5
REMARK    5  A    between atoms: N_25  and  C_28
REMARK    6  A    between atoms: C_29  and  C_32
REMARK    7  A    between atoms: C_30  and  N_31
REMARK                            x       y       z     vdW  Elec       q    Type
REMARK                         _______ _______ _______ _____ _____    ______ ____
ROOT
ATOM      1  C   UNL     1       2.009   1.704  -0.322  0.00  0.00    +0.160 A 
ATOM      2  N   UNL     1       1.609   1.330   0.885  0.00  0.00    -0.133 NA
ATOM      3  N   UNL     1       0.660   0.516   1.051  0.00  0.00    -0.124 NA
ATOM      4  C   UNL     1       0.006  -0.015   0.032  0.00  0.00    +0.194 A 
ATOM      5  S   UNL     1       0.871   0.759  -1.331  0.00  0.00    -0.024 S 
ATOM      6  N   UNL     1      -1.054  -0.920   0.021  0.00  0.00    -0.237 N 
ATOM      7  C   UNL     1      -0.800  -2.261  -0.098  0.00  0.00    +0.027 C 
ATOM      8  C   UNL     1      -1.768  -3.114  -0.491  0.00  0.00    +0.037 C 
ATOM      9  C   UNL     1      -1.523  -4.494  -0.592  0.00  0.00    +0.162 C 
ATOM     10  O   UNL     1      -2.416  -5.233  -0.958  0.00  0.00    -0.292 OA
ATOM     11  C   UNL     1      -0.177  -5.074  -0.255  0.00  0.00    +0.080 C 
ATOM     12  C   UNL     1       0.504  -4.183   0.789  0.00  0.00    +0.014 C 
ATOM     13  C   UNL     1       0.587  -2.760   0.233  0.00  0.00    +0.052 C 
ATOM     14  C   UNL     1      -3.144  -2.606  -0.838  0.00  0.00    +0.141 C 
ATOM     15  C   UNL     1      -3.345  -2.614  -2.323  0.00  0.00    -0.001 A 
ATOM     16  C   UNL     1      -2.696  -1.939  -3.333  0.00  0.00    +0.007 A 
ATOM     17  C   UNL     1      -3.136  -2.173  -4.632  0.00  0.00    +0.000 A 
ATOM     18  C   UNL     1      -4.175  -3.044  -4.892  0.00  0.00    +0.002 A 
ATOM     19  C   UNL     1      -4.832  -3.727  -3.880  0.00  0.00    +0.024 A 
ATOM     20  C   UNL     1      -4.400  -3.500  -2.572  0.00  0.00    +0.041 A 
ATOM     21  N   UNL     1      -4.866  -4.039  -1.387  0.00  0.00    -0.273 N 
ATOM     22  C   UNL     1      -4.189  -3.573  -0.317  0.00  0.00    +0.240 C 
ATOM     23  O   UNL     1      -4.380  -3.871   0.843  0.00  0.00    -0.274 OA
ATOM     24  C   UNL     1      -5.967  -5.001  -1.302  0.00  0.00    +0.138 C 
ATOM     25  C   UNL     1      -3.385  -1.238  -0.274  0.00  0.00    +0.089 C 
ATOM     26  C   UNL     1      -2.347  -0.457   0.126  0.00  0.00    +0.109 C 
ENDROOT
BRANCH  26  27
ATOM     27  N   UNL     1      -2.588   0.797   0.635  0.00  0.00    -0.345 N 
ATOM     28  H   UNL     1      -1.846   1.387   0.842  0.00  0.00    +0.144 HD
ATOM     29  H   UNL     1      -3.499   1.092   0.786  0.00  0.00    +0.144 HD
ENDBRANCH  26  27
BRANCH  25  30
ATOM     30  C   UNL     1      -4.725  -0.748  -0.156  0.00  0.00    +0.100 C 
ATOM     31  N   UNL     1      -5.788  -0.359  -0.062  0.00  0.00    -0.191 NA
ENDBRANCH  25  30
BRANCH   1  32
ATOM     32  S   UNL     1       3.293   2.811  -0.798  0.00  0.00    -0.094 S 
BRANCH  32  34
ATOM     33  C   UNL     1       4.643   2.185   1.497  0.00  0.00    +0.019 C 
ATOM     34  C   UNL     1       3.997   3.371   0.778  0.00  0.00    +0.047 C 
ATOM     35  C   UNL     1       5.054   4.444   0.512  0.00  0.00    +0.019 C 
ENDBRANCH  32  34
ENDBRANCH   1  32
TORSDOF 4
