REMARK  Name = ZINC36214118
REMARK  12 active torsions:
REMARK  status: ('A' for Active; 'I' for Inactive)
REMARK    1  A    between atoms: C_1  and  C_2
REMARK    2  A    between atoms: C_11  and  N_29
REMARK    3  A    between atoms: C_13  and  S_15
REMARK    4  A    between atoms: S_15  and  C_16
REMARK    5  A    between atoms: C_16  and  C_18
REMARK    6  A    between atoms: C_16  and  C_19
REMARK    7  A    between atoms: N_21  and  C_22
REMARK    8  A    between atoms: C_22  and  C_23
REMARK    9  A    between atoms: C_22  and  C_24
REMARK   10  A    between atoms: C_22  and  C_26
REMARK   11  A    between atoms: C_26  and  C_27
REMARK   12  A    between atoms: C_26  and  C_28
REMARK                            x       y       z     vdW  Elec       q    Type
REMARK                         _______ _______ _______ _____ _____    ______ ____
ROOT
ATOM      1  C   UNL     1      -1.968   0.756   0.315  0.00  0.00    +0.008 C 
ATOM      2  C   UNL     1      -1.497  -0.696   0.209  0.00  0.00    -0.009 C 
ATOM      3  C   UNL     1      -0.576  -0.850  -1.005  0.00  0.00    +0.008 C 
ATOM      4  C   UNL     1      -0.302  -2.332  -1.262  0.00  0.00    +0.037 C 
ATOM      5  C   UNL     1       0.203  -2.973   0.028  0.00  0.00    -0.025 A 
ATOM      6  C   UNL     1      -0.006  -2.373   1.221  0.00  0.00    -0.004 A 
ATOM      7  S   UNL     1       0.733  -3.450   2.423  0.00  0.00    -0.073 S 
ATOM      8  C   UNL     1       1.322  -4.702   1.329  0.00  0.00    +0.115 A 
ATOM      9  C   UNL     1       0.920  -4.238   0.051  0.00  0.00    +0.051 A 
ATOM     10  C   UNL     1       1.260  -5.053  -1.068  0.00  0.00    +0.129 A 
ATOM     11  N   UNL     1       1.924  -6.173  -0.793  0.00  0.00    -0.207 NA
ATOM     12  C   UNL     1       2.268  -6.546   0.430  0.00  0.00    +0.192 A 
ATOM     13  N   UNL     1       1.980  -5.828   1.519  0.00  0.00    -0.214 NA
ATOM     14  C   UNL     1      -0.716  -1.077   1.474  0.00  0.00    +0.046 C 
ENDROOT
BRANCH  10  15
ATOM     15  N   UNL     1       0.919  -4.701  -2.361  0.00  0.00    -0.343 N 
ATOM     16  H   UNL     1       1.360  -5.128  -3.112  0.00  0.00    +0.144 HD
ATOM     17  H   UNL     1       0.239  -4.027  -2.518  0.00  0.00    +0.144 HD
ENDBRANCH  10  15
BRANCH  12  18
ATOM     18  S   UNL     1       3.146  -8.060   0.631  0.00  0.00    -0.073 S 
BRANCH  18  19
ATOM     19  C   UNL     1       3.321  -8.694  -1.060  0.00  0.00    +0.137 C 
ATOM     20  C   UNL     1       1.938  -9.026  -1.625  0.00  0.00    +0.029 C 
BRANCH  19  21
ATOM     21  C   UNL     1       4.169  -9.939  -1.045  0.00  0.00    +0.227 C 
ATOM     22  O   UNL     1       4.239 -10.613  -0.039  0.00  0.00    -0.275 OA
ATOM     23  N   UNL     1       4.851 -10.304  -2.149  0.00  0.00    -0.296 N 
ATOM     24  H   UNL     1       4.795  -9.765  -2.953  0.00  0.00    +0.150 HD
BRANCH  23  25
ATOM     25  C   UNL     1       5.676 -11.514  -2.134  0.00  0.00    +0.121 C 
ATOM     26  C   UNL     1       6.757 -11.381  -1.060  0.00  0.00    +0.048 C 
BRANCH  25  27
ATOM     27  C   UNL     1       6.336 -11.698  -3.502  0.00  0.00    +0.020 C 
ATOM     28  C   UNL     1       7.311 -10.547  -3.757  0.00  0.00    +0.010 C 
ATOM     29  C   UNL     1       7.097 -13.025  -3.527  0.00  0.00    +0.010 C 
ENDBRANCH  25  27
BRANCH  25  30
ATOM     30  C   UNL     1       4.830 -12.681  -1.837  0.00  0.00    +0.088 C 
ATOM     31  N   UNL     1       4.176 -13.582  -1.608  0.00  0.00    -0.194 NA
ENDBRANCH  25  30
ENDBRANCH  23  25
ENDBRANCH  19  21
ENDBRANCH  18  19
ENDBRANCH  12  18
TORSDOF 7
