REMARK  Name = ZINC66583025
REMARK  4 active torsions:
REMARK  status: ('A' for Active; 'I' for Inactive)
REMARK    1  A    between atoms: C_4  and  N_13
REMARK    2  A    between atoms: C_6  and  N_7
REMARK    3  A    between atoms: N_13  and  S_14
REMARK    4  A    between atoms: S_14  and  C_17
REMARK                            x       y       z     vdW  Elec       q    Type
REMARK                         _______ _______ _______ _____ _____    ______ ____
ROOT
ATOM      1  C   UNL     1      -0.017   1.384   0.010  0.00  0.00    +0.026 A 
ATOM      2  C   UNL     1       1.170   2.094   0.002  0.00  0.00    +0.042 A 
ATOM      3  C   UNL     1       2.379   1.423  -0.013  0.00  0.00    +0.148 A 
ATOM      4  C   UNL     1       2.403   0.032  -0.021  0.00  0.00    +0.111 A 
ATOM      5  C   UNL     1       1.214  -0.681  -0.013  0.00  0.00    +0.053 A 
ATOM      6  C   UNL     1       0.002  -0.004   0.002  0.00  0.00    +0.042 A 
ATOM      7  F   UNL     1       3.537   2.119  -0.022  0.00  0.00    -0.203 F 
ENDROOT
BRANCH   6   8
ATOM      8  N   UNL     1      -1.201  -0.721   0.010  0.00  0.00    -0.234 N 
ATOM      9  C   UNL     1      -2.559  -0.142   0.021  0.00  0.00    +0.158 C 
ATOM     10  C   UNL     1      -3.437  -1.360  -0.356  0.00  0.00    +0.253 C 
ATOM     11  O   UNL     1      -2.607  -2.465   0.052  0.00  0.00    -0.448 OA
ATOM     12  C   UNL     1      -1.326  -2.062   0.004  0.00  0.00    +0.407 C 
ATOM     13  O   UNL     1      -0.382  -2.825  -0.037  0.00  0.00    -0.226 OA
ENDBRANCH   6   8
BRANCH   4  14
ATOM     14  N   UNL     1       3.626  -0.647  -0.037  0.00  0.00    -0.099 NA
BRANCH  14  15
ATOM     15  S   UNL     1       5.046   0.205  -0.048  0.00  0.00    +0.065 S 
ATOM     16  O   UNL     1       5.034   0.915  -1.278  0.00  0.00    -0.153 OA
ATOM     17  O   UNL     1       5.059   0.902   1.191  0.00  0.00    -0.153 OA
BRANCH  15  18
ATOM     18  C   UNL     1       6.348  -1.058  -0.068  0.00  0.00    +0.153 C 
ATOM     19  C   UNL     1       6.149  -2.013   1.111  0.00  0.00    +0.028 C 
ATOM     20  C   UNL     1       7.247  -3.079   1.094  0.00  0.00    +0.002 C 
ATOM     21  C   UNL     1       8.615  -2.403   1.209  0.00  0.00    +0.000 C 
ATOM     22  C   UNL     1       8.813  -1.448   0.030  0.00  0.00    +0.002 C 
ATOM     23  C   UNL     1       7.715  -0.383   0.047  0.00  0.00    +0.028 C 
ENDBRANCH  15  18
ENDBRANCH  14  15
ENDBRANCH   4  14
TORSDOF 4
