REMARK  Name = ZINC07250105
REMARK  12 active torsions:
REMARK  status: ('A' for Active; 'I' for Inactive)
REMARK    1  A    between atoms: C_1  and  C_2
REMARK    2  A    between atoms: C_14  and  C_15
REMARK    3  A    between atoms: C_15  and  O_17
REMARK    4  A    between atoms: O_17  and  C_18
REMARK    5  A    between atoms: C_18  and  C_20
REMARK    6  A    between atoms: C_18  and  C_21
REMARK    7  A    between atoms: N_23  and  C_24
REMARK    8  A    between atoms: C_24  and  C_25
REMARK    9  A    between atoms: C_24  and  C_26
REMARK   10  A    between atoms: C_24  and  C_28
REMARK   11  A    between atoms: C_28  and  C_29
REMARK   12  A    between atoms: C_28  and  C_30
REMARK                            x       y       z     vdW  Elec       q    Type
REMARK                         _______ _______ _______ _____ _____    ______ ____
ROOT
ATOM      1  C   UNL     1       1.128   8.691   0.037  0.00  0.00    +0.376 C 
ATOM      2  O   UNL     1       0.528   9.749   0.048  0.00  0.00    -0.241 OA
ENDROOT
BRANCH   1  16
ATOM      3  C   UNL     1      -1.969   8.437   0.067  0.00  0.00    +0.048 C 
ATOM      4  C   UNL     1      -0.970   7.309   0.051  0.00  0.00    +0.010 A 
ATOM      5  C   UNL     1      -1.263   5.922   0.046  0.00  0.00    +0.025 A 
ATOM      6  C   UNL     1      -2.468   5.190   0.053  0.00  0.00    +0.012 A 
ATOM      7  C   UNL     1      -2.456   3.837   0.046  0.00  0.00    +0.009 A 
ATOM      8  C   UNL     1      -1.232   3.135   0.030  0.00  0.00    -0.014 A 
ATOM      9  C   UNL     1      -1.207   1.731   0.017  0.00  0.00    +0.008 A 
ATOM     10  C   UNL     1      -0.013   1.076   0.008  0.00  0.00    +0.001 A 
ATOM     11  C   UNL     1       1.189   1.778   0.000  0.00  0.00    +0.001 A 
ATOM     12  C   UNL     1       1.202   3.141   0.006  0.00  0.00    +0.012 A 
ATOM     13  C   UNL     1      -0.009   3.848   0.021  0.00  0.00    +0.025 A 
ATOM     14  C   UNL     1      -0.031   5.260   0.029  0.00  0.00    +0.144 A 
ATOM     15  O   UNL     1       0.937   6.194   0.025  0.00  0.00    -0.447 OA
ATOM     16  C   UNL     1       0.385   7.426   0.038  0.00  0.00    +0.216 A 
ENDBRANCH   1  16
BRANCH   1  17
ATOM     17  O   UNL     1       2.477   8.681   0.024  0.00  0.00    -0.447 OA
BRANCH  17  18
ATOM     18  C   UNL     1       3.146   9.969   0.024  0.00  0.00    +0.259 C 
ATOM     19  C   UNL     1       3.367  10.429  -1.419  0.00  0.00    +0.062 C 
BRANCH  18  20
ATOM     20  C   UNL     1       4.476   9.844   0.721  0.00  0.00    +0.255 C 
ATOM     21  O   UNL     1       4.867   8.758   1.092  0.00  0.00    -0.272 OA
ATOM     22  N   UNL     1       5.232  10.940   0.931  0.00  0.00    -0.294 N 
ATOM     23  H   UNL     1       4.920  11.809   0.633  0.00  0.00    +0.150 HD
BRANCH  22  24
ATOM     24  C   UNL     1       6.526  10.819   1.608  0.00  0.00    +0.121 C 
ATOM     25  C   UNL     1       6.315  10.240   3.009  0.00  0.00    +0.048 C 
BRANCH  24  26
ATOM     26  C   UNL     1       7.175  12.199   1.719  0.00  0.00    +0.020 C 
ATOM     27  C   UNL     1       6.325  13.092   2.626  0.00  0.00    +0.010 C 
ATOM     28  C   UNL     1       8.578  12.057   2.312  0.00  0.00    +0.010 C 
ENDBRANCH  24  26
BRANCH  24  29
ATOM     29  C   UNL     1       7.403   9.924   0.835  0.00  0.00    +0.088 C 
ATOM     30  N   UNL     1       8.079   9.234   0.238  0.00  0.00    -0.194 NA
ENDBRANCH  24  29
ENDBRANCH  22  24
ENDBRANCH  18  20
ENDBRANCH  17  18
ENDBRANCH   1  17
TORSDOF 7
