REMARK  Name = ZINC03327794
REMARK  7 active torsions:
REMARK  status: ('A' for Active; 'I' for Inactive)
REMARK    1  A    between atoms: C_4  and  N_7
REMARK    2  A    between atoms: C_8  and  C_10
REMARK    3  A    between atoms: C_10  and  C_11
REMARK    4  A    between atoms: N_22  and  C_23
REMARK    5  A    between atoms: C_23  and  C_24
REMARK    6  A    between atoms: N_26  and  C_27
REMARK    7  A    between atoms: C_28  and  C_36
REMARK                            x       y       z     vdW  Elec       q    Type
REMARK                         _______ _______ _______ _____ _____    ______ ____
ROOT
ATOM      1  C   UNL     1       4.709  -4.195   0.132  0.00  0.00    +0.169 C 
ATOM      2  C   UNL     1       6.022  -4.914  -0.043  0.00  0.00    +0.238 C 
ATOM      3  O   UNL     1       6.448  -5.120  -1.160  0.00  0.00    -0.273 OA
ATOM      4  N   UNL     1       6.728  -5.331   1.025  0.00  0.00    -0.282 N 
ATOM      5  C   UNL     1       6.234  -5.150   2.323  0.00  0.00    +0.055 A 
ATOM      6  C   UNL     1       7.061  -5.302   3.423  0.00  0.00    +0.025 A 
ATOM      7  C   UNL     1       6.552  -5.124   4.697  0.00  0.00    +0.002 A 
ATOM      8  C   UNL     1       5.222  -4.794   4.878  0.00  0.00    +0.002 A 
ATOM      9  C   UNL     1       4.388  -4.638   3.784  0.00  0.00    +0.025 A 
ATOM     10  C   UNL     1       4.892  -4.812   2.508  0.00  0.00    +0.052 A 
ATOM     11  N   UNL     1       4.074  -4.649   1.379  0.00  0.00    -0.308 N 
ATOM     12  H   UNL     1       7.587  -5.761   0.894  0.00  0.00    +0.155 HD
ENDROOT
BRANCH   1  13
ATOM     13  C   UNL     1       4.958  -2.687   0.205  0.00  0.00    +0.128 C 
BRANCH  13  15
ATOM     14  N   UNL     1       3.611  -0.612   0.205  0.00  0.00    -0.285 N 
ATOM     15  C   UNL     1       3.638  -1.960   0.217  0.00  0.00    +0.219 C 
ATOM     16  O   UNL     1       2.600  -2.587   0.236  0.00  0.00    -0.275 OA
ATOM     17  H   UNL     1       4.437  -0.111   0.121  0.00  0.00    +0.155 HD
BRANCH  14  21
ATOM     18  C   UNL     1      -0.023   1.401   0.525  0.00  0.00    +0.000 A 
ATOM     19  C   UNL     1       1.114   1.932   1.107  0.00  0.00    +0.002 A 
ATOM     20  C   UNL     1       2.320   1.267   1.002  0.00  0.00    +0.023 A 
ATOM     21  C   UNL     1       2.390   0.063   0.313  0.00  0.00    +0.033 A 
ATOM     22  C   UNL     1       1.247  -0.468  -0.270  0.00  0.00    +0.023 A 
ATOM     23  C   UNL     1       0.044   0.203  -0.162  0.00  0.00    +0.002 A 
ENDBRANCH  14  21
ENDBRANCH  13  15
ENDBRANCH   1  13
BRANCH  11  24
ATOM     24  C   UNL     1       2.636  -4.923   1.437  0.00  0.00    +0.202 C 
BRANCH  24  25
ATOM     25  C   UNL     1       2.398  -6.399   1.251  0.00  0.00    +0.235 C 
ATOM     26  O   UNL     1       3.337  -7.149   1.086  0.00  0.00    -0.274 OA
ATOM     27  N   UNL     1       1.142  -6.887   1.269  0.00  0.00    -0.278 N 
ATOM     28  H   UNL     1       0.391  -6.287   1.401  0.00  0.00    +0.155 HD
BRANCH  27  29
ATOM     29  C   UNL     1       0.922  -8.246   1.097  0.00  0.00    +0.090 A 
ATOM     30  C   UNL     1      -0.289  -8.918   1.081  0.00  0.00    +0.084 A 
ATOM     31  C   UNL     1      -0.249 -10.356   0.882  0.00  0.00    -0.018 A 
ATOM     32  C   UNL     1       0.996 -10.859   0.737  0.00  0.00    -0.004 A 
ATOM     33  S   UNL     1       2.064  -9.454   0.855  0.00  0.00    -0.077 S 
ATOM     34  C   UNL     1       1.367 -12.293   0.520  0.00  0.00    +0.043 C 
ATOM     35  C   UNL     1       0.149 -13.164   0.863  0.00  0.00    +0.005 C 
ATOM     36  C   UNL     1      -1.088 -12.579   0.173  0.00  0.00    +0.005 C 
ATOM     37  C   UNL     1      -1.476 -11.255   0.835  0.00  0.00    +0.037 C 
BRANCH  30  38
ATOM     38  C   UNL     1      -1.529  -8.223   1.254  0.00  0.00    +0.102 C 
ATOM     39  N   UNL     1      -2.513  -7.672   1.390  0.00  0.00    -0.191 NA
ENDBRANCH  30  38
ENDBRANCH  27  29
ENDBRANCH  24  25
ENDBRANCH  11  24
TORSDOF 7
