REMARK  Name = ZINC19566330
REMARK  9 active torsions:
REMARK  status: ('A' for Active; 'I' for Inactive)
REMARK    1  A    between atoms: C_1  and  C_2
REMARK    2  A    between atoms: C_10  and  C_11
REMARK    3  A    between atoms: C_11  and  N_12
REMARK    4  A    between atoms: C_22  and  C_23
REMARK    5  A    between atoms: C_22  and  O_33
REMARK    6  A    between atoms: C_26  and  O_31
REMARK    7  A    between atoms: C_28  and  O_29
REMARK    8  A    between atoms: O_29  and  C_30
REMARK    9  A    between atoms: O_31  and  C_32
REMARK                            x       y       z     vdW  Elec       q    Type
REMARK                         _______ _______ _______ _____ _____    ______ ____
ROOT
ATOM      1  N   UNL     1      -0.882   1.541   1.323  0.00  0.00    +0.385 N 
ATOM      2  C   UNL     1      -2.187   0.869   1.281  0.00  0.00    -0.072 C 
ATOM      3  C   UNL     1      -2.981   1.371   0.072  0.00  0.00    +0.009 C 
ATOM      4  C   UNL     1      -3.185   2.883   0.194  0.00  0.00    +0.005 C 
ATOM      5  C   UNL     1      -1.823   3.577   0.267  0.00  0.00    +0.001 C 
ATOM      6  C   UNL     1      -1.022   3.265  -0.999  0.00  0.00    +0.005 C 
ATOM      7  C   UNL     1      -0.824   1.752  -1.117  0.00  0.00    +0.009 C 
ATOM      8  C   UNL     1      -0.089   1.240   0.125  0.00  0.00    -0.072 C 
ATOM      9  C   UNL     1      -2.193   1.071  -1.206  0.00  0.00    +0.100 C 
ATOM     10  H   UNL     1      -1.065   2.626   1.339  0.00  0.00    -0.081 HD
ENDROOT
BRANCH   9  11
ATOM     11  C   UNL     1      -2.944   1.604  -2.399  0.00  0.00    +0.064 A 
ATOM     12  C   UNL     1      -2.322   2.433  -3.314  0.00  0.00    +0.128 A 
ATOM     13  N   UNL     1      -3.010   2.880  -4.354  0.00  0.00    -0.203 NA
ATOM     14  C   UNL     1      -4.281   2.551  -4.520  0.00  0.00    +0.321 A 
ATOM     15  N   UNL     1      -4.913   1.766  -3.664  0.00  0.00    -0.159 NA
ATOM     16  C   UNL     1      -4.284   1.277  -2.602  0.00  0.00    +0.226 A 
BRANCH  16  17
ATOM     17  O   UNL     1      -4.935   0.473  -1.727  0.00  0.00    -0.479 OA
ATOM     18  C   UNL     1      -6.307   0.186  -2.007  0.00  0.00    +0.279 C 
ENDBRANCH  16  17
BRANCH  14  19
ATOM     19  O   UNL     1      -4.952   3.033  -5.594  0.00  0.00    -0.466 OA
ATOM     20  C   UNL     1      -4.225   3.877  -6.489  0.00  0.00    +0.280 C 
ENDBRANCH  14  19
ENDBRANCH   9  11
BRANCH   9  21
ATOM     21  O   UNL     1      -2.017  -0.341  -1.340  0.00  0.00    -0.383 OA
ATOM     22  H   UNL     1      -1.471  -0.748  -2.204  0.00  0.00    +0.211 HD
ENDBRANCH   9  21
BRANCH   1  23
ATOM     23  C   UNL     1      -0.146   1.186   2.544  0.00  0.00    -0.003 C 
BRANCH  23  33
ATOM     24  C   UNL     1      -2.349  -0.312   4.145  0.00  0.00    +0.048 C 
ATOM     25  C   UNL     1      -1.825   1.072   4.428  0.00  0.00    -0.004 A 
ATOM     26  C   UNL     1      -2.248   1.971   5.508  0.00  0.00    +0.023 A 
ATOM     27  C   UNL     1      -3.179   1.882   6.542  0.00  0.00    +0.012 A 
ATOM     28  C   UNL     1      -3.340   2.933   7.402  0.00  0.00    +0.001 A 
ATOM     29  C   UNL     1      -2.583   4.086   7.251  0.00  0.00    +0.004 A 
ATOM     30  C   UNL     1      -1.658   4.192   6.235  0.00  0.00    +0.047 A 
ATOM     31  C   UNL     1      -1.478   3.136   5.351  0.00  0.00    +0.135 A 
ATOM     32  O   UNL     1      -0.674   2.943   4.286  0.00  0.00    -0.461 OA
ATOM     33  C   UNL     1      -0.876   1.728   3.746  0.00  0.00    +0.093 A 
ENDBRANCH  23  33
ENDBRANCH   1  23
TORSDOF 6
