REMARK  Name = ZINC16309981
REMARK  11 active torsions:
REMARK  status: ('A' for Active; 'I' for Inactive)
REMARK    1  A    between atoms: C_1  and  C_2
REMARK    2  A    between atoms: C_5  and  S_8
REMARK    3  A    between atoms: S_8  and  N_11
REMARK    4  A    between atoms: N_11  and  C_12
REMARK    5  A    between atoms: N_11  and  C_31
REMARK    6  A    between atoms: C_12  and  C_13
REMARK    7  A    between atoms: C_13  and  N_14
REMARK    8  A    between atoms: N_14  and  C_15
REMARK    9  A    between atoms: N_14  and  S_21
REMARK   10  A    between atoms: S_21  and  C_24
REMARK   11  A    between atoms: C_27  and  C_30
REMARK                            x       y       z     vdW  Elec       q    Type
REMARK                         _______ _______ _______ _____ _____    ______ ____
ROOT
ATOM      1  C   UNL     1      -0.140  -0.867   1.473  0.00  0.00    +0.152 C 
ENDROOT
BRANCH   1   2
ATOM      2  N   UNL     1       0.099  -0.213   0.184  0.00  0.00    -0.201 N 
BRANCH   2   3
ATOM      3  C   UNL     1      -0.008  -0.945  -1.001  0.00  0.00    +0.051 A 
ATOM      4  C   UNL     1      -0.822  -2.069  -1.053  0.00  0.00    +0.025 A 
ATOM      5  C   UNL     1      -0.929  -2.788  -2.228  0.00  0.00    +0.002 A 
ATOM      6  C   UNL     1      -0.219  -2.395  -3.348  0.00  0.00    +0.000 A 
ATOM      7  C   UNL     1       0.596  -1.279  -3.297  0.00  0.00    +0.002 A 
ATOM      8  C   UNL     1       0.703  -0.553  -2.128  0.00  0.00    +0.025 A 
ENDBRANCH   2   3
BRANCH   2   9
ATOM      9  S   UNL     1       0.496   1.394   0.132  0.00  0.00    +0.075 S 
ATOM     10  O   UNL     1       0.158   1.854  -1.170  0.00  0.00    -0.150 OA
ATOM     11  O   UNL     1      -0.037   1.983   1.310  0.00  0.00    -0.150 OA
BRANCH   9  16
ATOM     12  C   UNL     1       6.501   1.764   0.586  0.00  0.00    +0.044 C 
ATOM     13  C   UNL     1       5.001   1.672   0.473  0.00  0.00    -0.050 A 
ATOM     14  C   UNL     1       4.400   1.694  -0.772  0.00  0.00    +0.005 A 
ATOM     15  C   UNL     1       3.024   1.610  -0.876  0.00  0.00    +0.029 A 
ATOM     16  C   UNL     1       2.250   1.502   0.264  0.00  0.00    +0.109 A 
ATOM     17  C   UNL     1       2.851   1.484   1.509  0.00  0.00    +0.029 A 
ATOM     18  C   UNL     1       4.227   1.565   1.613  0.00  0.00    +0.005 A 
ENDBRANCH   9  16
ENDBRANCH   2   9
ENDBRANCH   1   2
BRANCH   1  19
ATOM     19  C   UNL     1      -1.639  -0.861   1.778  0.00  0.00    +0.152 C 
BRANCH  19  20
ATOM     20  N   UNL     1      -1.878  -1.515   3.067  0.00  0.00    -0.201 N 
BRANCH  20  21
ATOM     21  C   UNL     1      -2.006  -2.904   3.132  0.00  0.00    +0.051 A 
ATOM     22  C   UNL     1      -3.019  -3.544   2.428  0.00  0.00    +0.025 A 
ATOM     23  C   UNL     1      -3.140  -4.918   2.491  0.00  0.00    +0.002 A 
ATOM     24  C   UNL     1      -2.260  -5.656   3.262  0.00  0.00    +0.000 A 
ATOM     25  C   UNL     1      -1.254  -5.022   3.968  0.00  0.00    +0.002 A 
ATOM     26  C   UNL     1      -1.125  -3.649   3.905  0.00  0.00    +0.025 A 
ENDBRANCH  20  21
BRANCH  20  27
ATOM     27  S   UNL     1      -1.997  -0.607   4.446  0.00  0.00    +0.075 S 
ATOM     28  O   UNL     1      -1.800  -1.496   5.536  0.00  0.00    -0.150 OA
ATOM     29  O   UNL     1      -1.187   0.544   4.246  0.00  0.00    -0.150 OA
BRANCH  27  30
ATOM     30  C   UNL     1      -3.661  -0.038   4.554  0.00  0.00    +0.109 A 
ATOM     31  C   UNL     1      -4.018   1.169   3.981  0.00  0.00    +0.029 A 
ATOM     32  C   UNL     1      -5.324   1.613   4.062  0.00  0.00    +0.005 A 
ATOM     33  C   UNL     1      -6.272   0.855   4.724  0.00  0.00    -0.050 A 
ATOM     34  C   UNL     1      -5.914  -0.349   5.301  0.00  0.00    +0.005 A 
ATOM     35  C   UNL     1      -4.609  -0.795   5.217  0.00  0.00    +0.029 A 
ATOM     36  C   UNL     1      -7.696   1.341   4.816  0.00  0.00    +0.044 C 
ENDBRANCH  27  30
ENDBRANCH  20  27
ENDBRANCH  19  20
ENDBRANCH   1  19
TORSDOF 9
