REMARK  Name = ZINC38903724
REMARK  13 active torsions:
REMARK  status: ('A' for Active; 'I' for Inactive)
REMARK    1  A    between atoms: C_1  and  C_2
REMARK    2  A    between atoms: C_2  and  C_4
REMARK    3  A    between atoms: C_2  and  C_15
REMARK    4  A    between atoms: C_4  and  C_5
REMARK    5  A    between atoms: C_15  and  N_16
REMARK    6  A    between atoms: C_17  and  C_19
REMARK    7  A    between atoms: N_24  and  C_26
REMARK    8  A    between atoms: C_26  and  C_27
REMARK    9  A    between atoms: C_29  and  C_32
REMARK   10  A    between atoms: C_35  and  C_38
REMARK   11  A    between atoms: C_38  and  C_39
REMARK   12  A    between atoms: C_38  and  C_40
REMARK   13  A    between atoms: C_38  and  C_41
REMARK                            x       y       z     vdW  Elec       q    Type
REMARK                         _______ _______ _______ _____ _____    ______ ____
ROOT
ATOM      1  C   UNL     1      -4.078  -0.112  -2.723  0.00  0.00    +0.058 C 
ATOM      2  C   UNL     1      -3.326  -0.707  -3.916  0.00  0.00    +0.009 C 
ATOM      3  C   UNL     1      -4.080  -0.364  -5.204  0.00  0.00    -0.018 C 
ATOM      4  C   UNL     1      -5.514  -0.887  -5.104  0.00  0.00    -0.078 C 
ATOM      5  N   UNL     1      -6.188  -0.261  -3.960  0.00  0.00    +0.386 N 
ATOM      6  C   UNL     1      -5.513  -0.643  -2.713  0.00  0.00    -0.065 C 
ATOM      7  H   UNL     1      -6.160   0.742  -4.062  0.00  0.00    -0.081 HD
ENDROOT
BRANCH   1   9
ATOM      8  N   UNL     1      -2.105  -0.148  -1.230  0.00  0.00    -0.315 N 
ATOM      9  C   UNL     1      -3.387  -0.508  -1.443  0.00  0.00    +0.214 C 
ATOM     10  O   UNL     1      -3.983  -1.151  -0.606  0.00  0.00    -0.276 OA
ATOM     11  H   UNL     1      -1.628   0.366  -1.901  0.00  0.00    +0.149 HD
BRANCH   8  12
ATOM     12  C   UNL     1      -1.433  -0.534   0.013  0.00  0.00    +0.107 C 
BRANCH  12  14
ATOM     13  C   UNL     1      -0.019   1.526   0.010  0.00  0.00    +0.009 C 
ATOM     14  C   UNL     1       0.002  -0.004   0.002  0.00  0.00    +0.007 C 
BRANCH  14  15
ATOM     15  C   UNL     1       0.742  -0.511   1.242  0.00  0.00    +0.040 C 
BRANCH  15  16
ATOM     16  C   UNL     1       2.188  -0.092   1.170  0.00  0.00    -0.039 A 
ATOM     17  C   UNL     1       3.122  -0.941   0.659  0.00  0.00    +0.004 A 
ATOM     18  C   UNL     1       4.463  -0.572   0.585  0.00  0.00    +0.001 A 
ATOM     19  C   UNL     1       4.879   0.649   1.021  0.00  0.00    +0.008 A 
ATOM     20  C   UNL     1       3.944   1.552   1.554  0.00  0.00    -0.018 A 
ATOM     21  C   UNL     1       2.579   1.179   1.624  0.00  0.00    -0.015 A 
ATOM     22  C   UNL     1       1.643   2.085   2.151  0.00  0.00    +0.009 A 
ATOM     23  C   UNL     1       2.058   3.308   2.581  0.00  0.00    +0.001 A 
ATOM     24  C   UNL     1       3.399   3.677   2.506  0.00  0.00    +0.001 A 
ATOM     25  C   UNL     1       4.336   2.821   2.014  0.00  0.00    +0.008 A 
ENDBRANCH  15  16
ENDBRANCH  14  15
ENDBRANCH  12  14
ENDBRANCH   8  12
ENDBRANCH   1   9
BRANCH   5  26
ATOM     26  C   UNL     1      -7.587  -0.707  -3.914  0.00  0.00    +0.022 C 
BRANCH  26  27
ATOM     27  C   UNL     1      -8.316  -0.201  -5.132  0.00  0.00    +0.211 A 
ATOM     28  N   UNL     1      -8.425  -0.828  -6.268  0.00  0.00    -0.193 NA
ATOM     29  C   UNL     1      -9.141  -0.089  -7.135  0.00  0.00    +0.202 A 
ATOM     30  N   UNL     1      -9.493   1.026  -6.543  0.00  0.00    -0.056 NA
ATOM     31  O   UNL     1      -8.965   0.967  -5.227  0.00  0.00    -0.340 OA
BRANCH  29  32
ATOM     32  C   UNL     1      -9.475  -0.472  -8.530  0.00  0.00    +0.022 A 
ATOM     33  C   UNL     1      -9.042  -1.693  -9.042  0.00  0.00    +0.012 A 
ATOM     34  C   UNL     1      -9.356  -2.045 -10.339  0.00  0.00    +0.005 A 
ATOM     35  C   UNL     1     -10.097  -1.186 -11.131  0.00  0.00    -0.042 A 
ATOM     36  C   UNL     1     -10.529   0.028 -10.627  0.00  0.00    +0.005 A 
ATOM     37  C   UNL     1     -10.227   0.386  -9.329  0.00  0.00    +0.012 A 
BRANCH  35  38
ATOM     38  C   UNL     1     -10.436  -1.575 -12.547  0.00  0.00    -0.013 C 
ATOM     39  C   UNL     1     -11.250  -2.870 -12.540  0.00  0.00    +0.015 C 
ATOM     40  C   UNL     1     -11.256  -0.460 -13.199  0.00  0.00    +0.015 C 
ATOM     41  C   UNL     1      -9.144  -1.789 -13.339  0.00  0.00    +0.015 C 
ENDBRANCH  35  38
ENDBRANCH  29  32
ENDBRANCH  26  27
ENDBRANCH   5  26
TORSDOF 9
