REMARK  Name = ZINC08685988
REMARK  9 active torsions:
REMARK  status: ('A' for Active; 'I' for Inactive)
REMARK    1  A    between atoms: C_1  and  C_2
REMARK    2  A    between atoms: C_2  and  O_3
REMARK    3  A    between atoms: O_3  and  C_4
REMARK    4  A    between atoms: C_4  and  C_6
REMARK    5  A    between atoms: C_7  and  C_33
REMARK    6  A    between atoms: C_11  and  C_20
REMARK    7  A    between atoms: C_12  and  O_19
REMARK    8  A    between atoms: C_20  and  C_22
REMARK    9  A    between atoms: C_20  and  N_60
REMARK                            x       y       z     vdW  Elec       q    Type
REMARK                         _______ _______ _______ _____ _____    ______ ____
ROOT
ATOM      1  C   UNL     1       4.409   0.766   4.883  0.00  0.00    +0.108 A 
ATOM      2  C   UNL     1       5.424   1.365   5.568  0.00  0.00    +0.117 A 
ATOM      3  O   UNL     1       6.428   1.641   4.730  0.00  0.00    -0.459 OA
ATOM      4  C   UNL     1       6.140   1.250   3.473  0.00  0.00    +0.144 A 
ATOM      5  C   UNL     1       4.869   0.681   3.482  0.00  0.00    +0.040 A 
ATOM      6  C   UNL     1       4.295   0.178   2.305  0.00  0.00    -0.003 A 
ATOM      7  C   UNL     1       4.973   0.231   1.125  0.00  0.00    +0.127 A 
ATOM      8  C   UNL     1       6.263   0.805   1.075  0.00  0.00    +0.027 A 
ATOM      9  C   UNL     1       6.853   1.317   2.256  0.00  0.00    +0.029 A 
ATOM     10  C   UNL     1       8.136   1.881   2.198  0.00  0.00    +0.012 A 
ATOM     11  C   UNL     1       8.798   1.931   1.008  0.00  0.00    +0.001 A 
ATOM     12  C   UNL     1       8.218   1.428  -0.154  0.00  0.00    +0.001 A 
ATOM     13  C   UNL     1       6.974   0.873  -0.133  0.00  0.00    +0.012 A 
ATOM     14  C   UNL     1       5.415   1.668   7.044  0.00  0.00    +0.087 C 
ENDROOT
BRANCH   1  15
ATOM     15  C   UNL     1       3.125   0.302   5.426  0.00  0.00    +0.343 C 
ATOM     16  O   UNL     1       3.018  -0.834   5.847  0.00  0.00    -0.245 OA
BRANCH  15  17
ATOM     17  O   UNL     1       2.065   1.135   5.457  0.00  0.00    -0.461 OA
BRANCH  17  19
ATOM     18  C   UNL     1      -0.252   1.690   5.958  0.00  0.00    +0.048 C 
ATOM     19  C   UNL     1       0.829   0.608   6.007  0.00  0.00    +0.229 C 
ENDBRANCH  17  19
ENDBRANCH  15  17
ENDBRANCH   1  15
BRANCH   7  20
ATOM     20  O   UNL     1       4.406  -0.265  -0.006  0.00  0.00    -0.506 OA
ATOM     21  H   UNL     1       3.886   0.382  -0.502  0.00  0.00    +0.292 HD
ENDBRANCH   7  20
BRANCH   6  22
ATOM     22  C   UNL     1       2.918  -0.432   2.348  0.00  0.00    -0.002 C 
BRANCH  22  28
ATOM     23  C   UNL     1       0.772  -0.505   1.227  0.00  0.00    -0.049 C 
ATOM     24  C   UNL     1       0.002  -0.004   0.002  0.00  0.00    +0.141 C 
ATOM     25  O   UNL     1      -0.017   1.426   0.010  0.00  0.00    -0.383 OA
ATOM     26  C   UNL     1       1.284   2.019   0.001  0.00  0.00    +0.141 C 
ATOM     27  C   UNL     1       2.067   1.539   1.225  0.00  0.00    -0.049 C 
ATOM     28  N   UNL     1       2.136   0.062   1.194  0.00  0.00    +0.390 N 
ATOM     29  H   UNL     1       2.600  -0.232   0.326  0.00  0.00    -0.080 HD
ENDBRANCH  22  28
BRANCH  22  30
ATOM     30  C   UNL     1       3.030  -1.932   2.257  0.00  0.00    -0.057 A 
ATOM     31  C   UNL     1       3.217  -2.538   1.028  0.00  0.00    +0.002 A 
ATOM     32  C   UNL     1       3.324  -3.913   0.945  0.00  0.00    +0.000 A 
ATOM     33  C   UNL     1       3.234  -4.684   2.090  0.00  0.00    +0.000 A 
ATOM     34  C   UNL     1       3.043  -4.078   3.317  0.00  0.00    +0.000 A 
ATOM     35  C   UNL     1       2.940  -2.702   3.401  0.00  0.00    +0.002 A 
ENDBRANCH  22  30
ENDBRANCH   6  22
TORSDOF 7
