REMARK  Name = ZINC45971675
REMARK  7 active torsions:
REMARK  status: ('A' for Active; 'I' for Inactive)
REMARK    1  A    between atoms: C_1  and  C_2
REMARK    2  A    between atoms: C_5  and  C_32
REMARK    3  A    between atoms: C_6  and  C_8
REMARK    4  A    between atoms: C_14  and  S_20
REMARK    5  A    between atoms: S_20  and  C_21
REMARK    6  A    between atoms: C_21  and  C_22
REMARK    7  A    between atoms: N_24  and  C_25
REMARK                            x       y       z     vdW  Elec       q    Type
REMARK                         _______ _______ _______ _____ _____    ______ ____
ROOT
ATOM      1  C   UNL     1       0.132  -2.855   2.345  0.00  0.00    +0.094 A 
ATOM      2  C   UNL     1       0.033  -2.287   3.623  0.00  0.00    +0.061 A 
ATOM      3  C   UNL     1       0.070  -3.315   4.537  0.00  0.00    +0.112 A 
ATOM      4  C   UNL     1       0.010  -3.374   6.000  0.00  0.00    +0.187 A 
ATOM      5  N   UNL     1      -0.100  -2.480   6.953  0.00  0.00    -0.126 NA
ATOM      6  N   UNL     1      -0.106  -3.064   8.100  0.00  0.00    -0.122 NA
ATOM      7  C   UNL     1      -0.002  -4.367   7.947  0.00  0.00    +0.196 A 
ATOM      8  N   UNL     1       0.076  -4.611   6.609  0.00  0.00    -0.274 N 
ATOM      9  C   UNL     1       0.195  -5.753   5.838  0.00  0.00    +0.115 A 
ATOM     10  C   UNL     1       0.250  -5.694   4.514  0.00  0.00    +0.131 A 
ATOM     11  N   UNL     1       0.189  -4.488   3.835  0.00  0.00    -0.234 N 
ATOM     12  N   UNL     1       0.219  -4.165   2.473  0.00  0.00    -0.166 NA
ENDROOT
BRANCH   1  18
ATOM     13  C   UNL     1       1.901   0.849  -0.498  0.00  0.00    +0.044 C 
ATOM     14  C   UNL     1       0.980  -0.328  -0.307  0.00  0.00    -0.050 A 
ATOM     15  C   UNL     1       0.131  -0.713  -1.329  0.00  0.00    +0.003 A 
ATOM     16  C   UNL     1      -0.718  -1.792  -1.161  0.00  0.00    +0.004 A 
ATOM     17  C   UNL     1      -0.722  -2.491   0.030  0.00  0.00    -0.041 A 
ATOM     18  C   UNL     1       0.132  -2.108   1.062  0.00  0.00    +0.005 A 
ATOM     19  C   UNL     1       0.989  -1.023   0.885  0.00  0.00    +0.013 A 
ATOM     20  C   UNL     1      -1.647  -3.666   0.212  0.00  0.00    +0.044 C 
ENDBRANCH   1  18
BRANCH   7  21
ATOM     21  S   UNL     1       0.032  -5.571   9.233  0.00  0.00    -0.076 S 
BRANCH  21  22
ATOM     22  C   UNL     1      -0.109  -4.593  10.754  0.00  0.00    +0.173 C 
BRANCH  22  23
ATOM     23  C   UNL     1      -0.092  -5.513  11.947  0.00  0.00    +0.228 C 
ATOM     24  O   UNL     1       0.005  -6.712  11.786  0.00  0.00    -0.275 OA
ATOM     25  N   UNL     1      -0.186  -5.005  13.191  0.00  0.00    -0.284 N 
ATOM     26  H   UNL     1      -0.345  -4.057  13.318  0.00  0.00    +0.155 HD
BRANCH  25  27
ATOM     27  C   UNL     1      -0.054  -5.847  14.302  0.00  0.00    +0.047 A 
ATOM     28  C   UNL     1       0.657  -7.035  14.195  0.00  0.00    +0.024 A 
ATOM     29  C   UNL     1       0.786  -7.863  15.293  0.00  0.00    +0.002 A 
ATOM     30  C   UNL     1       0.209  -7.510  16.499  0.00  0.00    +0.001 A 
ATOM     31  C   UNL     1      -0.499  -6.328  16.610  0.00  0.00    +0.017 A 
ATOM     32  C   UNL     1      -0.628  -5.492  15.517  0.00  0.00    +0.039 A 
ATOM     33 BR   UNL     1      -1.590  -3.871  15.671  0.00  0.00    -0.048 Br
ENDBRANCH  25  27
ENDBRANCH  22  23
ENDBRANCH  21  22
ENDBRANCH   7  21
TORSDOF 5
