REMARK  Name = ZINC65305196
REMARK  10 active torsions:
REMARK  status: ('A' for Active; 'I' for Inactive)
REMARK    1  A    between atoms: C_1  and  C_2
REMARK    2  A    between atoms: C_6  and  N_9
REMARK    3  A    between atoms: C_7  and  C_8
REMARK    4  A    between atoms: C_10  and  C_12
REMARK    5  A    between atoms: C_12  and  N_13
REMARK    6  A    between atoms: N_24  and  C_27
REMARK    7  A    between atoms: C_27  and  C_28
REMARK    8  A    between atoms: C_28  and  C_29
REMARK    9  A    between atoms: C_29  and  C_30
REMARK   10  A    between atoms: C_29  and  C_31
REMARK                            x       y       z     vdW  Elec       q    Type
REMARK                         _______ _______ _______ _____ _____    ______ ____
ROOT
ATOM      1  N   UNL     1      -0.207  -6.335   3.410  0.00  0.00    -0.202 N 
ATOM      2  C   UNL     1       0.835  -7.188   3.307  0.00  0.00    +0.353 A 
ATOM      3  O   UNL     1       2.013  -6.904   3.426  0.00  0.00    -0.244 OA
ATOM      4  N   UNL     1       0.332  -8.412   3.049  0.00  0.00    -0.228 N 
ATOM      5  C   UNL     1       0.977  -9.647   2.852  0.00  0.00    +0.074 A 
ATOM      6  C   UNL     1       2.336  -9.949   2.871  0.00  0.00    +0.035 A 
ATOM      7  C   UNL     1       2.743 -11.219   2.655  0.00  0.00    +0.048 A 
ATOM      8  S   UNL     1       1.318 -12.078   2.414  0.00  0.00    -0.090 S 
ATOM      9  C   UNL     1       0.160 -10.749   2.600  0.00  0.00    +0.101 A 
ATOM     10  C   UNL     1      -1.236 -10.640   2.543  0.00  0.00    +0.270 A 
ATOM     11  O   UNL     1      -1.918 -11.624   2.320  0.00  0.00    -0.266 OA
ATOM     12  N   UNL     1      -1.821  -9.438   2.736  0.00  0.00    -0.276 N 
ATOM     13  C   UNL     1      -1.038  -8.320   2.990  0.00  0.00    +0.240 A 
ATOM     14  N   UNL     1      -1.378  -7.079   3.212  0.00  0.00    -0.129 NA
ENDROOT
BRANCH   1  15
ATOM     15  C   UNL     1      -0.129  -4.898   3.686  0.00  0.00    +0.245 C 
BRANCH  15  17
ATOM     16  N   UNL     1       0.052  -2.797   2.393  0.00  0.00    -0.284 N 
ATOM     17  C   UNL     1      -0.031  -4.143   2.385  0.00  0.00    +0.239 C 
ATOM     18  O   UNL     1      -0.028  -4.745   1.333  0.00  0.00    -0.273 OA
ATOM     19  H   UNL     1       0.130  -2.321   3.234  0.00  0.00    +0.155 HD
BRANCH  16  25
ATOM     20  C   UNL     1       1.206   1.236  -0.172  0.00  0.00    +0.044 C 
ATOM     21  C   UNL     1       0.577  -0.131  -0.084  0.00  0.00    -0.046 A 
ATOM     22  C   UNL     1      -0.027  -0.686  -1.198  0.00  0.00    +0.004 A 
ATOM     23  C   UNL     1      -0.605  -1.940  -1.122  0.00  0.00    +0.002 A 
ATOM     24  C   UNL     1      -0.580  -2.642   0.067  0.00  0.00    +0.023 A 
ATOM     25  C   UNL     1       0.026  -2.088   1.187  0.00  0.00    +0.037 A 
ATOM     26  C   UNL     1       0.610  -0.831   1.106  0.00  0.00    -0.026 A 
ATOM     27  C   UNL     1       1.274  -0.228   2.317  0.00  0.00    +0.046 C 
ENDBRANCH  16  25
ENDBRANCH  15  17
ENDBRANCH   1  15
BRANCH  12  28
ATOM     28  C   UNL     1      -3.279  -9.315   2.678  0.00  0.00    +0.128 C 
BRANCH  28  29
ATOM     29  C   UNL     1      -3.866  -9.539   4.073  0.00  0.00    +0.025 C 
BRANCH  29  30
ATOM     30  C   UNL     1      -5.389  -9.411   4.013  0.00  0.00    -0.016 C 
ATOM     31  C   UNL     1      -5.985  -9.756   5.379  0.00  0.00    +0.007 C 
ATOM     32  C   UNL     1      -5.766  -7.975   3.641  0.00  0.00    +0.007 C 
ENDBRANCH  29  30
ENDBRANCH  28  29
ENDBRANCH  12  28
TORSDOF 6
