REMARK  Name = ZINC09405461
REMARK  9 active torsions:
REMARK  status: ('A' for Active; 'I' for Inactive)
REMARK    1  A    between atoms: C_1  and  C_2
REMARK    2  A    between atoms: C_2  and  C_4
REMARK    3  A    between atoms: C_2  and  N_10
REMARK    4  A    between atoms: C_11  and  C_13
REMARK    5  A    between atoms: N_18  and  S_20
REMARK    6  A    between atoms: S_20  and  C_23
REMARK    7  A    between atoms: C_29  and  C_34
REMARK    8  A    between atoms: C_29  and  C_35
REMARK    9  A    between atoms: N_32  and  C_33
REMARK                            x       y       z     vdW  Elec       q    Type
REMARK                         _______ _______ _______ _____ _____    ______ ____
ROOT
ATOM      1  C   UNL     1       4.419   0.304  -3.627  0.00  0.00    +0.091 C 
ATOM      2  C   UNL     1       4.099  -0.953  -4.440  0.00  0.00    +0.015 C 
ATOM      3  C   UNL     1       3.183  -1.870  -3.626  0.00  0.00    +0.018 C 
ATOM      4  C   UNL     1       3.907  -2.297  -2.340  0.00  0.00    +0.109 C 
ATOM      5  N   UNL     1       4.341  -1.089  -1.625  0.00  0.00    -0.176 NA
ATOM      6  C   UNL     1       5.152  -0.096  -2.343  0.00  0.00    +0.122 C 
ENDROOT
BRANCH   1   8
ATOM      7  N   UNL     1       4.854   1.702  -5.621  0.00  0.00    -0.308 N 
ATOM      8  C   UNL     1       5.295   1.220  -4.442  0.00  0.00    +0.218 C 
ATOM      9  O   UNL     1       6.397   1.524  -4.037  0.00  0.00    -0.275 OA
ATOM     10  H   UNL     1       3.973   1.459  -5.945  0.00  0.00    +0.149 HD
BRANCH   7  12
ATOM     11  C   UNL     1       6.654   1.758  -7.276  0.00  0.00    +0.033 C 
ATOM     12  C   UNL     1       5.706   2.593  -6.413  0.00  0.00    +0.100 C 
BRANCH  12  13
ATOM     13  C   UNL     1       4.844   3.453  -7.301  0.00  0.00    -0.027 A 
ATOM     14  C   UNL     1       3.742   2.907  -7.933  0.00  0.00    +0.005 A 
ATOM     15  C   UNL     1       2.950   3.697  -8.745  0.00  0.00    +0.000 A 
ATOM     16  C   UNL     1       3.264   5.030  -8.931  0.00  0.00    +0.000 A 
ATOM     17  C   UNL     1       4.369   5.574  -8.304  0.00  0.00    +0.000 A 
ATOM     18  C   UNL     1       5.159   4.786  -7.489  0.00  0.00    +0.005 A 
ENDBRANCH  12  13
ENDBRANCH   7  12
ENDBRANCH   1   8
BRANCH   5  19
ATOM     19  S   UNL     1       3.930  -0.854  -0.038  0.00  0.00    +0.061 S 
ATOM     20  O   UNL     1       4.904   0.025   0.508  0.00  0.00    -0.153 OA
ATOM     21  O   UNL     1       3.672  -2.140   0.509  0.00  0.00    -0.153 OA
BRANCH  19  22
ATOM     22  C   UNL     1       2.399   0.017  -0.020  0.00  0.00    +0.106 A 
ATOM     23  C   UNL     1       1.204  -0.680  -0.013  0.00  0.00    +0.030 A 
ATOM     24  C   UNL     1       0.002  -0.004   0.002  0.00  0.00    +0.026 A 
ATOM     25  C   UNL     1      -0.017   1.389   0.010  0.00  0.00    +0.040 A 
ATOM     26  C   UNL     1       1.189   2.078   0.002  0.00  0.00    -0.010 A 
ATOM     27  C   UNL     1       2.388   1.401  -0.013  0.00  0.00    +0.035 A 
ATOM     28  C   UNL     1       0.840   3.549   0.013  0.00  0.00    +0.068 C 
ATOM     29  C   UNL     1      -0.674   3.567   0.027  0.00  0.00    +0.230 C 
ATOM     30  O   UNL     1      -1.383   4.551   0.038  0.00  0.00    -0.274 OA
ATOM     31  N   UNL     1      -1.085   2.287   0.019  0.00  0.00    -0.273 N 
ATOM     32  C   UNL     1      -2.493   1.881   0.023  0.00  0.00    +0.138 C 
ATOM     33  C   UNL     1       1.396   4.223   1.268  0.00  0.00    +0.025 C 
ATOM     34  C   UNL     1       1.372   4.235  -1.247  0.00  0.00    +0.025 C 
ENDBRANCH  19  22
ENDBRANCH   5  19
TORSDOF 5
