REMARK  Name = ZINC26441395
REMARK  10 active torsions:
REMARK  status: ('A' for Active; 'I' for Inactive)
REMARK    1  A    between atoms: C_1  and  C_2
REMARK    2  A    between atoms: C_3  and  C_17
REMARK    3  A    between atoms: N_7  and  C_8
REMARK    4  A    between atoms: C_8  and  C_10
REMARK    5  A    between atoms: C_10  and  N_11
REMARK    6  A    between atoms: C_26  and  C_28
REMARK    7  A    between atoms: C_28  and  C_29
REMARK    8  A    between atoms: C_29  and  C_30
REMARK    9  A    between atoms: C_29  and  C_31
REMARK   10  A    between atoms: C_29  and  C_32
REMARK                            x       y       z     vdW  Elec       q    Type
REMARK                         _______ _______ _______ _____ _____    ______ ____
ROOT
ATOM      1  C   UNL     1      -6.767   3.841   0.777  0.00  0.00    +0.054 C 
ATOM      2  C   UNL     1      -6.282   4.498  -0.490  0.00  0.00    +0.014 A 
ATOM      3  C   UNL     1      -5.040   4.482  -1.061  0.00  0.00    +0.058 A 
ATOM      4  N   UNL     1      -4.838   5.135  -2.195  0.00  0.00    -0.335 N 
ATOM      5  C   UNL     1      -5.811   5.807  -2.782  0.00  0.00    +0.164 A 
ATOM      6  S   UNL     1      -7.171   5.518  -1.659  0.00  0.00    -0.057 S 
ATOM      7  N   UNL     1      -5.785   6.542  -3.961  0.00  0.00    -0.155 NA
ATOM      8  H   UNL     1      -3.844   5.125  -2.666  0.00  0.00    +0.168 HD
ENDROOT
BRANCH   3   9
ATOM      9  C   UNL     1      -3.932   3.733  -0.420  0.00  0.00    -0.001 A 
ATOM     10  C   UNL     1      -3.838   3.671   0.969  0.00  0.00    +0.012 A 
ATOM     11  C   UNL     1      -2.808   2.976   1.561  0.00  0.00    +0.024 A 
ATOM     12  C   UNL     1      -1.850   2.328   0.778  0.00  0.00    +0.040 A 
ATOM     13  C   UNL     1      -1.947   2.393  -0.604  0.00  0.00    -0.024 A 
ATOM     14  C   UNL     1      -2.976   3.089  -1.203  0.00  0.00    +0.015 A 
ATOM     15  C   UNL     1      -0.797   1.615  -1.204  0.00  0.00    +0.056 C 
ATOM     16  C   UNL     1      -0.013   1.086   0.008  0.00  0.00    +0.118 C 
ATOM     17  N   UNL     1      -0.738   1.578   1.182  0.00  0.00    -0.271 N 
ATOM     18  C   UNL     1      -0.386   1.342   2.462  0.00  0.00    +0.220 C 
ATOM     19  O   UNL     1       0.598   0.677   2.708  0.00  0.00    -0.275 OA
BRANCH  18  20
ATOM     20  C   UNL     1      -1.216   1.905   3.587  0.00  0.00    +0.102 C 
BRANCH  20  21
ATOM     21  C   UNL     1      -0.603   1.493   4.928  0.00  0.00    -0.029 C 
ATOM     22  C   UNL     1       0.824   2.036   5.025  0.00  0.00    +0.011 C 
ATOM     23  C   UNL     1      -1.445   2.064   6.070  0.00  0.00    +0.011 C 
ATOM     24  C   UNL     1      -0.576  -0.034   5.028  0.00  0.00    +0.011 C 
ENDBRANCH  20  21
ENDBRANCH  18  20
ENDBRANCH   3   9
BRANCH   7  25
ATOM     25  C   UNL     1      -6.902   7.161  -4.394  0.00  0.00    +0.252 C 
ATOM     26  O   UNL     1      -7.929   7.075  -3.755  0.00  0.00    -0.272 OA
BRANCH  25  27
ATOM     27  C   UNL     1      -6.873   7.959  -5.672  0.00  0.00    +0.182 C 
BRANCH  27  28
ATOM     28  N   UNL     1      -8.204   8.529  -5.923  0.00  0.00    -0.290 NA
ATOM     29  C   UNL     1      -9.186   7.471  -6.200  0.00  0.00    +0.113 C 
ATOM     30  C   UNL     1     -10.567   8.103  -6.396  0.00  0.00    +0.175 C 
ATOM     31  O   UNL     1     -10.499   9.069  -7.449  0.00  0.00    -0.377 OA
ATOM     32  C   UNL     1      -9.552  10.114  -7.212  0.00  0.00    +0.175 C 
ATOM     33  C   UNL     1      -8.161   9.502  -7.024  0.00  0.00    +0.113 C 
ENDBRANCH  27  28
ENDBRANCH  25  27
ENDBRANCH   7  25
TORSDOF 6
