REMARK  Name = ZINC20530834
REMARK  7 active torsions:
REMARK  status: ('A' for Active; 'I' for Inactive)
REMARK    1  A    between atoms: C_7  and  C_21
REMARK    2  A    between atoms: C_7  and  O_36
REMARK    3  A    between atoms: N_10  and  C_11
REMARK    4  A    between atoms: C_11  and  C_12
REMARK    5  A    between atoms: C_15  and  N_18
REMARK    6  A    between atoms: C_21  and  C_22
REMARK    7  A    between atoms: C_22  and  C_24
REMARK                            x       y       z     vdW  Elec       q    Type
REMARK                         _______ _______ _______ _____ _____    ______ ____
ROOT
ATOM      1  C   UNL     1      -9.579   7.741   0.365  0.00  0.00    +0.000 A 
ATOM      2  C   UNL     1     -10.671   7.066   0.877  0.00  0.00    +0.002 A 
ATOM      3  C   UNL     1     -10.496   6.037   1.779  0.00  0.00    +0.024 A 
ATOM      4  C   UNL     1      -9.212   5.671   2.181  0.00  0.00    +0.043 A 
ATOM      5  C   UNL     1      -8.121   6.360   1.659  0.00  0.00    +0.015 A 
ATOM      6  C   UNL     1      -8.301   7.383   0.759  0.00  0.00    +0.009 A 
ATOM      7  C   UNL     1      -6.893   5.735   2.279  0.00  0.00    +0.175 C 
ATOM      8  C   UNL     1      -7.443   4.651   3.182  0.00  0.00    +0.257 C 
ATOM      9  O   UNL     1      -6.797   3.897   3.878  0.00  0.00    -0.272 OA
ATOM     10  N   UNL     1      -8.781   4.682   3.066  0.00  0.00    -0.264 N 
ENDROOT
BRANCH   7  11
ATOM     11  O   UNL     1      -6.170   6.703   3.043  0.00  0.00    -0.374 OA
ATOM     12  H   UNL     1      -5.245   6.414   3.564  0.00  0.00    +0.211 HD
ENDBRANCH   7  11
BRANCH  10  13
ATOM     13  C   UNL     1      -9.684   3.781   3.787  0.00  0.00    +0.148 C 
BRANCH  13  14
ATOM     14  C   UNL     1     -10.064   4.401   5.107  0.00  0.00    -0.030 A 
ATOM     15  C   UNL     1      -9.301   4.154   6.232  0.00  0.00    +0.007 A 
ATOM     16  C   UNL     1      -9.647   4.726   7.442  0.00  0.00    +0.033 A 
ATOM     17  C   UNL     1     -10.762   5.539   7.528  0.00  0.00    +0.126 A 
ATOM     18  C   UNL     1     -11.529   5.782   6.404  0.00  0.00    +0.033 A 
ATOM     19  C   UNL     1     -11.180   5.213   5.193  0.00  0.00    +0.007 A 
BRANCH  17  20
ATOM     20  N   UNL     1     -11.136   6.148   8.824  0.00  0.00    +0.056 N 
ATOM     21  O   UNL     1     -12.118   6.864   8.900  0.00  0.00    -0.126 OA
ATOM     22  O   UNL     1     -10.460   5.934   9.815  0.00  0.00    -0.126 OA
ENDBRANCH  17  20
ENDBRANCH  13  14
ENDBRANCH  10  13
BRANCH   7  23
ATOM     23  C   UNL     1      -5.996   5.129   1.198  0.00  0.00    +0.129 C 
BRANCH  23  24
ATOM     24  C   UNL     1      -4.869   4.368   1.849  0.00  0.00    +0.167 C 
ATOM     25  O   UNL     1      -4.792   4.316   3.058  0.00  0.00    -0.292 OA
BRANCH  24  26
ATOM     26  C   UNL     1      -3.867   3.690   1.020  0.00  0.00    +0.025 A 
ATOM     27  C   UNL     1      -3.933   3.735  -0.374  0.00  0.00    +0.012 A 
ATOM     28  C   UNL     1      -2.992   3.099  -1.174  0.00  0.00    +0.005 A 
ATOM     29  C   UNL     1      -1.955   2.398  -0.630  0.00  0.00    -0.039 A 
ATOM     30  C   UNL     1      -1.848   2.327   0.756  0.00  0.00    -0.011 A 
ATOM     31  C   UNL     1      -2.764   2.945   1.624  0.00  0.00    -0.007 A 
ATOM     32  C   UNL     1      -2.562   2.811   3.001  0.00  0.00    +0.009 A 
ATOM     33  C   UNL     1      -1.483   2.087   3.445  0.00  0.00    +0.001 A 
ATOM     34  C   UNL     1      -0.586   1.479   2.565  0.00  0.00    +0.004 A 
ATOM     35  C   UNL     1      -0.758   1.592   1.218  0.00  0.00    -0.039 A 
ATOM     36  C   UNL     1      -0.013   1.086   0.008  0.00  0.00    +0.040 C 
ATOM     37  C   UNL     1      -0.799   1.617  -1.210  0.00  0.00    +0.040 C 
ENDBRANCH  24  26
ENDBRANCH  23  24
ENDBRANCH   7  23
TORSDOF 7
