REMARK  Name = ZINC09884076
REMARK  8 active torsions:
REMARK  status: ('A' for Active; 'I' for Inactive)
REMARK    1  A    between atoms: C_1  and  C_2
REMARK    2  A    between atoms: C_2  and  C_4
REMARK    3  A    between atoms: C_2  and  N_10
REMARK    4  A    between atoms: C_20  and  S_21
REMARK    5  A    between atoms: S_21  and  C_22
REMARK    6  A    between atoms: C_22  and  C_23
REMARK    7  A    between atoms: C_35  and  C_36
REMARK    8  A    between atoms: C_35  and  C_37
REMARK                            x       y       z     vdW  Elec       q    Type
REMARK                         _______ _______ _______ _____ _____    ______ ____
ROOT
ATOM      1  N   UNL     1      -0.299  -3.646   4.224  0.00  0.00    -0.280 N 
ATOM      2  C   UNL     1      -1.447  -3.872   4.905  0.00  0.00    +0.263 A 
ATOM      3  O   UNL     1      -1.556  -4.819   5.662  0.00  0.00    -0.267 OA
ATOM      4  C   UNL     1      -2.558  -2.935   4.691  0.00  0.00    +0.065 A 
ATOM      5  C   UNL     1      -3.782  -3.083   5.340  0.00  0.00    +0.015 A 
ATOM      6  C   UNL     1      -4.783  -2.181   5.105  0.00  0.00    +0.001 A 
ATOM      7  C   UNL     1      -4.593  -1.122   4.227  0.00  0.00    +0.002 A 
ATOM      8  C   UNL     1      -3.403  -0.953   3.577  0.00  0.00    +0.028 A 
ATOM      9  C   UNL     1      -2.360  -1.858   3.796  0.00  0.00    +0.079 A 
ATOM     10  N   UNL     1      -1.170  -1.728   3.176  0.00  0.00    -0.223 NA
ATOM     11  C   UNL     1      -0.192  -2.576   3.382  0.00  0.00    +0.173 A 
ENDROOT
BRANCH   1  13
ATOM     12  C   UNL     1       0.534  -5.547   5.518  0.00  0.00    +0.036 C 
ATOM     13  C   UNL     1       0.839  -4.553   4.396  0.00  0.00    +0.119 C 
BRANCH  13  14
ATOM     14  C   UNL     1       1.081  -5.304   3.112  0.00  0.00    -0.025 A 
ATOM     15  C   UNL     1       0.012  -5.695   2.327  0.00  0.00    +0.005 A 
ATOM     16  C   UNL     1       0.235  -6.380   1.147  0.00  0.00    +0.000 A 
ATOM     17  C   UNL     1       1.526  -6.682   0.756  0.00  0.00    +0.000 A 
ATOM     18  C   UNL     1       2.595  -6.295   1.543  0.00  0.00    +0.000 A 
ATOM     19  C   UNL     1       2.372  -5.606   2.721  0.00  0.00    +0.005 A 
ENDBRANCH  13  14
ENDBRANCH   1  13
BRANCH  11  20
ATOM     20  S   UNL     1       1.328  -2.328   2.527  0.00  0.00    -0.078 S 
BRANCH  20  21
ATOM     21  C   UNL     1       0.921  -0.836   1.588  0.00  0.00    +0.173 C 
BRANCH  21  22
ATOM     22  C   UNL     1       2.110  -0.425   0.757  0.00  0.00    +0.231 C 
ATOM     23  O   UNL     1       2.994  -1.224   0.527  0.00  0.00    -0.274 OA
ATOM     24  N   UNL     1       2.191   0.829   0.270  0.00  0.00    -0.255 N 
ATOM     25  C   UNL     1       1.129   1.734   0.421  0.00  0.00    +0.059 A 
ATOM     26  C   UNL     1      -0.181   1.294   0.494  0.00  0.00    +0.025 A 
ATOM     27  C   UNL     1      -1.207   2.212   0.631  0.00  0.00    +0.002 A 
ATOM     28  C   UNL     1      -0.925   3.564   0.705  0.00  0.00    +0.002 A 
ATOM     29  C   UNL     1       0.382   4.010   0.634  0.00  0.00    +0.025 A 
ATOM     30  C   UNL     1       1.416   3.098   0.493  0.00  0.00    +0.055 A 
ATOM     31  N   UNL     1       2.745   3.528   0.426  0.00  0.00    -0.282 N 
ATOM     32  C   UNL     1       3.719   2.694   0.015  0.00  0.00    +0.241 C 
ATOM     33  O   UNL     1       4.870   3.075   0.006  0.00  0.00    -0.273 OA
ATOM     34  C   UNL     1       3.395   1.293  -0.435  0.00  0.00    +0.113 C 
ATOM     35  C   UNL     1       4.568   0.366  -0.109  0.00  0.00    +0.042 C 
ATOM     36  C   UNL     1       3.139   1.284  -1.944  0.00  0.00    +0.042 C 
ATOM     37  H   UNL     1       2.969   4.438   0.679  0.00  0.00    +0.155 HD
ENDBRANCH  21  22
ENDBRANCH  20  21
ENDBRANCH  11  20
TORSDOF 5
