REMARK  Name = ZINC63994079
REMARK  8 active torsions:
REMARK  status: ('A' for Active; 'I' for Inactive)
REMARK    1  A    between atoms: C_4  and  N_7
REMARK    2  A    between atoms: N_7  and  S_8
REMARK    3  A    between atoms: S_8  and  C_11
REMARK    4  A    between atoms: C_13  and  C_29
REMARK    5  A    between atoms: C_15  and  N_17
REMARK    6  A    between atoms: N_17  and  C_18
REMARK    7  A    between atoms: C_18  and  C_19
REMARK    8  A    between atoms: N_31  and  C_32
REMARK                            x       y       z     vdW  Elec       q    Type
REMARK                         _______ _______ _______ _____ _____    ______ ____
ROOT
ATOM      1  C   UNL     1       2.624  -3.189   0.323  0.00  0.00    +0.111 A 
ATOM      2  C   UNL     1       1.296  -3.157   0.695  0.00  0.00    +0.042 A 
ATOM      3  C   UNL     1       0.409  -4.116   0.203  0.00  0.00    +0.040 A 
ATOM      4  C   UNL     1       0.871  -5.105  -0.666  0.00  0.00    +0.036 A 
ATOM      5  C   UNL     1       2.207  -5.129  -1.034  0.00  0.00    +0.030 A 
ATOM      6  C   UNL     1       3.080  -4.166  -0.542  0.00  0.00    +0.051 A 
ENDROOT
BRANCH   3   7
ATOM      7  C   UNL     1      -1.014  -4.084   0.602  0.00  0.00    +0.244 C 
ATOM      8  O   UNL     1      -1.414  -3.222   1.359  0.00  0.00    -0.270 OA
ATOM      9  N   UNL     1      -1.869  -5.012   0.125  0.00  0.00    -0.308 N 
ATOM     10  H   UNL     1      -1.550  -5.700  -0.479  0.00  0.00    +0.149 HD
BRANCH   9  11
ATOM     11  C   UNL     1      -3.279  -4.980   0.520  0.00  0.00    +0.073 C 
ATOM     12  C   UNL     1      -3.481  -5.780   1.824  0.00  0.00    +0.022 C 
ATOM     13  C   UNL     1      -4.853  -6.473   1.636  0.00  0.00    +0.002 C 
ATOM     14  C   UNL     1      -4.839  -6.857   0.135  0.00  0.00    +0.002 C 
ATOM     15  C   UNL     1      -4.143  -5.665  -0.554  0.00  0.00    +0.022 C 
ENDBRANCH   9  11
ENDBRANCH   3   7
BRANCH   1  16
ATOM     16  S   UNL     1       3.740  -1.977   0.946  0.00  0.00    +0.072 S 
ATOM     17  O   UNL     1       5.050  -2.497   0.761  0.00  0.00    -0.150 OA
ATOM     18  O   UNL     1       3.248  -1.589   2.221  0.00  0.00    -0.150 OA
BRANCH  16  19
ATOM     19  N   UNL     1       3.617  -0.648  -0.034  0.00  0.00    -0.216 N 
ATOM     20  H   UNL     1       3.319   0.199   0.333  0.00  0.00    +0.174 HD
BRANCH  19  24
ATOM     21  C   UNL     1       4.584  -0.940  -4.073  0.00  0.00    +0.000 A 
ATOM     22  C   UNL     1       3.421  -0.299  -3.687  0.00  0.00    +0.002 A 
ATOM     23  C   UNL     1       3.097  -0.200  -2.348  0.00  0.00    +0.024 A 
ATOM     24  C   UNL     1       3.941  -0.746  -1.389  0.00  0.00    +0.048 A 
ATOM     25  C   UNL     1       5.108  -1.389  -1.780  0.00  0.00    +0.024 A 
ATOM     26  C   UNL     1       5.426  -1.484  -3.121  0.00  0.00    +0.002 A 
ENDBRANCH  19  24
ENDBRANCH  16  19
ENDBRANCH   1  16
BRANCH   5  27
ATOM     27  N   UNL     1       2.674  -6.117  -1.904  0.00  0.00    -0.342 N 
ATOM     28  H   UNL     1       3.609  -6.134  -2.162  0.00  0.00    +0.146 HD
BRANCH  27  29
ATOM     29  C   UNL     1       1.752  -7.129  -2.426  0.00  0.00    +0.130 C 
BRANCH  29  30
ATOM     30  C   UNL     1       2.513  -8.085  -3.348  0.00  0.00    +0.120 C 
ATOM     31  C   UNL     1       1.547  -9.023  -4.037  0.00  0.00    +0.009 C 
ATOM     32  C   UNL     1       1.684  -8.793  -5.363  0.00  0.00    -0.004 A 
ATOM     33  C   UNL     1       1.036  -9.374  -6.545  0.00  0.00    +0.010 A 
ATOM     34  C   UNL     1       1.389  -8.929  -7.772  0.00  0.00    +0.001 A 
ATOM     35  C   UNL     1       2.357  -7.930  -7.943  0.00  0.00    +0.002 A 
ATOM     36  C   UNL     1       2.996  -7.348  -6.906  0.00  0.00    +0.026 A 
ATOM     37  C   UNL     1       2.703  -7.739  -5.571  0.00  0.00    +0.043 A 
ATOM     38  N   UNL     1       3.179  -7.333  -4.417  0.00  0.00    -0.376 N 
ATOM     39  H   UNL     1       3.857  -6.651  -4.292  0.00  0.00    +0.160 HD
ENDBRANCH  29  30
ENDBRANCH  27  29
ENDBRANCH   5  27
TORSDOF 8
