REMARK  Name = ZINC37422551
REMARK  15 active torsions:
REMARK  status: ('A' for Active; 'I' for Inactive)
REMARK    1  A    between atoms: C_1  and  C_2
REMARK    2  A    between atoms: C_2  and  N_3
REMARK    3  A    between atoms: N_3  and  C_4
REMARK    4  A    between atoms: N_3  and  C_6
REMARK    5  A    between atoms: C_4  and  C_5
REMARK    6  A    between atoms: C_9  and  C_17
REMARK    7  A    between atoms: C_10  and  O_12
REMARK    8  A    between atoms: O_12  and  S_13
REMARK    9  A    between atoms: S_13  and  C_16
REMARK   10  A    between atoms: C_17  and  N_18
REMARK   11  A    between atoms: N_18  and  C_19
REMARK   12  A    between atoms: C_19  and  C_20
REMARK   13  A    between atoms: N_27  and  C_28
REMARK   14  A    between atoms: C_33  and  O_34
REMARK   15  A    between atoms: O_34  and  C_35
REMARK                            x       y       z     vdW  Elec       q    Type
REMARK                         _______ _______ _______ _____ _____    ______ ____
ROOT
ATOM      1  N   UNL     1       6.598  -2.779   0.786  0.00  0.00    -0.274 N 
ATOM      2  C   UNL     1       6.729  -3.590   1.855  0.00  0.00    +0.307 C 
ATOM      3  O   UNL     1       6.630  -3.136   2.978  0.00  0.00    -0.252 OA
ATOM      4  N   UNL     1       6.970  -4.904   1.678  0.00  0.00    -0.266 N 
ATOM      5  H   UNL     1       6.968  -5.282   0.784  0.00  0.00    +0.156 HD
ENDROOT
BRANCH   4   6
ATOM      6  C   UNL     1       7.223  -5.726   2.785  0.00  0.00    +0.077 A 
ATOM      7  C   UNL     1       7.729  -5.179   3.955  0.00  0.00    +0.027 A 
ATOM      8  C   UNL     1       7.978  -5.991   5.045  0.00  0.00    +0.002 A 
ATOM      9  C   UNL     1       7.724  -7.348   4.974  0.00  0.00    +0.004 A 
ATOM     10  C   UNL     1       7.219  -7.900   3.811  0.00  0.00    +0.047 A 
ATOM     11  C   UNL     1       6.961  -7.092   2.715  0.00  0.00    +0.141 A 
BRANCH  11  12
ATOM     12  O   UNL     1       6.460  -7.633   1.573  0.00  0.00    -0.493 OA
ATOM     13  C   UNL     1       6.216  -9.041   1.574  0.00  0.00    +0.277 C 
ENDBRANCH  11  12
ENDBRANCH   4   6
BRANCH   1  14
ATOM     14  C   UNL     1       6.337  -1.351   0.978  0.00  0.00    +0.148 C 
BRANCH  14  18
ATOM     15  C   UNL     1       2.114  -0.680   1.104  0.00  0.00    +0.033 A 
ATOM     16  C   UNL     1       2.827  -0.429  -0.062  0.00  0.00    +0.023 A 
ATOM     17  C   UNL     1       4.191  -0.647  -0.099  0.00  0.00    +0.011 A 
ATOM     18  C   UNL     1       4.849  -1.114   1.023  0.00  0.00    +0.015 A 
ATOM     19  C   UNL     1       4.142  -1.366   2.190  0.00  0.00    +0.163 A 
ATOM     20  C   UNL     1       2.775  -1.144   2.233  0.00  0.00    +0.072 A 
BRANCH  15  21
ATOM     21  N   UNL     1       0.735  -0.460   1.142  0.00  0.00    -0.330 N 
BRANCH  21  23
ATOM     22  C   UNL     1       0.025   1.560  -0.040  0.00  0.00    +0.024 C 
ATOM     23  C   UNL     1       0.039   0.030  -0.050  0.00  0.00    +0.102 C 
ENDBRANCH  21  23
BRANCH  21  24
ATOM     24  C   UNL     1      -0.015  -0.719   2.373  0.00  0.00    +0.102 C 
ATOM     25  C   UNL     1      -0.504  -2.168   2.377  0.00  0.00    +0.024 C 
ENDBRANCH  21  24
ENDBRANCH  15  21
BRANCH  19  26
ATOM     26  O   UNL     1       4.791  -1.825   3.292  0.00  0.00    -0.346 OA
BRANCH  26  27
ATOM     27  S   UNL     1       5.307  -0.726   4.210  0.00  0.00    +0.118 S 
ATOM     28  O   UNL     1       6.159  -1.393   5.132  0.00  0.00    -0.137 OA
ATOM     29  O   UNL     1       5.824   0.265   3.333  0.00  0.00    -0.137 OA
ATOM     30  C   UNL     1       3.833  -0.100   5.062  0.00  0.00    +0.242 C 
ENDBRANCH  26  27
ENDBRANCH  19  26
ENDBRANCH  14  18
ENDBRANCH   1  14
BRANCH   1  31
ATOM     31  C   UNL     1       6.718  -3.326  -0.568  0.00  0.00    +0.183 C 
BRANCH  31  32
ATOM     32  C   UNL     1       8.157  -3.261  -1.011  0.00  0.00    +0.122 A 
ATOM     33  C   UNL     1       9.080  -4.222  -0.830  0.00  0.00    +0.046 A 
ATOM     34  C   UNL     1      10.285  -3.745  -1.396  0.00  0.00    +0.041 A 
ATOM     35  C   UNL     1      10.025  -2.521  -1.889  0.00  0.00    +0.195 A 
ATOM     36  O   UNL     1       8.733  -2.235  -1.658  0.00  0.00    -0.466 OA
ENDBRANCH  31  32
ENDBRANCH   1  31
TORSDOF 11
