REMARK  Name = ZINC59824210
REMARK  8 active torsions:
REMARK  status: ('A' for Active; 'I' for Inactive)
REMARK    1  A    between atoms: C_1  and  C_2
REMARK    2  A    between atoms: C_2  and  C_3
REMARK    3  A    between atoms: C_3  and  C_5
REMARK    4  A    between atoms: C_3  and  N_15
REMARK    5  A    between atoms: C_16  and  C_18
REMARK    6  A    between atoms: C_18  and  N_19
REMARK    7  A    between atoms: C_22  and  C_26
REMARK    8  A    between atoms: C_22  and  C_27
REMARK                            x       y       z     vdW  Elec       q    Type
REMARK                         _______ _______ _______ _____ _____    ______ ____
ROOT
ATOM      1  N   UNL     1       4.066   2.915  -2.110  0.00  0.00    -0.215 N 
ATOM      2  C   UNL     1       4.281   3.214  -3.406  0.00  0.00    +0.251 C 
ATOM      3  O   UNL     1       4.397   2.435  -4.328  0.00  0.00    -0.272 OA
ATOM      4  C   UNL     1       4.347   4.727  -3.473  0.00  0.00    +0.135 C 
ATOM      5  N   UNL     1       4.142   5.144  -2.075  0.00  0.00    -0.281 N 
ATOM      6  C   UNL     1       3.983   4.018  -1.357  0.00  0.00    +0.310 C 
ATOM      7  O   UNL     1       3.789   4.003  -0.157  0.00  0.00    -0.252 OA
ATOM      8  C   UNL     1       3.233   5.276  -4.367  0.00  0.00    +0.047 C 
ATOM      9  H   UNL     1       4.123   6.054  -1.738  0.00  0.00    +0.152 HD
ENDROOT
BRANCH   4  10
ATOM     10  C   UNL     1       5.697   5.178  -3.968  0.00  0.00    -0.015 A 
ATOM     11  C   UNL     1       6.410   4.368  -4.850  0.00  0.00    +0.007 A 
ATOM     12  C   UNL     1       7.632   4.746  -5.316  0.00  0.00    +0.009 A 
ATOM     13  C   UNL     1       8.185   5.970  -4.904  0.00  0.00    -0.018 A 
ATOM     14  C   UNL     1       9.444   6.394  -5.365  0.00  0.00    +0.008 A 
ATOM     15  C   UNL     1       9.947   7.587  -4.945  0.00  0.00    +0.001 A 
ATOM     16  C   UNL     1       9.234   8.397  -4.063  0.00  0.00    +0.001 A 
ATOM     17  C   UNL     1       8.012   8.019  -3.597  0.00  0.00    +0.008 A 
ATOM     18  C   UNL     1       7.460   6.794  -4.008  0.00  0.00    -0.018 A 
ATOM     19  C   UNL     1       6.199   6.373  -3.552  0.00  0.00    +0.014 A 
ENDBRANCH   4  10
BRANCH   1  20
ATOM     20  C   UNL     1       3.934   1.552  -1.591  0.00  0.00    +0.213 C 
BRANCH  20  22
ATOM     21  N   UNL     1       2.125  -0.091  -1.209  0.00  0.00    -0.307 N 
ATOM     22  C   UNL     1       2.487   1.134  -1.640  0.00  0.00    +0.231 C 
ATOM     23  O   UNL     1       1.649   1.899  -2.066  0.00  0.00    -0.274 OA
ATOM     24  H   UNL     1       2.795  -0.703  -0.868  0.00  0.00    +0.149 HD
BRANCH  21  25
ATOM     25  C   UNL     1       0.718  -0.497  -1.257  0.00  0.00    +0.103 C 
BRANCH  25  26
ATOM     26  C   UNL     1       0.632  -2.000  -1.327  0.00  0.00    -0.024 A 
ATOM     27  C   UNL     1       1.488  -2.777  -0.570  0.00  0.00    +0.009 A 
ATOM     28  C   UNL     1       1.413  -4.156  -0.633  0.00  0.00    +0.050 A 
ATOM     29  C   UNL     1       0.477  -4.763  -1.457  0.00  0.00    +0.162 A 
ATOM     30  C   UNL     1      -0.386  -3.982  -2.216  0.00  0.00    +0.162 A 
ATOM     31  C   UNL     1      -0.308  -2.599  -2.145  0.00  0.00    +0.055 A 
ATOM     32  O   UNL     1      -1.317  -4.558  -3.025  0.00  0.00    -0.485 OA
ATOM     33  C   UNL     1      -1.123  -5.939  -3.349  0.00  0.00    +0.270 C 
ATOM     34  C   UNL     1      -0.777  -6.692  -2.057  0.00  0.00    +0.270 C 
ATOM     35  O   UNL     1       0.417  -6.122  -1.512  0.00  0.00    -0.485 OA
ENDBRANCH  25  26
BRANCH  25  37
ATOM     36  C   UNL     1      -0.019   1.526   0.010  0.00  0.00    +0.006 C 
ATOM     37  C   UNL     1       0.002  -0.004   0.002  0.00  0.00    +0.024 C 
ENDBRANCH  25  37
ENDBRANCH  21  25
ENDBRANCH  20  22
ENDBRANCH   1  20
TORSDOF 6
