REMARK  Name = ZINC66200629
REMARK  13 active torsions:
REMARK  status: ('A' for Active; 'I' for Inactive)
REMARK    1  A    between atoms: C_1  and  C_2
REMARK    2  A    between atoms: C_2  and  O_3
REMARK    3  A    between atoms: O_3  and  C_4
REMARK    4  A    between atoms: C_7  and  C_10
REMARK    5  A    between atoms: C_11  and  C_12
REMARK    6  A    between atoms: N_14  and  C_15
REMARK    7  A    between atoms: C_15  and  N_17
REMARK    8  A    between atoms: N_17  and  C_18
REMARK    9  A    between atoms: C_21  and  S_24
REMARK   10  A    between atoms: S_24  and  N_27
REMARK   11  A    between atoms: N_27  and  C_28
REMARK   12  A    between atoms: C_29  and  O_34
REMARK   13  A    between atoms: O_34  and  C_35
REMARK                            x       y       z     vdW  Elec       q    Type
REMARK                         _______ _______ _______ _____ _____    ______ ____
ROOT
ATOM      1  N   UNL     1       3.200 -10.290  -5.434  0.00  0.00    -0.297 N 
ATOM      2  H   UNL     1       3.737  -9.675  -5.958  0.00  0.00    +0.154 HD
ENDROOT
BRANCH   1   3
ATOM      3  C   UNL     1       3.402 -11.669  -5.550  0.00  0.00    +0.033 A 
ATOM      4  C   UNL     1       2.314 -12.524  -5.673  0.00  0.00    +0.025 A 
ATOM      5  C   UNL     1       2.517 -13.885  -5.787  0.00  0.00    +0.031 A 
ATOM      6  C   UNL     1       3.802 -14.398  -5.779  0.00  0.00    +0.111 A 
ATOM      7  C   UNL     1       4.887 -13.549  -5.657  0.00  0.00    +0.031 A 
ATOM      8  C   UNL     1       4.691 -12.187  -5.548  0.00  0.00    +0.025 A 
BRANCH   6   9
ATOM      9  S   UNL     1       4.056 -16.135  -5.925  0.00  0.00    +0.093 S 
ATOM     10  O   UNL     1       5.323 -16.410  -5.343  0.00  0.00    -0.148 OA
ATOM     11  O   UNL     1       2.860 -16.759  -5.478  0.00  0.00    -0.148 OA
BRANCH   9  12
ATOM     12  N   UNL     1       4.192 -16.476  -7.540  0.00  0.00    -0.072 NA
BRANCH  12  13
ATOM     13  C   UNL     1       4.401 -17.787  -7.959  0.00  0.00    +0.225 A 
ATOM     14  C   UNL     1       4.522 -18.078  -9.323  0.00  0.00    +0.259 A 
ATOM     15  N   UNL     1       4.720 -19.326  -9.713  0.00  0.00    -0.217 NA
ATOM     16  C   UNL     1       4.803 -20.295  -8.815  0.00  0.00    +0.134 A 
ATOM     17  C   UNL     1       4.683 -20.010  -7.471  0.00  0.00    +0.133 A 
ATOM     18  N   UNL     1       4.491 -18.763  -7.069  0.00  0.00    -0.231 NA
BRANCH  14  19
ATOM     19  O   UNL     1       4.437 -17.082 -10.242  0.00  0.00    -0.477 OA
ATOM     20  C   UNL     1       4.570 -17.454 -11.615  0.00  0.00    +0.279 C 
ENDBRANCH  14  19
ENDBRANCH  12  13
ENDBRANCH   9  12
ENDBRANCH   6   9
ENDBRANCH   1   3
BRANCH   1  21
ATOM     21  C   UNL     1       2.261  -9.815  -4.593  0.00  0.00    +0.141 C 
ATOM     22  S   UNL     1       1.240 -10.900  -3.748  0.00  0.00    -0.018 S 
BRANCH  21  25
ATOM     23  C   UNL     1       1.184  -8.011  -3.575  0.00  0.00    +0.242 C 
ATOM     24  O   UNL     1       0.459  -8.782  -2.975  0.00  0.00    -0.270 OA
ATOM     25  N   UNL     1       2.124  -8.486  -4.417  0.00  0.00    -0.264 N 
ATOM     26  H   UNL     1       2.702  -7.871  -4.895  0.00  0.00    +0.157 HD
BRANCH  23  28
ATOM     27  C   UNL     1       0.094  -6.093  -2.542  0.00  0.00    +0.013 C 
ATOM     28  C   UNL     1       1.036  -6.569  -3.384  0.00  0.00    +0.068 C 
BRANCH  27  32
ATOM     29  C   UNL     1      -0.336  -1.911  -1.986  0.00  0.00    +0.121 A 
ATOM     30  C   UNL     1      -1.166  -2.790  -1.300  0.00  0.00    +0.046 A 
ATOM     31  C   UNL     1      -1.031  -4.148  -1.476  0.00  0.00    +0.011 A 
ATOM     32  C   UNL     1      -0.056  -4.644  -2.349  0.00  0.00    -0.025 A 
ATOM     33  C   UNL     1       0.778  -3.755  -3.038  0.00  0.00    +0.011 A 
ATOM     34  C   UNL     1       0.630  -2.398  -2.859  0.00  0.00    +0.046 A 
BRANCH  29  35
ATOM     35  O   UNL     1      -0.474  -0.572  -1.809  0.00  0.00    -0.492 OA
BRANCH  35  37
ATOM     36  C   UNL     1      -1.491   1.389  -0.829  0.00  0.00    +0.048 C 
ATOM     37  C   UNL     1      -1.486  -0.139  -0.898  0.00  0.00    +0.225 C 
ENDBRANCH  35  37
ENDBRANCH  29  35
ENDBRANCH  27  32
ENDBRANCH  23  28
ENDBRANCH  21  25
ENDBRANCH   1  21
TORSDOF 11
