REMARK  Name = ZINC39881500
REMARK  5 active torsions:
REMARK  status: ('A' for Active; 'I' for Inactive)
REMARK    1  A    between atoms: C_1  and  C_2
REMARK    2  A    between atoms: N_12  and  C_15
REMARK    3  A    between atoms: C_18  and  C_21
REMARK    4  A    between atoms: N_23  and  N_24
REMARK    5  A    between atoms: N_24  and  C_25
REMARK                            x       y       z     vdW  Elec       q    Type
REMARK                         _______ _______ _______ _____ _____    ______ ____
ROOT
ATOM      1  C   UNL     1       0.090  -4.526   4.776  0.00  0.00    +0.035 A 
ATOM      2  C   UNL     1       0.172  -3.168   5.073  0.00  0.00    +0.024 A 
ATOM      3  C   UNL     1       0.174  -2.748   6.384  0.00  0.00    +0.015 A 
ATOM      4  C   UNL     1       0.092  -3.686   7.417  0.00  0.00    +0.038 A 
ATOM      5  C   UNL     1       0.009  -5.049   7.115  0.00  0.00    +0.015 A 
ATOM      6  C   UNL     1       0.003  -5.462   5.802  0.00  0.00    +0.024 A 
ENDROOT
BRANCH   1  18
ATOM      7  C   UNL     1       6.880  -3.104   1.468  0.00  0.00    +0.044 C 
ATOM      8  C   UNL     1       5.525  -3.692   1.169  0.00  0.00    -0.048 A 
ATOM      9  C   UNL     1       5.261  -4.193  -0.104  0.00  0.00    +0.004 A 
ATOM     10  C   UNL     1       4.046  -4.731  -0.404  0.00  0.00    +0.010 A 
ATOM     11  C   UNL     1       3.048  -4.781   0.581  0.00  0.00    -0.001 A 
ATOM     12  C   UNL     1       1.778  -5.329   0.313  0.00  0.00    +0.017 A 
ATOM     13  C   UNL     1       0.856  -5.347   1.315  0.00  0.00    -0.007 A 
ATOM     14  C   UNL     1       1.166  -4.832   2.580  0.00  0.00    +0.107 A 
ATOM     15  N   UNL     1       2.367  -4.319   2.817  0.00  0.00    -0.342 N 
ATOM     16  C   UNL     1       3.312  -4.273   1.876  0.00  0.00    +0.048 A 
ATOM     17  C   UNL     1       4.581  -3.730   2.148  0.00  0.00    +0.029 A 
ATOM     18  N   UNL     1       0.089  -4.947   3.449  0.00  0.00    -0.286 N 
ATOM     19  C   UNL     1      -1.048  -5.576   2.774  0.00  0.00    +0.117 C 
ATOM     20  C   UNL     1      -0.567  -5.857   1.341  0.00  0.00    +0.058 C 
ATOM     21  H   UNL     1       2.563  -3.967   3.699  0.00  0.00    +0.167 HD
ENDBRANCH   1  18
BRANCH   4  22
ATOM     22  C   UNL     1       0.094  -3.239   8.823  0.00  0.00    +0.260 C 
ATOM     23  O   UNL     1       0.167  -2.054   9.084  0.00  0.00    -0.269 OA
ATOM     24  N   UNL     1       0.015  -4.145   9.818  0.00  0.00    -0.232 N 
ATOM     25  H   UNL     1      -0.043  -5.091   9.610  0.00  0.00    +0.173 HD
BRANCH  24  26
ATOM     26  N   UNL     1       0.016  -3.721  11.153  0.00  0.00    -0.264 N 
ATOM     27  H   UNL     1       0.075  -2.775  11.361  0.00  0.00    +0.170 HD
BRANCH  26  28
ATOM     28  C   UNL     1      -0.066  -4.659  12.184  0.00  0.00    +0.044 A 
ATOM     29  C   UNL     1      -0.143  -6.014  11.888  0.00  0.00    +0.024 A 
ATOM     30  C   UNL     1      -0.224  -6.939  12.910  0.00  0.00    +0.002 A 
ATOM     31  C   UNL     1      -0.228  -6.518  14.227  0.00  0.00    +0.000 A 
ATOM     32  C   UNL     1      -0.151  -5.170  14.526  0.00  0.00    +0.002 A 
ATOM     33  C   UNL     1      -0.064  -4.240  13.509  0.00  0.00    +0.024 A 
ENDBRANCH  26  28
ENDBRANCH  24  26
ENDBRANCH   4  22
TORSDOF 4
