REMARK  Name = ZINC14471528
REMARK  7 active torsions:
REMARK  status: ('A' for Active; 'I' for Inactive)
REMARK    1  A    between atoms: C_4  and  C_7
REMARK    2  A    between atoms: C_7  and  C_8
REMARK    3  A    between atoms: C_8  and  N_9
REMARK    4  A    between atoms: N_9  and  S_10
REMARK    5  A    between atoms: S_10  and  C_13
REMARK    6  A    between atoms: C_26  and  C_29
REMARK    7  A    between atoms: C_33  and  N_35
REMARK                            x       y       z     vdW  Elec       q    Type
REMARK                         _______ _______ _______ _____ _____    ______ ____
ROOT
ATOM      1  C   UNL     1       1.177   1.780   0.000  0.00  0.00    +0.106 A 
ATOM      2  C   UNL     1       1.161   3.163   0.005  0.00  0.00    +0.030 A 
ATOM      3  C   UNL     1      -0.039   3.843   0.009  0.00  0.00    +0.025 A 
ATOM      4  C   UNL     1      -1.241   3.144   0.013  0.00  0.00    +0.031 A 
ATOM      5  C   UNL     1      -1.217   1.745   0.017  0.00  0.00    -0.018 A 
ATOM      6  C   UNL     1      -0.013   1.076   0.008  0.00  0.00    +0.034 A 
ATOM      7  C   UNL     1      -2.517   1.041   0.071  0.00  0.00    +0.049 C 
ATOM      8  C   UNL     1      -2.684  -0.336  -0.459  0.00  0.00    -0.023 C 
ATOM      9  C   UNL     1      -3.925  -0.468  -0.911  0.00  0.00    -0.030 C 
ATOM     10  C   UNL     1      -4.686   0.849  -0.744  0.00  0.00    +0.033 C 
ATOM     11  C   UNL     1      -3.541   1.871  -0.759  0.00  0.00    +0.029 C 
ATOM     12  C   UNL     1      -3.750   3.156   0.022  0.00  0.00    +0.105 C 
ATOM     13  N   UNL     1      -2.447   3.855  -0.005  0.00  0.00    -0.336 N 
ATOM     14  H   UNL     1      -2.428   4.825  -0.037  0.00  0.00    +0.147 HD
ENDROOT
BRANCH  12  15
ATOM     15  C   UNL     1      -4.808   4.001  -0.640  0.00  0.00    -0.025 A 
ATOM     16  C   UNL     1      -4.506   4.717  -1.783  0.00  0.00    +0.005 A 
ATOM     17  C   UNL     1      -5.478   5.488  -2.392  0.00  0.00    +0.003 A 
ATOM     18  C   UNL     1      -6.749   5.551  -1.853  0.00  0.00    +0.033 A 
ATOM     19  C   UNL     1      -7.050   4.840  -0.707  0.00  0.00    +0.127 A 
ATOM     20  C   UNL     1      -6.079   4.064  -0.100  0.00  0.00    +0.038 A 
BRANCH  19  21
ATOM     21  N   UNL     1      -8.411   4.907  -0.129  0.00  0.00    +0.056 N 
ATOM     22  O   UNL     1      -8.675   4.280   0.881  0.00  0.00    -0.126 OA
ATOM     23  O   UNL     1      -9.266   5.590  -0.663  0.00  0.00    -0.126 OA
ENDBRANCH  19  21
ENDBRANCH  12  15
BRANCH   1  24
ATOM     24  S   UNL     1       2.713   0.916  -0.016  0.00  0.00    +0.058 S 
ATOM     25  O   UNL     1       3.682   1.800   0.530  0.00  0.00    -0.153 OA
ATOM     26  O   UNL     1       2.461  -0.370   0.532  0.00  0.00    -0.153 OA
BRANCH  24  27
ATOM     27  N   UNL     1       3.126   0.682  -1.603  0.00  0.00    -0.190 NA
ATOM     28  H   UNL     1       3.170  -0.216  -1.965  0.00  0.00    +0.148 HD
BRANCH  27  29
ATOM     29  C   UNL     1       3.424   1.833  -2.459  0.00  0.00    +0.110 C 
BRANCH  29  30
ATOM     30  C   UNL     1       4.125   1.353  -3.732  0.00  0.00    +0.052 C 
BRANCH  30  34
ATOM     31  C   UNL     1       4.997   4.707  -6.229  0.00  0.00    +0.000 A 
ATOM     32  C   UNL     1       5.918   4.290  -5.287  0.00  0.00    +0.000 A 
ATOM     33  C   UNL     1       5.636   3.204  -4.479  0.00  0.00    +0.003 A 
ATOM     34  C   UNL     1       4.433   2.537  -4.613  0.00  0.00    -0.046 A 
ATOM     35  C   UNL     1       3.514   2.951  -5.559  0.00  0.00    +0.003 A 
ATOM     36  C   UNL     1       3.794   4.039  -6.364  0.00  0.00    +0.000 A 
ENDBRANCH  30  34
ENDBRANCH  29  30
ENDBRANCH  27  29
ENDBRANCH  24  27
ENDBRANCH   1  24
TORSDOF 7
