REMARK  Name = ZINC09066730
REMARK  16 active torsions:
REMARK  status: ('A' for Active; 'I' for Inactive)
REMARK    1  A    between atoms: C_1  and  C_2
REMARK    2  A    between atoms: C_2  and  N_70
REMARK    3  A    between atoms: C_3  and  C_4
REMARK    4  A    between atoms: C_3  and  N_70
REMARK    5  A    between atoms: C_5  and  C_6
REMARK    6  A    between atoms: C_5  and  N_70
REMARK    7  A    between atoms: C_6  and  N_7
REMARK    8  A    between atoms: C_8  and  C_25
REMARK    9  A    between atoms: C_11  and  C_12
REMARK   10  A    between atoms: C_11  and  O_20
REMARK   11  A    between atoms: C_15  and  O_18
REMARK   12  A    between atoms: O_18  and  C_19
REMARK   13  A    between atoms: C_28  and  C_31
REMARK   14  A    between atoms: C_31  and  C_32
REMARK   15  A    between atoms: C_31  and  C_33
REMARK   16  A    between atoms: C_31  and  C_34
REMARK                            x       y       z     vdW  Elec       q    Type
REMARK                         _______ _______ _______ _____ _____    ______ ____
ROOT
ATOM      1  N   UNL     1       3.745  -4.891  -0.676  0.00  0.00    -0.285 N 
ATOM      2  C   UNL     1       2.279  -4.904  -0.692  0.00  0.00    +0.144 C 
ATOM      3  C   UNL     1       1.833  -3.461  -0.649  0.00  0.00    +0.071 C 
ATOM      4  C   UNL     1       0.533  -2.994  -0.649  0.00  0.00    +0.133 C 
ATOM      5  C   UNL     1       3.005  -2.691  -0.604  0.00  0.00    +0.249 C 
ATOM      6  O   UNL     1       3.060  -1.476  -0.558  0.00  0.00    -0.282 OA
ATOM      7  C   UNL     1       4.170  -3.617  -0.622  0.00  0.00    +0.288 C 
ATOM      8  O   UNL     1       5.333  -3.273  -0.592  0.00  0.00    -0.266 OA
ENDROOT
BRANCH   4   9
ATOM      9  C   UNL     1       0.271  -1.549  -0.736  0.00  0.00    +0.017 A 
ATOM     10  C   UNL     1       0.923  -0.773  -1.702  0.00  0.00    +0.015 A 
ATOM     11  C   UNL     1       0.674   0.578  -1.778  0.00  0.00    +0.046 A 
ATOM     12  C   UNL     1      -0.224   1.173  -0.898  0.00  0.00    +0.120 A 
ATOM     13  C   UNL     1      -0.875   0.407   0.063  0.00  0.00    +0.046 A 
ATOM     14  C   UNL     1      -0.632  -0.945   0.148  0.00  0.00    +0.015 A 
BRANCH  12  15
ATOM     15  O   UNL     1      -0.466   2.506  -0.978  0.00  0.00    -0.495 OA
ATOM     16  C   UNL     1      -1.400   3.053  -0.044  0.00  0.00    +0.277 C 
ENDBRANCH  12  15
ENDBRANCH   4   9
BRANCH   2  17
ATOM     17  C   UNL     1       1.785  -5.560  -1.955  0.00  0.00    -0.022 A 
ATOM     18  C   UNL     1       2.437  -5.332  -3.153  0.00  0.00    +0.006 A 
ATOM     19  C   UNL     1       1.986  -5.938  -4.311  0.00  0.00    +0.004 A 
ATOM     20  C   UNL     1       0.878  -6.763  -4.273  0.00  0.00    -0.042 A 
ATOM     21  C   UNL     1       0.223  -6.987  -3.076  0.00  0.00    +0.004 A 
ATOM     22  C   UNL     1       0.677  -6.385  -1.917  0.00  0.00    +0.006 A 
BRANCH  20  23
ATOM     23  C   UNL     1       0.384  -7.420  -5.537  0.00  0.00    -0.013 C 
ATOM     24  C   UNL     1      -1.053  -6.975  -5.814  0.00  0.00    +0.015 C 
ATOM     25  C   UNL     1       1.279  -7.010  -6.708  0.00  0.00    +0.015 C 
ATOM     26  C   UNL     1       0.425  -8.940  -5.371  0.00  0.00    +0.015 C 
ENDBRANCH  20  23
ENDBRANCH   2  17
BRANCH   4  27
ATOM     27  O   UNL     1      -0.497  -3.863  -0.570  0.00  0.00    -0.506 OA
ATOM     28  H   UNL     1      -1.360  -3.359  -0.583  0.00  0.00    +0.292 HD
ENDBRANCH   4  27
BRANCH   1  29
ATOM     29  C   UNL     1       4.607  -6.075  -0.708  0.00  0.00    +0.090 C 
BRANCH  29  30
ATOM     30  C   UNL     1       4.887  -6.541   0.722  0.00  0.00    -0.060 C 
BRANCH  30  31
ATOM     31  N   UNL     1       5.775  -7.722   0.673  0.00  0.00    +0.380 N 
ATOM     32  H   UNL     1       6.591  -7.502   0.090  0.00  0.00    -0.082 HD
BRANCH  31  34
ATOM     33  C   UNL     1       7.341  -7.086   2.438  0.00  0.00    -0.017 C 
ATOM     34  C   UNL     1       6.236  -8.064   2.035  0.00  0.00    -0.082 C 
ENDBRANCH  31  34
BRANCH  31  35
ATOM     35  C   UNL     1       5.056  -8.870   0.080  0.00  0.00    -0.082 C 
ATOM     36  C   UNL     1       6.077  -9.943  -0.304  0.00  0.00    -0.017 C 
ENDBRANCH  31  35
ENDBRANCH  30  31
ENDBRANCH  29  30
ENDBRANCH   1  29
TORSDOF 10
