REMARK  Name = ZINC36534318
REMARK  17 active torsions:
REMARK  status: ('A' for Active; 'I' for Inactive)
REMARK    1  A    between atoms: C_1  and  C_2
REMARK    2  A    between atoms: C_2  and  C_3
REMARK    3  A    between atoms: C_2  and  C_4
REMARK    4  A    between atoms: C_2  and  C_5
REMARK    5  A    between atoms: C_5  and  C_6
REMARK    6  A    between atoms: C_6  and  C_7
REMARK    7  A    between atoms: C_6  and  C_8
REMARK    8  A    between atoms: C_6  and  N_9
REMARK    9  A    between atoms: C_10  and  C_12
REMARK   10  A    between atoms: C_12  and  C_14
REMARK   11  A    between atoms: C_12  and  N_23
REMARK   12  A    between atoms: C_15  and  O_22
REMARK   13  A    between atoms: C_17  and  O_21
REMARK   14  A    between atoms: C_19  and  O_20
REMARK   15  A    between atoms: N_23  and  C_24
REMARK   16  A    between atoms: C_25  and  C_27
REMARK   17  A    between atoms: C_27  and  C_28
REMARK                            x       y       z     vdW  Elec       q    Type
REMARK                         _______ _______ _______ _____ _____    ______ ____
ROOT
ATOM      1  C   UNL     1       5.441  -1.113  -3.817  0.00  0.00    +0.199 C 
ENDROOT
BRANCH   1   2
ATOM      2  C   UNL     1       5.417  -2.432  -4.546  0.00  0.00    +0.065 A 
ATOM      3  C   UNL     1       5.821  -3.589  -3.899  0.00  0.00    +0.129 A 
ATOM      4  C   UNL     1       5.799  -4.803  -4.570  0.00  0.00    +0.091 A 
ATOM      5  C   UNL     1       5.372  -4.859  -5.888  0.00  0.00    +0.124 A 
ATOM      6  C   UNL     1       4.967  -3.701  -6.535  0.00  0.00    +0.091 A 
ATOM      7  C   UNL     1       4.985  -2.488  -5.863  0.00  0.00    +0.129 A 
BRANCH   7   8
ATOM      8  O   UNL     1       4.583  -1.355  -6.496  0.00  0.00    -0.506 OA
ATOM      9  H   UNL     1       5.295  -0.888  -6.956  0.00  0.00    +0.292 HD
ENDBRANCH   7   8
BRANCH   5  10
ATOM     10  O   UNL     1       5.351  -6.048  -6.545  0.00  0.00    -0.507 OA
ATOM     11  H   UNL     1       4.516  -6.529  -6.462  0.00  0.00    +0.292 HD
ENDBRANCH   5  10
BRANCH   3  12
ATOM     12  O   UNL     1       6.240  -3.535  -2.607  0.00  0.00    -0.506 OA
ATOM     13  H   UNL     1       5.549  -3.735  -1.961  0.00  0.00    +0.292 HD
ENDBRANCH   3  12
ENDBRANCH   1   2
BRANCH   1  15
ATOM     14  N   UNL     1       3.489  -1.659  -2.399  0.00  0.00    -0.308 N 
ATOM     15  C   UNL     1       4.777  -1.270  -2.473  0.00  0.00    +0.239 C 
ATOM     16  O   UNL     1       5.403  -1.045  -1.459  0.00  0.00    -0.273 OA
ATOM     17  H   UNL     1       2.989  -1.838  -3.211  0.00  0.00    +0.149 HD
BRANCH  14  18
ATOM     18  C   UNL     1       2.844  -1.811  -1.093  0.00  0.00    +0.030 C 
ATOM     19  C   UNL     1       2.925  -0.489  -0.327  0.00  0.00    +0.031 C 
ATOM     20  C   UNL     1       3.557  -2.906  -0.297  0.00  0.00    +0.031 C 
BRANCH  18  21
ATOM     21  C   UNL     1       1.377  -2.197  -1.290  0.00  0.00    +0.031 C 
BRANCH  21  23
ATOM     22  C   UNL     1       0.858  -2.117  -3.733  0.00  0.00    +0.010 C 
ATOM     23  C   UNL     1       0.773  -1.350  -2.412  0.00  0.00    -0.036 C 
ATOM     24  C   UNL     1       1.550  -0.037  -2.534  0.00  0.00    +0.010 C 
ATOM     25  C   UNL     1      -0.692  -1.047  -2.091  0.00  0.00    +0.010 C 
ENDBRANCH  21  23
ENDBRANCH  18  21
ENDBRANCH  14  18
ENDBRANCH   1  15
BRANCH   1  26
ATOM     26  N   UNL     1       6.829  -0.684  -3.629  0.00  0.00    -0.289 N 
ATOM     27  C   UNL     1       7.692  -1.391  -2.680  0.00  0.00    +0.133 C 
ATOM     28  C   UNL     1       7.313   0.360  -4.330  0.00  0.00    +0.221 C 
ATOM     29  O   UNL     1       6.599   0.946  -5.117  0.00  0.00    -0.275 OA
BRANCH  28  30
ATOM     30  C   UNL     1       8.741   0.801  -4.137  0.00  0.00    +0.131 C 
BRANCH  30  31
ATOM     31  C   UNL     1       9.028   1.980  -5.031  0.00  0.00    -0.035 A 
ATOM     32  C   UNL     1       9.502   1.774  -6.313  0.00  0.00    +0.008 A 
ATOM     33  C   UNL     1       9.767   2.852  -7.137  0.00  0.00    +0.050 A 
ATOM     34  C   UNL     1       9.557   4.143  -6.679  0.00  0.00    +0.166 A 
ATOM     35  C   UNL     1       9.080   4.350  -5.388  0.00  0.00    +0.166 A 
ATOM     36  C   UNL     1       8.812   3.265  -4.569  0.00  0.00    +0.053 A 
ATOM     37  O   UNL     1       8.959   5.694  -5.178  0.00  0.00    -0.453 OA
ATOM     38  C   UNL     1       9.752   6.316  -6.206  0.00  0.00    +0.466 C 
ATOM     39  O   UNL     1       9.736   5.356  -7.279  0.00  0.00    -0.453 OA
ENDBRANCH  30  31
ENDBRANCH  28  30
ENDBRANCH   1  26
TORSDOF 11
