REMARK  Name = ZINC34685765
REMARK  10 active torsions:
REMARK  status: ('A' for Active; 'I' for Inactive)
REMARK    1  A    between atoms: C_1  and  C_2
REMARK    2  A    between atoms: C_2  and  C_3
REMARK    3  A    between atoms: C_2  and  C_4
REMARK    4  A    between atoms: C_2  and  C_5
REMARK    5  A    between atoms: C_13  and  O_25
REMARK    6  A    between atoms: C_16  and  C_18
REMARK    7  A    between atoms: O_25  and  C_26
REMARK    8  A    between atoms: C_26  and  C_27
REMARK    9  A    between atoms: C_30  and  C_32
REMARK   10  A    between atoms: N_37  and  C_40
REMARK                            x       y       z     vdW  Elec       q    Type
REMARK                         _______ _______ _______ _____ _____    ______ ____
ROOT
ATOM      1  C   UNL     1       0.153  -0.255  -0.875  0.00  0.00    +0.222 C 
ATOM      2  O   UNL     1       0.708   0.564  -1.577  0.00  0.00    -0.275 OA
ATOM      3  N   UNL     1       0.226  -1.565  -1.181  0.00  0.00    -0.290 N 
ATOM      4  C   UNL     1      -0.353  -2.591  -0.297  0.00  0.00    +0.113 C 
ATOM      5  C   UNL     1      -1.484  -3.282  -1.057  0.00  0.00    +0.054 C 
ATOM      6  C   UNL     1      -1.041  -3.666  -2.445  0.00  0.00    -0.040 A 
ATOM      7  C   UNL     1      -1.767  -4.653  -3.102  0.00  0.00    +0.007 A 
ATOM      8  C   UNL     1      -1.424  -5.047  -4.377  0.00  0.00    +0.046 A 
ATOM      9  C   UNL     1      -0.344  -4.452  -5.015  0.00  0.00    +0.121 A 
ATOM     10  C   UNL     1       0.381  -3.471  -4.360  0.00  0.00    +0.051 A 
ATOM     11  C   UNL     1       0.036  -3.082  -3.074  0.00  0.00    -0.016 A 
ATOM     12  C   UNL     1       0.878  -2.026  -2.411  0.00  0.00    +0.137 C 
ENDROOT
BRANCH  12  13
ATOM     13  C   UNL     1       2.228  -2.607  -2.075  0.00  0.00    -0.020 A 
ATOM     14  C   UNL     1       2.315  -3.755  -1.309  0.00  0.00    +0.006 A 
ATOM     15  C   UNL     1       3.552  -4.289  -1.000  0.00  0.00    +0.003 A 
ATOM     16  C   UNL     1       4.704  -3.675  -1.456  0.00  0.00    +0.038 A 
ATOM     17  C   UNL     1       4.617  -2.526  -2.223  0.00  0.00    +0.124 A 
ATOM     18  C   UNL     1       3.377  -1.995  -2.537  0.00  0.00    +0.044 A 
ATOM     19  F   UNL     1       5.742  -1.925  -2.669  0.00  0.00    -0.205 F 
ENDBRANCH  12  13
BRANCH   1  21
ATOM     20  C   UNL     1      -0.661   1.722   0.381  0.00  0.00    +0.020 C 
ATOM     21  C   UNL     1      -0.617   0.193   0.340  0.00  0.00    +0.039 C 
ATOM     22  C   UNL     1       0.071  -0.331   1.603  0.00  0.00    +0.020 C 
ATOM     23  C   UNL     1      -2.043  -0.356   0.271  0.00  0.00    +0.020 C 
ENDBRANCH   1  21
BRANCH   9  24
ATOM     24  O   UNL     1      -0.001  -4.830  -6.274  0.00  0.00    -0.484 OA
BRANCH  24  25
ATOM     25  C   UNL     1      -0.795  -5.849  -6.885  0.00  0.00    +0.303 C 
BRANCH  25  26
ATOM     26  C   UNL     1      -0.269  -6.135  -8.268  0.00  0.00    +0.143 A 
ATOM     27  C   UNL     1       0.670  -7.057  -8.577  0.00  0.00    +0.049 A 
ATOM     28  C   UNL     1       0.865  -6.997  -9.966  0.00  0.00    +0.055 A 
ATOM     29  C   UNL     1       0.025  -6.030 -10.439  0.00  0.00    +0.190 A 
ATOM     30  O   UNL     1      -0.658  -5.522  -9.393  0.00  0.00    -0.452 OA
BRANCH  29  31
ATOM     31  C   UNL     1      -0.113  -5.618 -11.840  0.00  0.00    +0.282 C 
ATOM     32  O   UNL     1       0.475  -6.228 -12.714  0.00  0.00    -0.267 OA
ATOM     33  N   UNL     1      -0.891  -4.565 -12.160  0.00  0.00    -0.299 N 
ATOM     34  C   UNL     1      -1.490  -3.722 -11.113  0.00  0.00    +0.089 C 
ATOM     35  C   UNL     1      -1.181  -2.256 -11.435  0.00  0.00    -0.060 C 
ATOM     36  N   UNL     1      -1.637  -1.948 -12.796  0.00  0.00    +0.380 N 
ATOM     37  C   UNL     1      -0.871  -2.736 -13.770  0.00  0.00    -0.060 C 
ATOM     38  C   UNL     1      -1.159  -4.222 -13.565  0.00  0.00    +0.089 C 
ATOM     39  C   UNL     1      -1.441  -0.517 -13.064  0.00  0.00    -0.096 C 
ATOM     40  H   UNL     1      -2.617  -2.173 -12.880  0.00  0.00    -0.082 HD
ENDBRANCH  29  31
ENDBRANCH  25  26
ENDBRANCH  24  25
ENDBRANCH   9  24
TORSDOF 6
