REMARK  Name = ZINC02408591
REMARK  9 active torsions:
REMARK  status: ('A' for Active; 'I' for Inactive)
REMARK    1  A    between atoms: C_1  and  C_2
REMARK    2  A    between atoms: C_2  and  C_3
REMARK    3  A    between atoms: C_2  and  C_4
REMARK    4  A    between atoms: C_7  and  C_10
REMARK    5  A    between atoms: C_24  and  S_37
REMARK    6  A    between atoms: C_27  and  C_29
REMARK    7  A    between atoms: C_32  and  O_35
REMARK    8  A    between atoms: O_35  and  C_36
REMARK    9  A    between atoms: S_37  and  C_38
REMARK                            x       y       z     vdW  Elec       q    Type
REMARK                         _______ _______ _______ _____ _____    ______ ____
ROOT
ATOM      1  C   UNL     1      -5.419  -2.005   0.043  0.00  0.00    +0.234 C 
ATOM      2  C   UNL     1      -5.436  -3.378   0.649  0.00  0.00    +0.025 C 
ATOM      3  C   UNL     1      -5.277  -4.472  -0.124  0.00  0.00    +0.058 C 
ATOM      4  C   UNL     1      -5.099  -4.259  -1.583  0.00  0.00    +0.040 A 
ATOM      5  C   UNL     1      -4.611  -5.263  -2.408  0.00  0.00    +0.013 A 
ATOM      6  C   UNL     1      -4.460  -5.020  -3.760  0.00  0.00    +0.001 A 
ATOM      7  C   UNL     1      -4.792  -3.785  -4.289  0.00  0.00    +0.004 A 
ATOM      8  C   UNL     1      -5.280  -2.781  -3.473  0.00  0.00    +0.046 A 
ATOM      9  C   UNL     1      -5.437  -3.009  -2.118  0.00  0.00    +0.131 A 
ATOM     10  O   UNL     1      -5.918  -2.048  -1.295  0.00  0.00    -0.479 OA
ATOM     11  N   UNL     1      -5.282  -5.720   0.404  0.00  0.00    -0.326 N 
ATOM     12  C   UNL     1      -5.445  -5.984   1.683  0.00  0.00    +0.216 C 
ATOM     13  N   UNL     1      -5.477  -7.146   2.359  0.00  0.00    -0.192 NA
ATOM     14  C   UNL     1      -5.668  -6.924   3.644  0.00  0.00    +0.174 C 
ATOM     15  N   UNL     1      -5.769  -5.574   3.855  0.00  0.00    -0.239 N 
ATOM     16  N   UNL     1      -5.625  -4.970   2.604  0.00  0.00    -0.209 N 
ATOM     17  C   UNL     1      -5.630  -3.578   2.135  0.00  0.00    +0.159 C 
ATOM     18  H   UNL     1      -5.157  -6.468  -0.200  0.00  0.00    +0.169 HD
ATOM     19  H   UNL     1      -5.913  -5.127   4.704  0.00  0.00    +0.172 HD
ENDROOT
BRANCH   1  23
ATOM     20  C   UNL     1      -1.412  -0.526   0.013  0.00  0.00    -0.045 A 
ATOM     21  C   UNL     1      -2.259  -0.204   1.056  0.00  0.00    +0.004 A 
ATOM     22  C   UNL     1      -3.556  -0.683   1.066  0.00  0.00    +0.008 A 
ATOM     23  C   UNL     1      -4.006  -1.482   0.032  0.00  0.00    -0.003 A 
ATOM     24  C   UNL     1      -3.159  -1.803  -1.012  0.00  0.00    +0.008 A 
ATOM     25  C   UNL     1      -1.863  -1.321  -1.024  0.00  0.00    +0.004 A 
BRANCH  20  27
ATOM     26  C   UNL     1      -0.019   1.526   0.010  0.00  0.00    +0.012 C 
ATOM     27  C   UNL     1       0.002  -0.004   0.002  0.00  0.00    +0.013 C 
ATOM     28  C   UNL     1       0.742  -0.511   1.242  0.00  0.00    +0.012 C 
ENDBRANCH  20  27
ENDBRANCH   1  23
BRANCH  17  29
ATOM     29  C   UNL     1      -6.946  -2.956   2.526  0.00  0.00    -0.021 A 
ATOM     30  C   UNL     1      -8.127  -3.640   2.302  0.00  0.00    +0.009 A 
ATOM     31  C   UNL     1      -9.334  -3.071   2.659  0.00  0.00    +0.046 A 
ATOM     32  C   UNL     1      -9.362  -1.813   3.241  0.00  0.00    +0.120 A 
ATOM     33  C   UNL     1      -8.176  -1.128   3.465  0.00  0.00    +0.046 A 
ATOM     34  C   UNL     1      -6.971  -1.703   3.111  0.00  0.00    +0.009 A 
BRANCH  32  35
ATOM     35  O   UNL     1     -10.548  -1.251   3.592  0.00  0.00    -0.495 OA
ATOM     36  C   UNL     1     -10.501   0.047   4.187  0.00  0.00    +0.277 C 
ENDBRANCH  32  35
ENDBRANCH  17  29
BRANCH  14  37
ATOM     37  S   UNL     1      -5.776  -8.165   4.891  0.00  0.00    -0.092 S 
ATOM     38  C   UNL     1      -5.566  -9.720   3.982  0.00  0.00    +0.093 C 
ENDBRANCH  14  37
TORSDOF 5
