REMARK  Name = ZINC08790257
REMARK  7 active torsions:
REMARK  status: ('A' for Active; 'I' for Inactive)
REMARK    1  A    between atoms: C_1  and  C_2
REMARK    2  A    between atoms: C_17  and  C_19
REMARK    3  A    between atoms: C_19  and  C_20
REMARK    4  A    between atoms: C_23  and  O_26
REMARK    5  A    between atoms: N_29  and  C_32
REMARK    6  A    between atoms: C_32  and  C_33
REMARK    7  A    between atoms: C_33  and  C_34
REMARK                            x       y       z     vdW  Elec       q    Type
REMARK                         _______ _______ _______ _____ _____    ______ ____
ROOT
ATOM      1  C   UNL     1      -6.084  -3.930   2.525  0.00  0.00    +0.044 C 
ATOM      2  C   UNL     1      -5.835  -4.308   1.088  0.00  0.00    -0.049 A 
ATOM      3  C   UNL     1      -4.573  -4.709   0.685  0.00  0.00    +0.008 A 
ATOM      4  C   UNL     1      -4.345  -5.053  -0.629  0.00  0.00    -0.026 A 
ATOM      5  C   UNL     1      -5.376  -5.005  -1.563  0.00  0.00    +0.054 A 
ATOM      6  C   UNL     1      -6.643  -4.600  -1.149  0.00  0.00    +0.063 A 
ATOM      7  C   UNL     1      -6.866  -4.254   0.169  0.00  0.00    +0.025 A 
ATOM      8 CL   UNL     1      -7.946  -4.530  -2.295  0.00  0.00    -0.082 Cl
ATOM      9  N   UNL     1      -4.907  -5.398  -2.819  0.00  0.00    -0.285 N 
ATOM     10  C   UNL     1      -3.598  -5.715  -2.797  0.00  0.00    +0.211 C 
ATOM     11  O   UNL     1      -2.928  -6.088  -3.736  0.00  0.00    -0.277 OA
ATOM     12  C   UNL     1      -3.130  -5.516  -1.381  0.00  0.00    +0.050 C 
ATOM     13  C   UNL     1      -2.558  -6.810  -0.792  0.00  0.00    +0.088 C 
ATOM     14  C   UNL     1      -1.379  -6.346   0.107  0.00  0.00    +0.073 C 
ATOM     15  C   UNL     1      -1.375  -4.807  -0.011  0.00  0.00    -0.053 C 
ATOM     16  C   UNL     1      -1.811  -6.736   1.503  0.00  0.00    +0.224 C 
ATOM     17  O   UNL     1      -1.164  -6.556   2.512  0.00  0.00    -0.275 OA
ATOM     18  N   UNL     1      -3.033  -7.313   1.431  0.00  0.00    -0.241 N 
ATOM     19  C   UNL     1      -3.538  -7.403   0.195  0.00  0.00    +0.225 C 
ATOM     20  O   UNL     1      -4.613  -7.885  -0.089  0.00  0.00    -0.275 OA
ATOM     21  H   UNL     1      -5.461  -5.439  -3.615  0.00  0.00    +0.155 HD
ATOM     22  N   UNL     1      -2.050  -4.549  -1.285  0.00  0.00    +0.394 N 
ATOM     23  H   UNL     1      -2.426  -3.594  -1.300  0.00  0.00    -0.083 HD
ATOM     24  H   UNL     1      -1.394  -4.671  -2.065  0.00  0.00    -0.083 HD
ENDROOT
BRANCH  15  25
ATOM     25  C   UNL     1       0.060  -4.277  -0.021  0.00  0.00    +0.020 C 
BRANCH  25  26
ATOM     26  C   UNL     1       0.040  -2.770  -0.013  0.00  0.00    -0.049 A 
ATOM     27  C   UNL     1       0.042  -2.087   1.189  0.00  0.00    +0.007 A 
ATOM     28  C   UNL     1       0.023  -0.705   1.199  0.00  0.00    +0.045 A 
ATOM     29  C   UNL     1       0.002  -0.004   0.002  0.00  0.00    +0.117 A 
ATOM     30  C   UNL     1      -0.006  -0.692  -1.202  0.00  0.00    +0.045 A 
ATOM     31  C   UNL     1       0.019  -2.074  -1.207  0.00  0.00    +0.007 A 
BRANCH  29  32
ATOM     32  O   UNL     1      -0.016   1.355   0.009  0.00  0.00    -0.507 OA
ATOM     33  H   UNL     1       0.862   1.760   0.003  0.00  0.00    +0.292 HD
ENDBRANCH  29  32
ENDBRANCH  25  26
ENDBRANCH  15  25
BRANCH  18  34
ATOM     34  C   UNL     1      -3.743  -7.804   2.614  0.00  0.00    +0.121 C 
BRANCH  34  35
ATOM     35  C   UNL     1      -3.364  -9.265   2.865  0.00  0.00    +0.054 C 
BRANCH  35  36
ATOM     36  C   UNL     1      -4.094  -9.771   4.083  0.00  0.00    -0.046 A 
ATOM     37  C   UNL     1      -3.517  -9.654   5.333  0.00  0.00    +0.004 A 
ATOM     38  C   UNL     1      -4.189 -10.114   6.450  0.00  0.00    +0.000 A 
ATOM     39  C   UNL     1      -5.433 -10.701   6.316  0.00  0.00    +0.000 A 
ATOM     40  C   UNL     1      -6.008 -10.823   5.065  0.00  0.00    +0.000 A 
ATOM     41  C   UNL     1      -5.338 -10.358   3.948  0.00  0.00    +0.004 A 
ENDBRANCH  35  36
ENDBRANCH  34  35
ENDBRANCH  18  34
TORSDOF 6
