REMARK  Name = ZINC21247257
REMARK  10 active torsions:
REMARK  status: ('A' for Active; 'I' for Inactive)
REMARK    1  A    between atoms: C_1  and  O_2
REMARK    2  A    between atoms: O_2  and  C_3
REMARK    3  A    between atoms: C_8  and  C_9
REMARK    4  A    between atoms: C_14  and  C_24
REMARK    5  A    between atoms: C_26  and  O_34
REMARK    6  A    between atoms: C_27  and  O_32
REMARK    7  A    between atoms: C_28  and  O_30
REMARK    8  A    between atoms: O_30  and  C_31
REMARK    9  A    between atoms: O_32  and  C_33
REMARK   10  A    between atoms: O_34  and  C_35
REMARK                            x       y       z     vdW  Elec       q    Type
REMARK                         _______ _______ _______ _____ _____    ______ ____
ROOT
ATOM      1  C   UNL     1       0.739  -3.127  -1.377  0.00  0.00    +0.035 C 
ATOM      2  C   UNL     1       1.549  -4.158  -2.162  0.00  0.00    +0.060 C 
ATOM      3  C   UNL     1       0.616  -5.022  -2.996  0.00  0.00    +0.017 C 
ATOM      4  C   UNL     1      -0.615  -5.319  -2.549  0.00  0.00    +0.036 C 
ATOM      5  C   UNL     1      -1.632  -6.180  -3.258  0.00  0.00    +0.136 C 
ATOM      6  N   UNL     1      -1.301  -6.487  -4.633  0.00  0.00    -0.331 N 
ATOM      7  C   UNL     1      -0.181  -7.254  -4.951  0.00  0.00    +0.049 A 
ATOM      8  C   UNL     1      -0.305  -8.525  -5.489  0.00  0.00    +0.025 A 
ATOM      9  C   UNL     1       0.829  -9.293  -5.687  0.00  0.00    +0.002 A 
ATOM     10  C   UNL     1       2.076  -8.799  -5.353  0.00  0.00    +0.002 A 
ATOM     11  C   UNL     1       2.205  -7.521  -4.834  0.00  0.00    +0.025 A 
ATOM     12  C   UNL     1       1.074  -6.746  -4.652  0.00  0.00    +0.052 A 
ATOM     13  N   UNL     1       1.136  -5.441  -4.177  0.00  0.00    -0.316 N 
ATOM     14  C   UNL     1      -1.069  -4.800  -1.313  0.00  0.00    +0.163 C 
ATOM     15  O   UNL     1      -2.180  -5.102  -0.923  0.00  0.00    -0.292 OA
ATOM     16  C   UNL     1      -0.230  -3.891  -0.466  0.00  0.00    +0.088 C 
ATOM     17  H   UNL     1      -1.938  -6.114  -5.449  0.00  0.00    +0.147 HD
ATOM     18  H   UNL     1       1.651  -4.726  -4.836  0.00  0.00    +0.152 HD
ENDROOT
BRANCH   1  24
ATOM     19  C   UNL     1       1.711  -0.906  -0.739  0.00  0.00    +0.124 A 
ATOM     20  C   UNL     1       2.567  -0.128   0.027  0.00  0.00    +0.046 A 
ATOM     21  C   UNL     1       3.361  -0.720   0.989  0.00  0.00    +0.004 A 
ATOM     22  C   UNL     1       3.312  -2.089   1.183  0.00  0.00    +0.001 A 
ATOM     23  C   UNL     1       2.464  -2.867   0.417  0.00  0.00    +0.007 A 
ATOM     24  C   UNL     1       1.663  -2.279  -0.543  0.00  0.00    -0.002 A 
BRANCH  19  26
ATOM     25  C   UNL     1       1.025   1.093  -1.829  0.00  0.00    +0.277 C 
ATOM     26  O   UNL     1       0.924  -0.325  -1.683  0.00  0.00    -0.495 OA
ENDBRANCH  19  26
ENDBRANCH   1  24
BRANCH   5  27
ATOM     27  C   UNL     1      -1.774  -7.474  -2.500  0.00  0.00    -0.016 A 
ATOM     28  C   UNL     1      -2.993  -7.819  -1.947  0.00  0.00    +0.055 A 
ATOM     29  C   UNL     1      -3.130  -9.011  -1.253  0.00  0.00    +0.165 A 
ATOM     30  C   UNL     1      -2.037  -9.856  -1.105  0.00  0.00    +0.204 A 
ATOM     31  C   UNL     1      -0.811  -9.504  -1.658  0.00  0.00    +0.165 A 
ATOM     32  C   UNL     1      -0.684  -8.312  -2.355  0.00  0.00    +0.055 A 
BRANCH  31  33
ATOM     33  O   UNL     1       0.262 -10.327  -1.516  0.00  0.00    -0.491 OA
ATOM     34  C   UNL     1       1.490  -9.900  -2.110  0.00  0.00    +0.277 C 
ENDBRANCH  31  33
BRANCH  30  35
ATOM     35  O   UNL     1      -2.165 -11.026  -0.421  0.00  0.00    -0.488 OA
ATOM     36  C   UNL     1      -1.911 -10.987   0.984  0.00  0.00    +0.277 C 
ENDBRANCH  30  35
BRANCH  29  37
ATOM     37  O   UNL     1      -4.332  -9.352  -0.715  0.00  0.00    -0.491 OA
ATOM     38  C   UNL     1      -5.436  -8.491  -0.997  0.00  0.00    +0.277 C 
ENDBRANCH  29  37
ENDBRANCH   5  27
TORSDOF 6
