REMARK  Name = ZINC65183011
REMARK  10 active torsions:
REMARK  status: ('A' for Active; 'I' for Inactive)
REMARK    1  A    between atoms: C_1  and  N_2
REMARK    2  A    between atoms: N_2  and  C_3
REMARK    3  A    between atoms: C_3  and  C_4
REMARK    4  A    between atoms: C_4  and  C_5
REMARK    5  A    between atoms: C_8  and  C_11
REMARK    6  A    between atoms: C_22  and  C_24
REMARK    7  A    between atoms: C_27  and  O_32
REMARK    8  A    between atoms: C_29  and  O_30
REMARK    9  A    between atoms: O_30  and  C_31
REMARK   10  A    between atoms: O_32  and  C_33
REMARK                            x       y       z     vdW  Elec       q    Type
REMARK                         _______ _______ _______ _____ _____    ______ ____
ROOT
ATOM      1  C   UNL     1      -0.590  -1.511   3.283  0.00  0.00    +0.139 C 
ATOM      2  N   UNL     1       0.443  -2.205   3.598  0.00  0.00    -0.072 NA
ATOM      3  O   UNL     1       0.268  -2.837   4.852  0.00  0.00    -0.367 OA
ATOM      4  C   UNL     1      -1.037  -2.456   5.317  0.00  0.00    +0.318 C 
ATOM      5  N   UNL     1      -1.560  -1.581   4.256  0.00  0.00    -0.291 N 
ATOM      6  H   UNL     1      -2.423  -1.139   4.244  0.00  0.00    +0.151 HD
ENDROOT
BRANCH   4   7
ATOM      7  C   UNL     1      -1.925  -3.690   5.489  0.00  0.00    +0.165 C 
ATOM      8  C   UNL     1      -1.998  -4.464   4.192  0.00  0.00    +0.012 C 
ATOM      9  C   UNL     1      -1.490  -5.689   4.458  0.00  0.00    -0.002 A 
ATOM     10  C   UNL     1      -1.288  -6.883   3.628  0.00  0.00    +0.029 A 
ATOM     11  C   UNL     1      -0.743  -7.987   4.189  0.00  0.00    +0.042 A 
ATOM     12  C   UNL     1      -0.368  -8.019   5.541  0.00  0.00    +0.022 A 
ATOM     13  C   UNL     1      -0.523  -6.962   6.365  0.00  0.00    +0.027 A 
ATOM     14  C   UNL     1      -1.086  -5.749   5.881  0.00  0.00    +0.043 A 
ATOM     15  N   UNL     1      -1.335  -4.604   6.473  0.00  0.00    -0.373 N 
ATOM     16 CL   UNL     1      -0.503  -9.402   3.212  0.00  0.00    -0.084 Cl
ATOM     17  H   UNL     1      -1.159  -4.397   7.404  0.00  0.00    +0.160 HD
ENDBRANCH   4   7
BRANCH   1  18
ATOM     18  C   UNL     1      -0.720  -0.715   2.011  0.00  0.00    +0.094 C 
BRANCH  18  19
ATOM     19  C   UNL     1       0.551  -0.876   1.175  0.00  0.00    +0.115 C 
BRANCH  19  21
ATOM     20  C   UNL     1       0.868   1.294  -0.102  0.00  0.00    +0.132 C 
ATOM     21  N   UNL     1       0.424  -0.101  -0.062  0.00  0.00    -0.300 N 
ATOM     22  C   UNL     1      -0.102  -0.673  -1.163  0.00  0.00    +0.250 C 
ATOM     23  O   UNL     1      -0.557  -1.799  -1.106  0.00  0.00    -0.270 OA
BRANCH  22  24
ATOM     24  C   UNL     1      -0.124   0.066  -2.437  0.00  0.00    +0.079 A 
ATOM     25  C   UNL     1       0.999   0.792  -2.848  0.00  0.00    +0.020 A 
ATOM     26  C   UNL     1       0.974   1.480  -4.038  0.00  0.00    +0.046 A 
ATOM     27  C   UNL     1      -0.165   1.458  -4.838  0.00  0.00    +0.124 A 
ATOM     28  C   UNL     1      -1.284   0.742  -4.440  0.00  0.00    +0.092 A 
ATOM     29  C   UNL     1      -1.270   0.040  -3.247  0.00  0.00    +0.136 A 
BRANCH  29  30
ATOM     30  O   UNL     1      -2.361  -0.665  -2.859  0.00  0.00    -0.494 OA
ATOM     31  C   UNL     1      -3.491  -0.646  -3.734  0.00  0.00    +0.277 C 
ENDBRANCH  29  30
BRANCH  27  32
ATOM     32  O   UNL     1      -0.181   2.141  -6.010  0.00  0.00    -0.495 OA
ATOM     33  C   UNL     1       1.005   2.858  -6.360  0.00  0.00    +0.277 C 
ENDBRANCH  27  32
ENDBRANCH  22  24
ENDBRANCH  19  21
ENDBRANCH  18  19
ENDBRANCH   1  18
TORSDOF 7
