REMARK  Name = ZINC02071748
REMARK  6 active torsions:
REMARK  status: ('A' for Active; 'I' for Inactive)
REMARK    1  A    between atoms: C_1  and  O_2
REMARK    2  A    between atoms: O_2  and  C_3
REMARK    3  A    between atoms: C_6  and  C_20
REMARK    4  A    between atoms: C_8  and  N_9
REMARK    5  A    between atoms: C_10  and  C_11
REMARK    6  A    between atoms: C_16  and  O_17
REMARK                            x       y       z     vdW  Elec       q    Type
REMARK                         _______ _______ _______ _____ _____    ______ ____
ROOT
ATOM      1  C   UNL     1       0.849  -0.633  -0.947  0.00  0.00    +0.145 A 
ATOM      2  C   UNL     1       1.411   0.130  -1.960  0.00  0.00    +0.048 A 
ATOM      3  C   UNL     1       1.775  -0.458  -3.152  0.00  0.00    +0.017 A 
ATOM      4  C   UNL     1       1.581  -1.828  -3.350  0.00  0.00    +0.039 A 
ATOM      5  C   UNL     1       1.018  -2.604  -2.338  0.00  0.00    +0.044 A 
ATOM      6  C   UNL     1       0.655  -2.010  -1.132  0.00  0.00    +0.106 A 
ENDROOT
BRANCH   4   7
ATOM      7  C   UNL     1       1.973  -2.453  -4.630  0.00  0.00    +0.228 A 
ATOM      8  N   UNL     1       1.831  -3.722  -4.920  0.00  0.00    -0.209 NA
ATOM      9  C   UNL     1       2.297  -3.936  -6.177  0.00  0.00    +0.110 A 
ATOM     10  C   UNL     1       2.395  -5.069  -6.989  0.00  0.00    +0.031 A 
ATOM     11  C   UNL     1       2.931  -4.959  -8.253  0.00  0.00    +0.002 A 
ATOM     12  C   UNL     1       3.373  -3.732  -8.724  0.00  0.00    +0.004 A 
ATOM     13  C   UNL     1       3.284  -2.605  -7.933  0.00  0.00    +0.048 A 
ATOM     14  C   UNL     1       2.747  -2.696  -6.658  0.00  0.00    +0.156 A 
ATOM     15  O   UNL     1       2.523  -1.800  -5.671  0.00  0.00    -0.435 OA
ENDBRANCH   4   7
BRANCH   1  17
ATOM     16  C   UNL     1       0.718   1.357   0.344  0.00  0.00    +0.277 C 
ATOM     17  O   UNL     1       0.492  -0.049   0.225  0.00  0.00    -0.493 OA
ENDBRANCH   1  17
BRANCH   6  18
ATOM     18  N   UNL     1       0.107  -2.767  -0.132  0.00  0.00    -0.251 NA
ATOM     19  C   UNL     1       0.663  -3.894   0.213  0.00  0.00    +0.123 C 
BRANCH  19  20
ATOM     20  C   UNL     1       0.011  -4.764   1.203  0.00  0.00    +0.037 A 
ATOM     21  C   UNL     1       0.607  -5.972   1.579  0.00  0.00    +0.028 A 
ATOM     22  C   UNL     1      -0.010  -6.783   2.508  0.00  0.00    +0.020 A 
ATOM     23  C   UNL     1      -1.220  -6.406   3.071  0.00  0.00    +0.034 A 
ATOM     24  C   UNL     1      -1.820  -5.215   2.707  0.00  0.00    +0.061 A 
ATOM     25  C   UNL     1      -1.210  -4.385   1.779  0.00  0.00    +0.139 A 
ATOM     26 BR   UNL     1      -3.471  -4.715   3.481  0.00  0.00    -0.046 Br
ATOM     27 BR   UNL     1       0.796  -8.416   3.016  0.00  0.00    -0.050 Br
BRANCH  25  28
ATOM     28  O   UNL     1      -1.796  -3.212   1.425  0.00  0.00    -0.505 OA
ATOM     29  H   UNL     1      -2.400  -3.285   0.674  0.00  0.00    +0.292 HD
ENDBRANCH  25  28
ENDBRANCH  19  20
ENDBRANCH   6  18
TORSDOF 5
