REMARK  Name = ZINC29571789
REMARK  9 active torsions:
REMARK  status: ('A' for Active; 'I' for Inactive)
REMARK    1  A    between atoms: C_1  and  C_2
REMARK    2  A    between atoms: C_5  and  N_26
REMARK    3  A    between atoms: C_7  and  N_8
REMARK    4  A    between atoms: C_9  and  C_11
REMARK    5  A    between atoms: C_11  and  C_13
REMARK    6  A    between atoms: C_11  and  N_14
REMARK    7  A    between atoms: N_14  and  C_15
REMARK    8  A    between atoms: C_15  and  C_17
REMARK    9  A    between atoms: C_15  and  C_18
REMARK                            x       y       z     vdW  Elec       q    Type
REMARK                         _______ _______ _______ _____ _____    ______ ____
ROOT
ATOM      1  C   UNL     1       0.076  -4.039   1.041  0.00  0.00    +0.014 C 
ATOM      2  C   UNL     1       0.497  -3.937   2.508  0.00  0.00    -0.004 C 
ENDROOT
BRANCH   1   4
ATOM      3  N   UNL     1      -1.349  -6.028   1.405  0.00  0.00    -0.287 N 
ATOM      4  C   UNL     1      -1.241  -4.765   0.947  0.00  0.00    +0.203 C 
ATOM      5  O   UNL     1      -2.204  -4.213   0.458  0.00  0.00    -0.277 OA
ATOM      6  H   UNL     1      -0.456  -6.561   1.764  0.00  0.00    +0.155 HD
BRANCH   3  13
ATOM      7  C   UNL     1      -1.413  -8.871   1.315  0.00  0.00    +0.045 C 
ATOM      8  C   UNL     1      -2.673  -8.047   1.381  0.00  0.00    -0.029 A 
ATOM      9  C   UNL     1      -3.906  -8.670   1.405  0.00  0.00    +0.007 A 
ATOM     10  C   UNL     1      -5.063  -7.915   1.460  0.00  0.00    +0.033 A 
ATOM     11  C   UNL     1      -4.990  -6.534   1.497  0.00  0.00    +0.128 A 
ATOM     12  C   UNL     1      -3.760  -5.905   1.479  0.00  0.00    +0.056 A 
ATOM     13  C   UNL     1      -2.596  -6.662   1.424  0.00  0.00    +0.038 A 
BRANCH  11  14
ATOM     14  N   UNL     1      -6.230  -5.729   1.556  0.00  0.00    +0.056 N 
ATOM     15  O   UNL     1      -6.167  -4.513   1.588  0.00  0.00    -0.126 OA
ATOM     16  O   UNL     1      -7.315  -6.283   1.571  0.00  0.00    -0.126 OA
ENDBRANCH  11  14
ENDBRANCH   3  13
ENDBRANCH   1   4
BRANCH   1  17
ATOM     17  N   UNL     1      -0.068  -2.689   0.478  0.00  0.00    +0.391 N 
ATOM     18  H   UNL     1      -0.767  -2.719  -0.370  0.00  0.00    -0.084 HD
ATOM     19  H   UNL     1      -0.456  -2.009   1.250  0.00  0.00    -0.084 HD
BRANCH  17  20
ATOM     20  C   UNL     1       1.225  -2.176   0.005  0.00  0.00    -0.040 C 
ATOM     21  C   UNL     1       1.481  -2.673  -1.419  0.00  0.00    -0.009 C 
BRANCH  20  22
ATOM     22  C   UNL     1       1.202  -0.670   0.015  0.00  0.00    -0.026 A 
ATOM     23  C   UNL     1      -0.006   0.003   0.022  0.00  0.00    +0.007 A 
ATOM     24  C   UNL     1      -0.029   1.384   0.032  0.00  0.00    +0.039 A 
ATOM     25  C   UNL     1       1.158   2.097   0.035  0.00  0.00    +0.126 A 
ATOM     26  C   UNL     1       2.368   1.425   0.027  0.00  0.00    +0.076 A 
ATOM     27  C   UNL     1       2.390   0.041   0.017  0.00  0.00    +0.128 A 
ATOM     28  F   UNL     1       3.570  -0.616   0.010  0.00  0.00    -0.205 F 
ATOM     29  F   UNL     1       1.135   3.448   0.044  0.00  0.00    -0.205 F 
ENDBRANCH  20  22
ENDBRANCH  17  20
ENDBRANCH   1  17
TORSDOF 6
