REMARK  Name = ZINC34810761
REMARK  7 active torsions:
REMARK  status: ('A' for Active; 'I' for Inactive)
REMARK    1  A    between atoms: C_3  and  C_31
REMARK    2  A    between atoms: C_6  and  C_7
REMARK    3  A    between atoms: C_7  and  N_8
REMARK    4  A    between atoms: C_14  and  C_16
REMARK    5  A    between atoms: N_18  and  C_19
REMARK    6  A    between atoms: C_19  and  C_20
REMARK    7  A    between atoms: C_20  and  C_21
REMARK                            x       y       z     vdW  Elec       q    Type
REMARK                         _______ _______ _______ _____ _____    ______ ____
ROOT
ATOM      1  N   UNL     1      -1.726  -1.018  -1.368  0.00  0.00    -0.290 N 
ATOM      2  C   UNL     1      -2.583  -0.038  -2.025  0.00  0.00    +0.132 C 
ATOM      3  C   UNL     1      -2.230   0.159  -3.498  0.00  0.00    +0.163 C 
ATOM      4  N   UNL     1      -2.088  -1.152  -4.142  0.00  0.00    -0.257 N 
ATOM      5  C   UNL     1      -1.655  -2.251  -3.429  0.00  0.00    +0.124 A 
ATOM      6  C   UNL     1      -1.627  -3.302  -4.280  0.00  0.00    +0.067 A 
ATOM      7  C   UNL     1      -2.057  -2.783  -5.522  0.00  0.00    +0.148 A 
ATOM      8  N   UNL     1      -2.311  -1.495  -5.351  0.00  0.00    -0.166 NA
ATOM      9  C   UNL     1      -1.315  -2.144  -2.000  0.00  0.00    +0.265 C 
ATOM     10  O   UNL     1      -0.703  -3.020  -1.419  0.00  0.00    -0.268 OA
ENDROOT
BRANCH   7  11
ATOM     11  C   UNL     1      -2.198  -3.540  -6.783  0.00  0.00    +0.264 C 
ATOM     12  O   UNL     1      -1.931  -4.725  -6.814  0.00  0.00    -0.268 OA
ATOM     13  N   UNL     1      -2.622  -2.916  -7.900  0.00  0.00    -0.310 N 
ATOM     14  H   UNL     1      -2.834  -1.970  -7.876  0.00  0.00    +0.149 HD
BRANCH  13  15
ATOM     15  C   UNL     1      -2.761  -3.666  -9.151  0.00  0.00    +0.109 C 
BRANCH  15  16
ATOM     16  C   UNL     1      -3.254  -2.729 -10.256  0.00  0.00    +0.055 C 
BRANCH  16  17
ATOM     17  C   UNL     1      -3.397  -3.502 -11.542  0.00  0.00    -0.027 A 
ATOM     18  C   UNL     1      -2.364  -3.513 -12.460  0.00  0.00    +0.006 A 
ATOM     19  C   UNL     1      -2.494  -4.220 -13.640  0.00  0.00    +0.020 A 
ATOM     20  C   UNL     1      -3.660  -4.919 -13.902  0.00  0.00    +0.042 A 
ATOM     21  C   UNL     1      -4.694  -4.909 -12.984  0.00  0.00    +0.040 A 
ATOM     22  C   UNL     1      -4.560  -4.204 -11.801  0.00  0.00    +0.046 A 
ATOM     23 CL   UNL     1      -5.856  -4.195 -10.645  0.00  0.00    -0.083 Cl
ATOM     24 CL   UNL     1      -3.824  -5.807 -15.385  0.00  0.00    -0.083 Cl
ENDBRANCH  16  17
ENDBRANCH  15  16
ENDBRANCH  13  15
ENDBRANCH   7  11
BRANCH   1  25
ATOM     25  C   UNL     1      -1.293  -0.775   0.011  0.00  0.00    +0.143 C 
BRANCH  25  31
ATOM     26  C   UNL     1      -0.017   1.378   0.010  0.00  0.00    +0.006 A 
ATOM     27  C   UNL     1       1.171   2.086   0.002  0.00  0.00    +0.013 A 
ATOM     28  C   UNL     1       2.377   1.411  -0.013  0.00  0.00    +0.055 A 
ATOM     29  C   UNL     1       2.396   0.029  -0.020  0.00  0.00    +0.013 A 
ATOM     30  C   UNL     1       1.208  -0.679  -0.012  0.00  0.00    +0.006 A 
ATOM     31  C   UNL     1       0.002  -0.004   0.002  0.00  0.00    -0.030 A 
BRANCH  28  32
ATOM     32  C   UNL     1       3.672   2.182  -0.022  0.00  0.00    +0.417 C 
ATOM     33  F   UNL     1       4.086   2.414   1.294  0.00  0.00    -0.166 F 
ATOM     34  F   UNL     1       4.651   1.442  -0.695  0.00  0.00    -0.166 F 
ATOM     35  F   UNL     1       3.482   3.405  -0.674  0.00  0.00    -0.166 F 
ENDBRANCH  28  32
ENDBRANCH  25  31
ENDBRANCH   1  25
TORSDOF 7
