REMARK  Name = ZINC13501144
REMARK  10 active torsions:
REMARK  status: ('A' for Active; 'I' for Inactive)
REMARK    1  A    between atoms: C_1  and  C_2
REMARK    2  A    between atoms: C_2  and  C_3
REMARK    3  A    between atoms: C_3  and  C_5
REMARK    4  A    between atoms: C_3  and  N_66
REMARK    5  A    between atoms: N_9  and  C_10
REMARK    6  A    between atoms: C_10  and  C_11
REMARK    7  A    between atoms: C_18  and  C_19
REMARK    8  A    between atoms: C_18  and  N_66
REMARK    9  A    between atoms: C_23  and  C_31
REMARK   10  A    between atoms: C_32  and  N_66
REMARK                            x       y       z     vdW  Elec       q    Type
REMARK                         _______ _______ _______ _____ _____    ______ ____
ROOT
ATOM      1  N   UNL     1      -1.918   1.649   1.597  0.00  0.00    +0.391 N 
ATOM      2  H   UNL     1      -2.280   0.704   1.772  0.00  0.00    -0.080 HD
ENDROOT
BRANCH   1   3
ATOM      3  C   UNL     1      -2.423   2.558   2.648  0.00  0.00    -0.067 C 
ATOM      4  C   UNL     1      -1.714   2.254   3.983  0.00  0.00    -0.015 C 
ATOM      5  C   UNL     1      -2.826   2.420   5.050  0.00  0.00    -0.002 C 
ATOM      6  C   UNL     1      -4.071   1.833   4.340  0.00  0.00    -0.002 C 
ATOM      7  C   UNL     1      -3.921   2.290   2.874  0.00  0.00    -0.015 C 
ENDBRANCH   1   3
BRANCH   1   8
ATOM      8  C   UNL     1      -0.441   1.610   1.629  0.00  0.00    +0.003 C 
BRANCH   8   9
ATOM      9  C   UNL     1       0.023   0.342   0.962  0.00  0.00    +0.138 A 
ATOM     10  N   UNL     1      -0.594  -0.311   0.007  0.00  0.00    -0.115 NA
ATOM     11  N   UNL     1       0.119  -1.340  -0.296  0.00  0.00    -0.023 NA
ATOM     12  N   UNL     1       1.171  -1.365   0.445  0.00  0.00    -0.044 NA
ATOM     13  N   UNL     1       1.148  -0.345   1.234  0.00  0.00    -0.226 N 
BRANCH  13  14
ATOM     14  C   UNL     1       2.157   0.002   2.239  0.00  0.00    +0.182 C 
BRANCH  14  15
ATOM     15  C   UNL     1       1.801  -0.646   3.552  0.00  0.00    -0.026 A 
ATOM     16  C   UNL     1       1.007   0.028   4.461  0.00  0.00    +0.008 A 
ATOM     17  C   UNL     1       0.676  -0.567   5.664  0.00  0.00    +0.038 A 
ATOM     18  C   UNL     1       1.149  -1.833   5.963  0.00  0.00    +0.123 A 
ATOM     19  C   UNL     1       1.948  -2.505   5.054  0.00  0.00    +0.038 A 
ATOM     20  C   UNL     1       2.274  -1.910   3.849  0.00  0.00    +0.008 A 
ATOM     21  F   UNL     1       0.830  -2.413   7.141  0.00  0.00    -0.205 F 
ENDBRANCH  14  15
ENDBRANCH  13  14
ENDBRANCH   8   9
BRANCH   8  23
ATOM     22  C   UNL     1      -0.186   4.096   1.666  0.00  0.00    +0.002 C 
ATOM     23  C   UNL     1       0.141   2.817   0.891  0.00  0.00    -0.011 C 
ENDBRANCH   8  23
ENDBRANCH   1   8
BRANCH   1  24
ATOM     24  C   UNL     1      -2.383   2.103   0.270  0.00  0.00    -0.036 C 
BRANCH  24  25
ATOM     25  C   UNL     1      -3.846   1.770   0.130  0.00  0.00    +0.001 A 
ATOM     26  C   UNL     1      -4.780   2.731   0.336  0.00  0.00    +0.017 A 
ATOM     27  C   UNL     1      -6.193   2.375   0.192  0.00  0.00    -0.001 A 
ATOM     28  C   UNL     1      -7.202   3.323   0.391  0.00  0.00    +0.013 A 
ATOM     29  C   UNL     1      -8.511   2.959   0.248  0.00  0.00    -0.050 A 
ATOM     30  C   UNL     1      -8.849   1.656  -0.093  0.00  0.00    +0.005 A 
ATOM     31  C   UNL     1      -7.872   0.706  -0.294  0.00  0.00    +0.026 A 
ATOM     32  C   UNL     1      -6.532   1.053  -0.154  0.00  0.00    +0.049 A 
ATOM     33  N   UNL     1      -5.534   0.123  -0.351  0.00  0.00    -0.322 N 
ATOM     34  H   UNL     1      -5.769  -0.787  -0.589  0.00  0.00    +0.169 HD
ATOM     35  C   UNL     1      -4.239   0.461  -0.221  0.00  0.00    +0.251 A 
ATOM     36  O   UNL     1      -3.382  -0.387  -0.407  0.00  0.00    -0.268 OA
ATOM     37  C   UNL     1      -9.598   3.981   0.464  0.00  0.00    +0.044 C 
ENDBRANCH  24  25
ENDBRANCH   1  24
TORSDOF 8
