REMARK  Name = ZINC01423542
REMARK  5 active torsions:
REMARK  status: ('A' for Active; 'I' for Inactive)
REMARK    1  A    between atoms: C_1  and  N_2
REMARK    2  A    between atoms: C_5  and  C_10
REMARK    3  A    between atoms: C_13  and  O_16
REMARK    4  A    between atoms: N_19  and  C_21
REMARK    5  A    between atoms: C_26  and  N_27
REMARK                            x       y       z     vdW  Elec       q    Type
REMARK                         _______ _______ _______ _____ _____    ______ ____
ROOT
ATOM      1  C   UNL     1       5.518   1.824   2.650  0.00  0.00    +0.139 C 
ATOM      2  N   UNL     1       5.455   1.803   1.186  0.00  0.00    -0.260 N 
ATOM      3  C   UNL     1       4.393   1.182   0.594  0.00  0.00    +0.042 C 
ATOM      4  C   UNL     1       4.275   1.127  -0.749  0.00  0.00    +0.058 C 
ATOM      5  C   UNL     1       5.363   1.779  -1.578  0.00  0.00    +0.142 C 
ATOM      6  N   UNL     1       6.466   2.422  -0.845  0.00  0.00    -0.288 N 
ATOM      7  C   UNL     1       6.444   2.394   0.502  0.00  0.00    +0.307 C 
ATOM      8  O   UNL     1       7.350   2.923   1.117  0.00  0.00    -0.252 OA
ATOM      9  C   UNL     1       3.100   0.437  -1.110  0.00  0.00    +0.251 C 
ATOM     10  O   UNL     1       2.744   0.239  -2.257  0.00  0.00    -0.270 OA
ATOM     11  N   UNL     1       2.424   0.026  -0.022  0.00  0.00    -0.260 N 
ATOM     12  C   UNL     1       3.184   0.469   1.157  0.00  0.00    +0.165 C 
ATOM     13  H   UNL     1       7.191   2.856  -1.320  0.00  0.00    +0.151 HD
ENDROOT
BRANCH   5  14
ATOM     14  C   UNL     1       5.955   0.725  -2.478  0.00  0.00    -0.022 A 
ATOM     15  C   UNL     1       6.893  -0.160  -1.979  0.00  0.00    +0.009 A 
ATOM     16  C   UNL     1       7.434  -1.131  -2.800  0.00  0.00    +0.046 A 
ATOM     17  C   UNL     1       7.042  -1.210  -4.129  0.00  0.00    +0.117 A 
ATOM     18  C   UNL     1       6.105  -0.318  -4.628  0.00  0.00    +0.046 A 
ATOM     19  C   UNL     1       5.563   0.648  -3.802  0.00  0.00    +0.009 A 
BRANCH  17  20
ATOM     20  O   UNL     1       7.576  -2.161  -4.940  0.00  0.00    -0.507 OA
ATOM     21  H   UNL     1       8.380  -1.880  -5.399  0.00  0.00    +0.292 HD
ENDBRANCH  17  20
ENDBRANCH   5  14
BRANCH  11  22
ATOM     22  C   UNL     1       1.218  -0.687  -0.013  0.00  0.00    +0.058 A 
ATOM     23  C   UNL     1       1.230  -2.074  -0.020  0.00  0.00    +0.025 A 
ATOM     24  C   UNL     1       0.038  -2.775  -0.012  0.00  0.00    +0.002 A 
ATOM     25  C   UNL     1      -1.167  -2.098   0.003  0.00  0.00    +0.002 A 
ATOM     26  C   UNL     1      -1.188  -0.716   0.015  0.00  0.00    +0.024 A 
ATOM     27  C   UNL     1       0.002  -0.004   0.002  0.00  0.00    +0.046 A 
BRANCH  27  28
ATOM     28  N   UNL     1      -0.017   1.395   0.010  0.00  0.00    -0.357 N 
ATOM     29  H   UNL     1       0.817   1.891   0.004  0.00  0.00    +0.142 HD
ATOM     30  H   UNL     1      -0.863   1.869   0.016  0.00  0.00    +0.142 HD
ENDBRANCH  27  28
ENDBRANCH  11  22
TORSDOF 4
