REMARK  Name = ZINC22673164
REMARK  10 active torsions:
REMARK  status: ('A' for Active; 'I' for Inactive)
REMARK    1  A    between atoms: C_1  and  C_2
REMARK    2  A    between atoms: C_2  and  C_4
REMARK    3  A    between atoms: C_2  and  S_15
REMARK    4  A    between atoms: N_6  and  C_7
REMARK    5  A    between atoms: C_7  and  C_13
REMARK    6  A    between atoms: S_15  and  C_16
REMARK    7  A    between atoms: C_19  and  C_28
REMARK    8  A    between atoms: N_20  and  C_21
REMARK    9  A    between atoms: C_21  and  C_22
REMARK   10  A    between atoms: C_28  and  N_29
REMARK                            x       y       z     vdW  Elec       q    Type
REMARK                         _______ _______ _______ _____ _____    ______ ____
ROOT
ATOM      1  C   UNL     1       3.668   1.636  -2.182  0.00  0.00    +0.193 A 
ATOM      2  N   UNL     1       3.795   1.047  -3.349  0.00  0.00    -0.123 NA
ATOM      3  N   UNL     1       3.165  -0.073  -3.343  0.00  0.00    -0.135 NA
ATOM      4  C   UNL     1       2.609  -0.268  -2.181  0.00  0.00    +0.118 A 
ATOM      5  N   UNL     1       2.903   0.816  -1.402  0.00  0.00    -0.303 N 
ENDROOT
BRANCH   1   6
ATOM      6  S   UNL     1       4.354   3.189  -1.712  0.00  0.00    -0.074 S 
BRANCH   6   8
ATOM      7  C   UNL     1       6.332   2.636  -3.513  0.00  0.00    +0.029 C 
ATOM      8  C   UNL     1       5.204   3.635  -3.247  0.00  0.00    +0.137 C 
BRANCH   8   9
ATOM      9  C   UNL     1       5.780   5.021  -3.117  0.00  0.00    +0.227 C 
ATOM     10  O   UNL     1       6.044   5.468  -2.021  0.00  0.00    -0.275 OA
ATOM     11  N   UNL     1       6.002   5.764  -4.220  0.00  0.00    -0.296 N 
ATOM     12  H   UNL     1       5.763   5.358  -5.214  0.00  0.00    +0.150 HD
BRANCH  11  13
ATOM     13  C   UNL     1       6.562   7.112  -4.094  0.00  0.00    +0.121 C 
ATOM     14  C   UNL     1       5.626   7.976  -3.248  0.00  0.00    +0.041 C 
ATOM     15  C   UNL     1       6.211   9.384  -3.117  0.00  0.00    +0.003 C 
ATOM     16  C   UNL     1       6.362  10.005  -4.507  0.00  0.00    +0.000 C 
ATOM     17  C   UNL     1       7.299   9.140  -5.353  0.00  0.00    +0.003 C 
ATOM     18  C   UNL     1       6.714   7.733  -5.484  0.00  0.00    +0.041 C 
BRANCH  13  19
ATOM     19  C   UNL     1       7.881   7.036  -3.444  0.00  0.00    +0.088 C 
ATOM     20  N   UNL     1       8.899   6.978  -2.942  0.00  0.00    -0.194 NA
ENDBRANCH  13  19
ENDBRANCH  11  13
ENDBRANCH   8   9
ENDBRANCH   6   8
ENDBRANCH   1   6
BRANCH   5  21
ATOM     21  C   UNL     1       2.490   1.048  -0.016  0.00  0.00    +0.160 C 
BRANCH  21  22
ATOM     22  C   UNL     1       1.175   1.783   0.000  0.00  0.00    -0.028 A 
ATOM     23  C   UNL     1      -0.013   1.076   0.008  0.00  0.00    +0.005 A 
ATOM     24  C   UNL     1      -1.219   1.751   0.017  0.00  0.00    +0.000 A 
ATOM     25  C   UNL     1      -1.238   3.133   0.029  0.00  0.00    +0.000 A 
ATOM     26  C   UNL     1      -0.050   3.840   0.022  0.00  0.00    +0.000 A 
ATOM     27  C   UNL     1       1.156   3.165   0.008  0.00  0.00    +0.005 A 
ENDBRANCH  21  22
ENDBRANCH   5  21
BRANCH   4  28
ATOM     28  C   UNL     1       1.789  -1.465  -1.773  0.00  0.00    -0.001 C 
BRANCH  28  29
ATOM     29  N   UNL     1       0.375  -1.221  -2.088  0.00  0.00    +0.384 N 
ATOM     30  C   UNL     1       0.208  -0.814  -3.506  0.00  0.00    -0.078 C 
ATOM     31  C   UNL     1      -1.286  -1.115  -3.788  0.00  0.00    -0.020 C 
ATOM     32  C   UNL     1      -1.530  -2.420  -2.996  0.00  0.00    -0.020 C 
ATOM     33  C   UNL     1      -0.425  -2.454  -1.925  0.00  0.00    -0.078 C 
ATOM     34  H   UNL     1       0.046  -0.432  -1.395  0.00  0.00    -0.081 HD
ENDBRANCH  28  29
ENDBRANCH   4  28
TORSDOF 9
