REMARK  Name = ZINC12756842
REMARK  9 active torsions:
REMARK  status: ('A' for Active; 'I' for Inactive)
REMARK    1  A    between atoms: C_1  and  C_2
REMARK    2  A    between atoms: C_7  and  C_9
REMARK    3  A    between atoms: C_7  and  C_27
REMARK    4  A    between atoms: C_7  and  N_63
REMARK    5  A    between atoms: C_9  and  N_10
REMARK    6  A    between atoms: C_11  and  C_13
REMARK    7  A    between atoms: C_13  and  O_14
REMARK    8  A    between atoms: O_14  and  C_15
REMARK    9  A    between atoms: C_18  and  C_21
REMARK                            x       y       z     vdW  Elec       q    Type
REMARK                         _______ _______ _______ _____ _____    ______ ____
ROOT
ATOM      1  N   UNL     1       2.938  -3.227   1.675  0.00  0.00    -0.314 N 
ATOM      2  C   UNL     1       2.935  -3.752   2.916  0.00  0.00    +0.251 C 
ATOM      3  O   UNL     1       2.532  -3.094   3.852  0.00  0.00    -0.272 OA
ATOM      4  H   UNL     1       3.260  -3.754   0.927  0.00  0.00    +0.149 HD
ENDROOT
BRANCH   1   5
ATOM      5  C   UNL     1       2.454  -1.861   1.456  0.00  0.00    +0.094 C 
BRANCH   5   6
ATOM      6  C   UNL     1       2.565  -1.514  -0.030  0.00  0.00    -0.013 C 
BRANCH   6  13
ATOM      7  C   UNL     1      -0.849  -4.742  -3.284  0.00  0.00    +0.007 C 
ATOM      8  C   UNL     1      -0.249  -3.568  -2.509  0.00  0.00    -0.018 C 
ATOM      9  C   UNL     1       1.148  -3.257  -3.053  0.00  0.00    -0.015 C 
ATOM     10  C   UNL     1       1.767  -2.122  -2.234  0.00  0.00    -0.078 C 
ATOM     11  C   UNL     1       0.515  -2.781  -0.266  0.00  0.00    -0.078 C 
ATOM     12  C   UNL     1      -0.141  -3.936  -1.026  0.00  0.00    -0.015 C 
ATOM     13  N   UNL     1       1.866  -2.548  -0.821  0.00  0.00    +0.386 N 
ATOM     14  H   UNL     1       2.401  -3.422  -0.774  0.00  0.00    -0.081 HD
ENDBRANCH   6  13
BRANCH   6  15
ATOM     15  C   UNL     1       1.955  -0.158  -0.275  0.00  0.00    -0.022 A 
ATOM     16  C   UNL     1       2.571   1.015  -0.564  0.00  0.00    +0.009 A 
ATOM     17  C   UNL     1       1.801   2.148  -0.750  0.00  0.00    +0.008 A 
ATOM     18  C   UNL     1       0.453   2.053  -0.639  0.00  0.00    +0.045 A 
ATOM     19  S   UNL     1       0.236   0.322  -0.260  0.00  0.00    -0.103 S 
ENDBRANCH   6  15
ENDBRANCH   5   6
ENDBRANCH   1   5
BRANCH   2  20
ATOM     20  C   UNL     1       3.432  -5.157   3.142  0.00  0.00    +0.324 C 
BRANCH  20  21
ATOM     21  O   UNL     1       3.329  -5.481   4.530  0.00  0.00    -0.483 OA
BRANCH  21  22
ATOM     22  C   UNL     1       3.739  -6.721   4.905  0.00  0.00    +0.121 A 
ATOM     23  C   UNL     1       4.224  -7.609   3.957  0.00  0.00    +0.046 A 
ATOM     24  C   UNL     1       4.646  -8.867   4.342  0.00  0.00    +0.009 A 
ATOM     25  C   UNL     1       4.573  -9.246   5.670  0.00  0.00    -0.024 A 
ATOM     26  C   UNL     1       4.084  -8.364   6.616  0.00  0.00    +0.009 A 
ATOM     27  C   UNL     1       3.667  -7.103   6.237  0.00  0.00    +0.046 A 
BRANCH  25  28
ATOM     28  C   UNL     1       5.027 -10.621   6.086  0.00  0.00    +0.133 C 
ATOM     29  S   UNL     1       6.777 -10.842   5.648  0.00  0.00    -0.142 S 
ATOM     30  C   UNL     1       7.118 -12.566   6.098  0.00  0.00    +0.071 C 
ATOM     31  C   UNL     1       6.246 -13.504   5.271  0.00  0.00    +0.021 C 
ATOM     32  C   UNL     1       4.794 -13.444   5.733  0.00  0.00    +0.071 C 
ATOM     33  S   UNL     1       4.042 -11.876   5.219  0.00  0.00    -0.142 S 
ENDBRANCH  25  28
ENDBRANCH  21  22
ENDBRANCH  20  21
ENDBRANCH   2  20
TORSDOF 8
