REMARK  Name = ZINC14201391
REMARK  13 active torsions:
REMARK  status: ('A' for Active; 'I' for Inactive)
REMARK    1  A    between atoms: C_1  and  C_2
REMARK    2  A    between atoms: C_6  and  N_8
REMARK    3  A    between atoms: N_8  and  C_9
REMARK    4  A    between atoms: C_9  and  C_10
REMARK    5  A    between atoms: C_16  and  C_18
REMARK    6  A    between atoms: C_18  and  N_66
REMARK    7  A    between atoms: C_19  and  N_66
REMARK    8  A    between atoms: C_20  and  C_21
REMARK    9  A    between atoms: C_20  and  N_66
REMARK   10  A    between atoms: N_23  and  C_24
REMARK   11  A    between atoms: C_25  and  C_32
REMARK   12  A    between atoms: C_27  and  C_31
REMARK   13  A    between atoms: C_29  and  C_30
REMARK                            x       y       z     vdW  Elec       q    Type
REMARK                         _______ _______ _______ _____ _____    ______ ____
ROOT
ATOM      1  C   UNL     1      -2.605   4.397  -1.557  0.00  0.00    +0.019 C 
ENDROOT
BRANCH   1   3
ATOM      2  N   UNL     1      -0.292   3.920  -2.294  0.00  0.00    -0.269 N 
ATOM      3  C   UNL     1      -1.417   4.646  -2.450  0.00  0.00    +0.203 C 
ATOM      4  O   UNL     1      -1.473   5.500  -3.309  0.00  0.00    -0.277 OA
BRANCH   2  10
ATOM      5  C   UNL     1       1.385   2.020   1.919  0.00  0.00    +0.044 C 
ATOM      6  C   UNL     1       0.541   1.917   0.675  0.00  0.00    -0.049 A 
ATOM      7  C   UNL     1      -0.206   0.777   0.440  0.00  0.00    +0.003 A 
ATOM      8  C   UNL     1      -0.986   0.680  -0.698  0.00  0.00    +0.002 A 
ATOM      9  C   UNL     1      -1.016   1.721  -1.606  0.00  0.00    +0.023 A 
ATOM     10  C   UNL     1      -0.263   2.864  -1.376  0.00  0.00    +0.037 A 
ATOM     11  C   UNL     1       0.519   2.958  -0.232  0.00  0.00    +0.027 A 
ENDBRANCH   2  10
BRANCH   2  12
ATOM     12  C   UNL     1       0.899   4.235  -3.085  0.00  0.00    +0.148 C 
BRANCH  12  13
ATOM     13  C   UNL     1       0.871   3.450  -4.371  0.00  0.00    -0.030 A 
ATOM     14  C   UNL     1       1.454   2.198  -4.429  0.00  0.00    +0.005 A 
ATOM     15  C   UNL     1       1.424   1.475  -5.606  0.00  0.00    +0.000 A 
ATOM     16  C   UNL     1       0.820   2.008  -6.729  0.00  0.00    +0.000 A 
ATOM     17  C   UNL     1       0.242   3.263  -6.673  0.00  0.00    +0.000 A 
ATOM     18  C   UNL     1       0.267   3.983  -5.494  0.00  0.00    +0.005 A 
ENDBRANCH  12  13
ENDBRANCH   2  12
ENDBRANCH   1   3
BRANCH   1  20
ATOM     19  C   UNL     1      -3.186   6.744  -1.437  0.00  0.00    -0.095 C 
ATOM     20  N   UNL     1      -3.645   5.403  -1.855  0.00  0.00    +0.389 N 
ATOM     21  H   UNL     1      -3.821   5.411  -2.867  0.00  0.00    -0.081 HD
BRANCH  20  22
ATOM     22  C   UNL     1      -4.899   5.057  -1.153  0.00  0.00    +0.019 C 
BRANCH  22  23
ATOM     23  C   UNL     1      -5.997   5.965  -1.644  0.00  0.00    +0.201 C 
ATOM     24  O   UNL     1      -5.755   6.816  -2.473  0.00  0.00    -0.278 OA
ATOM     25  N   UNL     1      -7.248   5.831  -1.161  0.00  0.00    -0.287 N 
ATOM     26  H   UNL     1      -7.458   5.107  -0.550  0.00  0.00    +0.155 HD
BRANCH  25  27
ATOM     27  C   UNL     1      -8.245   6.736  -1.540  0.00  0.00    +0.039 A 
ATOM     28  C   UNL     1      -8.025   8.103  -1.425  0.00  0.00    -0.029 A 
ATOM     29  C   UNL     1      -9.009   8.994  -1.804  0.00  0.00    +0.008 A 
ATOM     30  C   UNL     1     -10.218   8.527  -2.288  0.00  0.00    -0.050 A 
ATOM     31  C   UNL     1     -10.442   7.167  -2.400  0.00  0.00    +0.008 A 
ATOM     32  C   UNL     1      -9.460   6.271  -2.026  0.00  0.00    -0.029 A 
ATOM     33  C   UNL     1      -9.706   4.789  -2.148  0.00  0.00    +0.045 C 
ATOM     34  C   UNL     1     -11.292   9.502  -2.696  0.00  0.00    +0.044 C 
ATOM     35  C   UNL     1      -6.711   8.612  -0.892  0.00  0.00    +0.045 C 
ENDBRANCH  25  27
ENDBRANCH  22  23
ENDBRANCH  20  22
ENDBRANCH   1  20
TORSDOF 8
