REMARK  Name = ZINC09335306
REMARK  8 active torsions:
REMARK  status: ('A' for Active; 'I' for Inactive)
REMARK    1  A    between atoms: C_1  and  C_2
REMARK    2  A    between atoms: C_5  and  N_11
REMARK    3  A    between atoms: C_6  and  N_8
REMARK    4  A    between atoms: C_12  and  C_14
REMARK    5  A    between atoms: C_14  and  C_16
REMARK    6  A    between atoms: C_14  and  O_22
REMARK    7  A    between atoms: O_22  and  C_23
REMARK    8  A    between atoms: C_23  and  C_25
REMARK                            x       y       z     vdW  Elec       q    Type
REMARK                         _______ _______ _______ _____ _____    ______ ____
ROOT
ATOM      1  C   UNL     1      -4.869   1.808  -0.004  0.00  0.00    +0.292 C 
ENDROOT
BRANCH   1   2
ATOM      2  C   UNL     1      -5.353   1.655  -1.423  0.00  0.00    +0.002 A 
ATOM      3  C   UNL     1      -4.965   2.565  -2.388  0.00  0.00    +0.008 A 
ATOM      4  C   UNL     1      -5.405   2.422  -3.690  0.00  0.00    +0.000 A 
ATOM      5  C   UNL     1      -6.242   1.374  -4.025  0.00  0.00    +0.000 A 
ATOM      6  C   UNL     1      -6.635   0.467  -3.059  0.00  0.00    +0.000 A 
ATOM      7  C   UNL     1      -6.191   0.607  -1.758  0.00  0.00    +0.008 A 
ENDBRANCH   1   2
BRANCH   1   9
ATOM      8  N   UNL     1      -7.060   2.443   0.954  0.00  0.00    -0.280 N 
ATOM      9  C   UNL     1      -5.770   2.765   0.734  0.00  0.00    +0.263 C 
ATOM     10  O   UNL     1      -5.334   3.825   1.130  0.00  0.00    -0.271 OA
ATOM     11  H   UNL     1      -7.426   1.625   0.582  0.00  0.00    +0.155 HD
BRANCH   8  16
ATOM     12  C   UNL     1     -10.352   5.870   4.052  0.00  0.00    +0.044 C 
ATOM     13  C   UNL     1      -9.477   4.959   3.229  0.00  0.00    -0.048 A 
ATOM     14  C   UNL     1      -8.506   5.496   2.404  0.00  0.00    +0.005 A 
ATOM     15  C   UNL     1      -7.703   4.665   1.649  0.00  0.00    +0.026 A 
ATOM     16  C   UNL     1      -7.872   3.288   1.718  0.00  0.00    +0.064 A 
ATOM     17  C   UNL     1      -8.851   2.752   2.543  0.00  0.00    +0.148 A 
ATOM     18  C   UNL     1      -9.648   3.589   3.301  0.00  0.00    +0.038 A 
BRANCH  17  19
ATOM     19  N   UNL     1      -9.039   1.286   2.616  0.00  0.00    +0.058 N 
ATOM     20  O   UNL     1      -9.960   0.821   3.262  0.00  0.00    -0.126 OA
ATOM     21  O   UNL     1      -8.271   0.544   2.029  0.00  0.00    -0.126 OA
ENDBRANCH  17  19
ENDBRANCH   8  16
ENDBRANCH   1   9
BRANCH   1  22
ATOM     22  O   UNL     1      -3.534   2.318  -0.009  0.00  0.00    -0.441 OA
BRANCH  22  23
ATOM     23  C   UNL     1      -2.533   1.414  -0.035  0.00  0.00    +0.376 C 
ATOM     24  O   UNL     1      -2.788   0.225  -0.054  0.00  0.00    -0.241 OA
BRANCH  23  25
ATOM     25  C   UNL     1      -1.141   1.864  -0.042  0.00  0.00    +0.213 A 
ATOM     26  C   UNL     1      -0.036   1.058  -0.068  0.00  0.00    +0.058 A 
ATOM     27  C   UNL     1       1.081   1.905  -0.071  0.00  0.00    +0.058 A 
ATOM     28  C   UNL     1       0.618   3.177  -0.041  0.00  0.00    +0.171 A 
ATOM     29  O   UNL     1      -0.721   3.147  -0.020  0.00  0.00    -0.442 OA
ATOM     30 BR   UNL     1       1.685   4.738  -0.030  0.00  0.00    -0.008 Br
ENDBRANCH  23  25
ENDBRANCH  22  23
ENDBRANCH   1  22
TORSDOF 7
