REMARK  Name = ZINC13301111
REMARK  3 active torsions:
REMARK  status: ('A' for Active; 'I' for Inactive)
REMARK    1  A    between atoms: C_7  and  C_13
REMARK    2  A    between atoms: N_15  and  N_16
REMARK    3  A    between atoms: N_16  and  C_17
REMARK                            x       y       z     vdW  Elec       q    Type
REMARK                         _______ _______ _______ _____ _____    ______ ____
ROOT
ATOM      1  C   UNL     1       0.075  -2.972  -0.017  0.00  0.00    +0.279 C 
ATOM      2  O   UNL     1      -1.009  -2.443   0.124  0.00  0.00    -0.267 OA
ATOM      3  N   UNL     1       0.160  -4.311  -0.145  0.00  0.00    -0.231 N 
ATOM      4  H   UNL     1       1.025  -4.734  -0.259  0.00  0.00    +0.173 HD
ENDROOT
BRANCH   1  11
ATOM      5  C   UNL     1      -0.012   1.360   0.039  0.00  0.00    +0.001 A 
ATOM      6  C   UNL     1       1.172   2.086   0.008  0.00  0.00    +0.002 A 
ATOM      7  C   UNL     1       2.392   1.444  -0.042  0.00  0.00    +0.026 A 
ATOM      8  C   UNL     1       2.435   0.056  -0.060  0.00  0.00    +0.053 A 
ATOM      9  C   UNL     1       1.230  -0.678  -0.029  0.00  0.00    +0.029 A 
ATOM     10  C   UNL     1       0.006  -0.006   0.021  0.00  0.00    +0.012 A 
ATOM     11  C   UNL     1       1.310  -2.142  -0.049  0.00  0.00    +0.141 A 
ATOM     12  N   UNL     1       2.501  -2.706  -0.096  0.00  0.00    -0.188 NA
ATOM     13  C   UNL     1       3.625  -1.981  -0.125  0.00  0.00    +0.347 A 
ATOM     14  O   UNL     1       4.694  -2.564  -0.169  0.00  0.00    -0.245 OA
ATOM     15  N   UNL     1       3.626  -0.635  -0.109  0.00  0.00    -0.306 N 
ATOM     16  H   UNL     1       4.466  -0.151  -0.131  0.00  0.00    +0.170 HD
ENDBRANCH   1  11
BRANCH   3  17
ATOM     17  N   UNL     1      -1.003  -5.092  -0.115  0.00  0.00    -0.259 N 
ATOM     18  H   UNL     1      -1.873  -4.666  -0.089  0.00  0.00    +0.170 HD
BRANCH  17  19
ATOM     19  C   UNL     1      -0.912  -6.425  -0.123  0.00  0.00    +0.116 C 
ATOM     20  C   UNL     1       0.265  -7.209  -0.040  0.00  0.00    +0.026 A 
ATOM     21  C   UNL     1       1.624  -6.890   0.068  0.00  0.00    +0.027 A 
ATOM     22  C   UNL     1       2.562  -7.903   0.130  0.00  0.00    +0.020 A 
ATOM     23  C   UNL     1       2.163  -9.230   0.084  0.00  0.00    +0.032 A 
ATOM     24  C   UNL     1       0.822  -9.565  -0.024  0.00  0.00    +0.041 A 
ATOM     25  C   UNL     1      -0.146  -8.566  -0.087  0.00  0.00    +0.057 A 
ATOM     26  N   UNL     1      -1.505  -8.627  -0.193  0.00  0.00    -0.279 N 
ATOM     27  C   UNL     1      -2.037  -7.418  -0.214  0.00  0.00    +0.264 C 
ATOM     28  O   UNL     1      -3.224  -7.156  -0.297  0.00  0.00    -0.268 OA
ATOM     29 BR   UNL     1       0.306 -11.383  -0.085  0.00  0.00    -0.048 Br
ATOM     30 BR   UNL     1       4.399  -7.477   0.275  0.00  0.00    -0.050 Br
ATOM     31  H   UNL     1      -2.015  -9.450  -0.241  0.00  0.00    +0.155 HD
ENDBRANCH  17  19
ENDBRANCH   3  17
TORSDOF 3
