REMARK  Name = ZINC32606772
REMARK  3 active torsions:
REMARK  status: ('A' for Active; 'I' for Inactive)
REMARK    1  A    between atoms: C_9  and  C_12
REMARK    2  A    between atoms: N_14  and  C_15
REMARK    3  A    between atoms: C_18  and  C_20
REMARK                            x       y       z     vdW  Elec       q    Type
REMARK                         _______ _______ _______ _____ _____    ______ ____
ROOT
ATOM      1  C   UNL     1      -0.013   1.076   0.008  0.00  0.00    +0.064 A 
ATOM      2  C   UNL     1       1.168   1.782   0.001  0.00  0.00    +0.128 A 
ATOM      3  C   UNL     1       1.167   3.176   0.007  0.00  0.00    +0.077 A 
ATOM      4  C   UNL     1      -0.006   3.872   0.021  0.00  0.00    +0.139 A 
ATOM      5  C   UNL     1      -1.229   3.179   0.029  0.00  0.00    +0.081 A 
ATOM      6  C   UNL     1      -1.235   1.763   0.018  0.00  0.00    +0.056 A 
ATOM      7  N   UNL     1      -2.397   1.094   0.030  0.00  0.00    -0.360 N 
ATOM      8  C   UNL     1      -3.551   1.710   0.045  0.00  0.00    +0.100 A 
ATOM      9  C   UNL     1      -3.636   3.112   0.052  0.00  0.00    +0.104 A 
ATOM     10  C   UNL     1      -2.459   3.871   0.045  0.00  0.00    +0.205 A 
ATOM     11  O   UNL     1      -2.500   5.223   0.051  0.00  0.00    -0.286 OA
ATOM     12  F   UNL     1       0.007   5.223   0.028  0.00  0.00    -0.205 F 
ATOM     13  F   UNL     1       2.343   1.116  -0.014  0.00  0.00    -0.205 F 
ATOM     14  H   UNL     1      -2.398  -0.006   0.029  0.00  0.00    +0.165 HD
ENDROOT
BRANCH   9  15
ATOM     15  C   UNL     1      -4.950   3.777   0.068  0.00  0.00    +0.285 C 
ATOM     16  O   UNL     1      -5.016   4.992   0.075  0.00  0.00    -0.265 OA
ATOM     17  N   UNL     1      -6.078   3.040   0.076  0.00  0.00    -0.181 NA
BRANCH  17  18
ATOM     18  C   UNL     1      -7.318   3.668   0.091  0.00  0.00    +0.219 A 
ATOM     19  N   UNL     1      -7.621   4.959   0.100  0.00  0.00    -0.121 NA
ATOM     20  N   UNL     1      -8.816   5.362   0.114  0.00  0.00    -0.135 NA
ATOM     21  C   UNL     1      -9.837   4.529   0.119  0.00  0.00    +0.206 A 
ATOM     22  S   UNL     1      -8.965   2.965   0.096  0.00  0.00    -0.022 S 
BRANCH  21  23
ATOM     23  C   UNL     1     -11.317   4.812   0.135  0.00  0.00    +0.443 C 
ATOM     24  F   UNL     1     -11.530   6.190   0.029  0.00  0.00    -0.164 F 
ATOM     25  F   UNL     1     -11.928   4.162  -0.943  0.00  0.00    -0.164 F 
ATOM     26  F   UNL     1     -11.869   4.345   1.333  0.00  0.00    -0.164 F 
ENDBRANCH  21  23
ENDBRANCH  17  18
ENDBRANCH   9  15
TORSDOF 3
