REMARK  Name = ZINC21250813
REMARK  12 active torsions:
REMARK  status: ('A' for Active; 'I' for Inactive)
REMARK    1  A    between atoms: C_1  and  C_2
REMARK    2  A    between atoms: C_2  and  C_3
REMARK    3  A    between atoms: C_2  and  O_4
REMARK    4  A    between atoms: O_4  and  C_5
REMARK    5  A    between atoms: C_8  and  C_13
REMARK    6  A    between atoms: C_10  and  O_11
REMARK    7  A    between atoms: O_11  and  C_12
REMARK    8  A    between atoms: C_18  and  C_23
REMARK    9  A    between atoms: C_26  and  O_31
REMARK   10  A    between atoms: C_27  and  O_29
REMARK   11  A    between atoms: O_29  and  C_30
REMARK   12  A    between atoms: O_31  and  C_32
REMARK                            x       y       z     vdW  Elec       q    Type
REMARK                         _______ _______ _______ _____ _____    ______ ____
ROOT
ATOM      1  C   UNL     1       3.227   1.306  -1.288  0.00  0.00    +0.136 C 
ATOM      2  C   UNL     1       3.698   2.726  -1.494  0.00  0.00    +0.036 C 
ATOM      3  C   UNL     1       3.259   3.807  -0.830  0.00  0.00    +0.017 C 
ATOM      4  C   UNL     1       3.799   5.188  -1.167  0.00  0.00    +0.059 C 
ATOM      5  C   UNL     1       5.261   5.083  -1.596  0.00  0.00    +0.032 C 
ATOM      6  C   UNL     1       5.321   4.177  -2.831  0.00  0.00    +0.088 C 
ATOM      7  C   UNL     1       4.696   2.858  -2.489  0.00  0.00    +0.163 C 
ATOM      8  O   UNL     1       5.060   1.865  -3.089  0.00  0.00    -0.292 OA
ATOM      9  N   UNL     1       2.325   3.788   0.155  0.00  0.00    -0.316 N 
ATOM     10  C   UNL     1       1.116   3.105   0.086  0.00  0.00    +0.052 A 
ATOM     11  C   UNL     1      -0.104   3.758   0.104  0.00  0.00    +0.025 A 
ATOM     12  C   UNL     1      -1.272   3.015   0.092  0.00  0.00    +0.002 A 
ATOM     13  C   UNL     1      -1.220   1.634   0.058  0.00  0.00    +0.002 A 
ATOM     14  C   UNL     1      -0.001   0.979   0.030  0.00  0.00    +0.025 A 
ATOM     15  C   UNL     1       1.170   1.721   0.025  0.00  0.00    +0.049 A 
ATOM     16  N   UNL     1       2.417   1.111  -0.104  0.00  0.00    -0.331 N 
ATOM     17  H   UNL     1       2.501   4.339   1.090  0.00  0.00    +0.152 HD
ATOM     18  H   UNL     1       2.782   0.472   0.714  0.00  0.00    +0.147 HD
ENDROOT
BRANCH   1  22
ATOM     19  C   UNL     1       0.940   0.129  -4.704  0.00  0.00    +0.162 A 
ATOM     20  C   UNL     1       0.495   1.158  -3.890  0.00  0.00    +0.050 A 
ATOM     21  C   UNL     1       1.236   1.536  -2.786  0.00  0.00    +0.009 A 
ATOM     22  C   UNL     1       2.422   0.890  -2.492  0.00  0.00    -0.019 A 
ATOM     23  C   UNL     1       2.875  -0.134  -3.303  0.00  0.00    +0.055 A 
ATOM     24  C   UNL     1       2.133  -0.522  -4.408  0.00  0.00    +0.162 A 
BRANCH  24  25
ATOM     25  O   UNL     1       2.575  -1.532  -5.204  0.00  0.00    -0.491 OA
ATOM     26  C   UNL     1       3.808  -2.155  -4.839  0.00  0.00    +0.277 C 
ENDBRANCH  24  25
BRANCH  19  27
ATOM     27  O   UNL     1       0.212  -0.244  -5.791  0.00  0.00    -0.486 OA
BRANCH  27  29
ATOM     28  C   UNL     1      -1.252   0.416  -7.597  0.00  0.00    +0.051 C 
ATOM     29  C   UNL     1      -0.935   0.548  -6.106  0.00  0.00    +0.167 C 
ATOM     30  C   UNL     1      -2.132   0.062  -5.285  0.00  0.00    +0.051 C 
ENDBRANCH  27  29
ENDBRANCH  19  27
ENDBRANCH   1  22
BRANCH   5  31
ATOM     31  C   UNL     1       5.793   6.450  -1.939  0.00  0.00    -0.040 A 
ATOM     32  C   UNL     1       5.183   7.200  -2.927  0.00  0.00    +0.008 A 
ATOM     33  C   UNL     1       5.668   8.455  -3.245  0.00  0.00    +0.049 A 
ATOM     34  C   UNL     1       6.767   8.964  -2.573  0.00  0.00    +0.161 A 
ATOM     35  C   UNL     1       7.381   8.210  -1.578  0.00  0.00    +0.162 A 
ATOM     36  C   UNL     1       6.887   6.955  -1.260  0.00  0.00    +0.053 A 
BRANCH  35  37
ATOM     37  O   UNL     1       8.460   8.705  -0.915  0.00  0.00    -0.491 OA
ATOM     38  C   UNL     1       9.040   7.875   0.093  0.00  0.00    +0.277 C 
ENDBRANCH  35  37
BRANCH  34  39
ATOM     39  O   UNL     1       7.244  10.199  -2.884  0.00  0.00    -0.491 OA
ATOM     40  C   UNL     1       6.563  10.917  -3.915  0.00  0.00    +0.277 C 
ENDBRANCH  34  39
ENDBRANCH   5  31
TORSDOF 7
