REMARK  Name = ZINC40804326
REMARK  6 active torsions:
REMARK  status: ('A' for Active; 'I' for Inactive)
REMARK    1  A    between atoms: C_1  and  C_2
REMARK    2  A    between atoms: C_6  and  C_7
REMARK    3  A    between atoms: C_7  and  O_9
REMARK    4  A    between atoms: O_9  and  C_10
REMARK    5  A    between atoms: N_25  and  N_26
REMARK    6  A    between atoms: C_27  and  C_29
REMARK                            x       y       z     vdW  Elec       q    Type
REMARK                         _______ _______ _______ _____ _____    ______ ____
ROOT
ATOM      1  C   UNL     1      -0.303   1.509   0.033  0.00  0.00    +0.048 C 
ATOM      2  C   UNL     1      -0.175   0.007   0.013  0.00  0.00    +0.011 A 
ATOM      3  C   UNL     1      -0.135  -0.818  -1.116  0.00  0.00    +0.042 A 
ATOM      4  C   UNL     1      -0.014  -2.115  -0.676  0.00  0.00    +0.115 A 
ATOM      5  O   UNL     1       0.024  -2.097   0.654  0.00  0.00    -0.452 OA
ATOM      6  C   UNL     1      -0.068  -0.822   1.096  0.00  0.00    +0.215 A 
ATOM      7  C   UNL     1       0.055  -3.296  -1.611  0.00  0.00    +0.075 C 
ATOM      8  C   UNL     1      -0.530  -2.903  -2.970  0.00  0.00    +0.014 C 
ATOM      9  C   UNL     1       0.139  -1.631  -3.500  0.00  0.00    +0.058 C 
ATOM     10  C   UNL     1      -0.201  -0.486  -2.557  0.00  0.00    +0.070 C 
ATOM     11  N   UNL     1      -0.524   0.696  -2.985  0.00  0.00    -0.184 NA
ENDROOT
BRANCH  11  12
ATOM     12  N   UNL     1      -0.570   0.955  -4.361  0.00  0.00    -0.203 N 
ATOM     13  C   UNL     1      -0.906   2.182  -4.805  0.00  0.00    +0.263 C 
ATOM     14  O   UNL     1      -1.170   3.065  -4.011  0.00  0.00    -0.268 OA
ATOM     15  H   UNL     1      -0.360   0.250  -4.994  0.00  0.00    +0.178 HD
BRANCH  13  16
ATOM     16  C   UNL     1      -0.954   2.454  -6.257  0.00  0.00    +0.038 A 
ATOM     17  C   UNL     1      -0.658   1.442  -7.171  0.00  0.00    +0.013 A 
ATOM     18  C   UNL     1      -0.705   1.703  -8.524  0.00  0.00    +0.001 A 
ATOM     19  C   UNL     1      -1.044   2.966  -8.977  0.00  0.00    +0.000 A 
ATOM     20  C   UNL     1      -1.339   3.974  -8.077  0.00  0.00    +0.001 A 
ATOM     21  C   UNL     1      -1.302   3.724  -6.721  0.00  0.00    +0.013 A 
ENDBRANCH  13  16
ENDBRANCH  11  12
BRANCH   6  22
ATOM     22  C   UNL     1      -0.058  -0.400   2.500  0.00  0.00    +0.380 C 
ATOM     23  O   UNL     1      -0.150   0.780   2.781  0.00  0.00    -0.241 OA
BRANCH  22  24
ATOM     24  O   UNL     1       0.054  -1.320   3.480  0.00  0.00    -0.418 OA
BRANCH  24  25
ATOM     25  C   UNL     1       0.165  -0.878   4.760  0.00  0.00    +0.158 A 
ATOM     26  C   UNL     1       1.406  -0.712   5.330  0.00  0.00    +0.050 A 
ATOM     27  C   UNL     1       1.535  -0.260   6.641  0.00  0.00    +0.019 A 
ATOM     28  C   UNL     1       0.436   0.030   7.393  0.00  0.00    +0.027 A 
ATOM     29  C   UNL     1      -0.848  -0.126   6.845  0.00  0.00    +0.018 A 
ATOM     30  C   UNL     1      -0.991  -0.581   5.511  0.00  0.00    +0.114 A 
ATOM     31  N   UNL     1      -2.211  -0.726   4.985  0.00  0.00    -0.251 NA
ATOM     32  C   UNL     1      -3.289  -0.452   5.678  0.00  0.00    +0.111 A 
ATOM     33  C   UNL     1      -3.219   0.004   6.993  0.00  0.00    +0.020 A 
ATOM     34  C   UNL     1      -2.003   0.165   7.594  0.00  0.00    +0.013 A 
ATOM     35 BR   UNL     1       0.640   0.642   9.170  0.00  0.00    -0.050 Br
ENDBRANCH  24  25
ENDBRANCH  22  24
ENDBRANCH   6  22
TORSDOF 5
