REMARK  Name = ZINC39325219
REMARK  10 active torsions:
REMARK  status: ('A' for Active; 'I' for Inactive)
REMARK    1  A    between atoms: C_1  and  C_2
REMARK    2  A    between atoms: C_8  and  C_14
REMARK    3  A    between atoms: C_14  and  N_15
REMARK    4  A    between atoms: N_15  and  C_16
REMARK    5  A    between atoms: N_15  and  S_24
REMARK    6  A    between atoms: C_16  and  C_17
REMARK    7  A    between atoms: S_24  and  C_27
REMARK    8  A    between atoms: C_28  and  C_35
REMARK    9  A    between atoms: C_30  and  C_34
REMARK   10  A    between atoms: C_32  and  C_33
REMARK                            x       y       z     vdW  Elec       q    Type
REMARK                         _______ _______ _______ _____ _____    ______ ____
ROOT
ATOM      1  N   UNL     1      -0.822  -2.366   5.356  0.00  0.00    -0.171 NA
ENDROOT
BRANCH   1   2
ATOM      2  S   UNL     1      -0.015  -3.144   6.575  0.00  0.00    +0.062 S 
ATOM      3  O   UNL     1      -0.610  -2.718   7.793  0.00  0.00    -0.153 OA
ATOM      4  O   UNL     1       0.061  -4.513   6.202  0.00  0.00    -0.153 OA
BRANCH   2   5
ATOM      5  C   UNL     1       1.637  -2.531   6.580  0.00  0.00    +0.111 A 
ATOM      6  C   UNL     1       1.940  -1.365   7.258  0.00  0.00    -0.024 A 
ATOM      7  C   UNL     1       3.236  -0.884   7.262  0.00  0.00    +0.008 A 
ATOM      8  C   UNL     1       4.229  -1.569   6.589  0.00  0.00    -0.050 A 
ATOM      9  C   UNL     1       3.927  -2.736   5.912  0.00  0.00    +0.008 A 
ATOM     10  C   UNL     1       2.632  -3.219   5.911  0.00  0.00    -0.024 A 
ATOM     11  C   UNL     1       2.304  -4.494   5.178  0.00  0.00    +0.046 C 
ATOM     12  C   UNL     1       5.642  -1.044   6.592  0.00  0.00    +0.044 C 
ATOM     13  C   UNL     1       0.856  -0.617   7.992  0.00  0.00    +0.046 C 
ENDBRANCH   2   5
ENDBRANCH   1   2
BRANCH   1  14
ATOM     14  C   UNL     1      -0.578  -2.739   3.961  0.00  0.00    +0.126 C 
BRANCH  14  22
ATOM     15  C   UNL     1       0.041   2.571   0.945  0.00  0.00    +0.045 C 
ATOM     16  C   UNL     1       0.300   1.147   0.522  0.00  0.00    -0.029 A 
ATOM     17  C   UNL     1       0.443   0.851  -0.796  0.00  0.00    +0.005 A 
ATOM     18  C   UNL     1       0.684  -0.444  -1.254  0.00  0.00    +0.001 A 
ATOM     19  C   UNL     1       0.790  -1.490  -0.394  0.00  0.00    +0.009 A 
ATOM     20  C   UNL     1       0.647  -1.242   1.041  0.00  0.00    -0.007 A 
ATOM     21  C   UNL     1       0.746  -2.261   1.941  0.00  0.00    -0.003 C 
ATOM     22  C   UNL     1       0.584  -1.912   3.407  0.00  0.00    +0.114 C 
ATOM     23  C   UNL     1       0.325  -0.462   3.752  0.00  0.00    +0.225 C 
ATOM     24  O   UNL     1       0.188  -0.126   4.913  0.00  0.00    -0.275 OA
ATOM     25  N   UNL     1       0.250   0.439   2.787  0.00  0.00    -0.284 N 
ATOM     26  C   UNL     1       0.398   0.137   1.496  0.00  0.00    +0.043 A 
ATOM     27  H   UNL     1       0.084   1.363   3.029  0.00  0.00    +0.155 HD
ENDBRANCH  14  22
ENDBRANCH   1  14
BRANCH   1  28
ATOM     28  C   UNL     1      -1.780  -1.304   5.674  0.00  0.00    +0.144 C 
BRANCH  28  29
ATOM     29  C   UNL     1      -3.165  -1.889   5.769  0.00  0.00    -0.031 A 
ATOM     30  C   UNL     1      -3.963  -1.962   4.643  0.00  0.00    +0.008 A 
ATOM     31  C   UNL     1      -5.234  -2.499   4.729  0.00  0.00    +0.038 A 
ATOM     32  C   UNL     1      -5.707  -2.964   5.945  0.00  0.00    +0.123 A 
ATOM     33  C   UNL     1      -4.907  -2.890   7.072  0.00  0.00    +0.038 A 
ATOM     34  C   UNL     1      -3.635  -2.357   6.982  0.00  0.00    +0.008 A 
ATOM     35  F   UNL     1      -6.949  -3.489   6.030  0.00  0.00    -0.205 F 
ENDBRANCH  28  29
ENDBRANCH   1  28
TORSDOF 6
