REMARK  Name = ZINC23453383
REMARK  10 active torsions:
REMARK  status: ('A' for Active; 'I' for Inactive)
REMARK    1  A    between atoms: C_1  and  C_2
REMARK    2  A    between atoms: C_3  and  S_8
REMARK    3  A    between atoms: C_4  and  C_7
REMARK    4  A    between atoms: S_8  and  N_11
REMARK    5  A    between atoms: N_14  and  C_17
REMARK    6  A    between atoms: C_17  and  C_18
REMARK    7  A    between atoms: C_18  and  C_20
REMARK    8  A    between atoms: C_18  and  O_27
REMARK    9  A    between atoms: O_27  and  C_28
REMARK   10  A    between atoms: C_28  and  C_29
REMARK                            x       y       z     vdW  Elec       q    Type
REMARK                         _______ _______ _______ _____ _____    ______ ____
ROOT
ATOM      1  C   UNL     1       2.158   7.147   1.259  0.00  0.00    -0.042 C 
ENDROOT
BRANCH   1   5
ATOM      2  N   UNL     1       2.979   3.569   3.294  0.00  0.00    -0.180 NA
ATOM      3  C   UNL     1       1.563   3.936   3.138  0.00  0.00    +0.091 C 
ATOM      4  C   UNL     1       1.485   5.442   2.842  0.00  0.00    -0.061 C 
ATOM      5  N   UNL     1       2.337   5.753   1.686  0.00  0.00    +0.383 N 
ATOM      6  C   UNL     1       3.749   5.468   1.974  0.00  0.00    -0.061 C 
ATOM      7  C   UNL     1       3.921   3.968   2.237  0.00  0.00    +0.091 C 
ATOM      8  H   UNL     1       2.027   5.101   0.856  0.00  0.00    -0.082 HD
BRANCH   2   9
ATOM      9  S   UNL     1       3.497   2.723   4.620  0.00  0.00    +0.066 S 
ATOM     10  O   UNL     1       4.690   2.055   4.234  0.00  0.00    -0.153 OA
ATOM     11  O   UNL     1       2.365   2.029   5.126  0.00  0.00    -0.153 OA
BRANCH   9  14
ATOM     12  C   UNL     1       1.679   4.194   7.096  0.00  0.00    +0.071 C 
ATOM     13  C   UNL     1       3.139   4.475   6.850  0.00  0.00    +0.107 A 
ATOM     14  C   UNL     1       3.953   3.904   5.846  0.00  0.00    +0.170 A 
ATOM     15  C   UNL     1       5.165   4.474   6.043  0.00  0.00    +0.161 A 
ATOM     16  O   UNL     1       5.029   5.304   7.087  0.00  0.00    -0.358 OA
ATOM     17  N   UNL     1       3.898   5.296   7.516  0.00  0.00    -0.081 NA
ATOM     18  C   UNL     1       6.421   4.225   5.247  0.00  0.00    +0.091 C 
ENDBRANCH   9  14
ENDBRANCH   2   9
ENDBRANCH   1   5
BRANCH   1  19
ATOM     19  C   UNL     1       2.856   7.363  -0.085  0.00  0.00    +0.132 C 
BRANCH  19  20
ATOM     20  C   UNL     1       2.682   8.796  -0.517  0.00  0.00    -0.021 A 
ATOM     21  C   UNL     1       1.501   9.201  -1.110  0.00  0.00    +0.007 A 
ATOM     22  C   UNL     1       1.338  10.516  -1.501  0.00  0.00    +0.020 A 
ATOM     23  C   UNL     1       2.363  11.426  -1.309  0.00  0.00    +0.041 A 
ATOM     24  C   UNL     1       3.547  11.020  -0.721  0.00  0.00    +0.020 A 
ATOM     25  C   UNL     1       3.706   9.705  -0.325  0.00  0.00    +0.007 A 
ATOM     26 CL   UNL     1       2.163  13.077  -1.806  0.00  0.00    -0.084 Cl
ENDBRANCH  19  20
BRANCH  19  27
ATOM     27  O   UNL     1       2.280   6.497  -1.065  0.00  0.00    -0.369 OA
BRANCH  27  28
ATOM     28  C   UNL     1       3.189   6.094  -2.091  0.00  0.00    +0.201 C 
BRANCH  28  29
ATOM     29  C   UNL     1       2.479   5.188  -3.064  0.00  0.00    +0.048 A 
ATOM     30  C   UNL     1       2.476   3.820  -2.860  0.00  0.00    +0.131 A 
ATOM     31  C   UNL     1       1.819   2.989  -3.752  0.00  0.00    +0.039 A 
ATOM     32  C   UNL     1       1.176   3.525  -4.852  0.00  0.00    +0.006 A 
ATOM     33  C   UNL     1       1.185   4.891  -5.060  0.00  0.00    +0.039 A 
ATOM     34  C   UNL     1       1.836   5.724  -4.166  0.00  0.00    +0.131 A 
ATOM     35  F   UNL     1       1.844   7.060  -4.370  0.00  0.00    -0.205 F 
ATOM     36  F   UNL     1       3.108   3.295  -1.787  0.00  0.00    -0.205 F 
ENDBRANCH  28  29
ENDBRANCH  27  28
ENDBRANCH  19  27
ENDBRANCH   1  19
TORSDOF 8
