REMARK  Name = ZINC63611371
REMARK  11 active torsions:
REMARK  status: ('A' for Active; 'I' for Inactive)
REMARK    1  A    between atoms: C_1  and  C_2
REMARK    2  A    between atoms: C_4  and  C_36
REMARK    3  A    between atoms: C_6  and  N_8
REMARK    4  A    between atoms: C_9  and  C_35
REMARK    5  A    between atoms: C_12  and  C_17
REMARK    6  A    between atoms: C_14  and  C_16
REMARK    7  A    between atoms: C_18  and  C_19
REMARK    8  A    between atoms: C_18  and  C_21
REMARK    9  A    between atoms: N_23  and  C_24
REMARK   10  A    between atoms: C_24  and  C_25
REMARK   11  A    between atoms: C_25  and  C_26
REMARK                            x       y       z     vdW  Elec       q    Type
REMARK                         _______ _______ _______ _____ _____    ______ ____
ROOT
ATOM      1  C   UNL     1       0.219  -3.113   6.079  0.00  0.00    +0.002 C 
ATOM      2  C   UNL     1       1.125  -3.013   7.071  0.00  0.00    +0.110 C 
ENDROOT
BRANCH   1   6
ATOM      3  N   UNL     1       0.051  -2.796   2.390  0.00  0.00    -0.324 N 
ATOM      4  C   UNL     1       0.078  -4.260   2.524  0.00  0.00    +0.071 C 
ATOM      5  C   UNL     1       0.115  -4.582   4.033  0.00  0.00    +0.031 C 
ATOM      6  C   UNL     1       0.678  -3.276   4.653  0.00  0.00    +0.035 C 
ATOM      7  C   UNL     1       0.050  -2.199   3.738  0.00  0.00    +0.078 C 
ATOM      8  C   UNL     1      -1.382  -1.895   4.184  0.00  0.00    +0.028 C 
ATOM      9  C   UNL     1      -1.178  -4.864   1.891  0.00  0.00    +0.028 C 
BRANCH   3  15
ATOM     10  C   UNL     1      -0.018   1.503   0.010  0.00  0.00    +0.044 C 
ATOM     11  C   UNL     1       0.002  -0.004   0.002  0.00  0.00    -0.048 A 
ATOM     12  C   UNL     1       0.006  -0.688  -1.200  0.00  0.00    +0.006 A 
ATOM     13  C   UNL     1       0.024  -2.071  -1.212  0.00  0.00    -0.048 A 
ATOM     14  C   UNL     1       0.039  -2.773  -0.023  0.00  0.00    +0.026 A 
ATOM     15  C   UNL     1       0.036  -2.089   1.186  0.00  0.00    +0.031 A 
ATOM     16  C   UNL     1       0.023  -0.700   1.195  0.00  0.00    +0.026 A 
ATOM     17  C   UNL     1       0.027  -2.812  -2.524  0.00  0.00    +0.044 C 
ENDBRANCH   3  15
ENDBRANCH   1   6
BRANCH   2  18
ATOM     18  C   UNL     1       0.675  -2.853   8.469  0.00  0.00    +0.254 C 
ATOM     19  O   UNL     1      -0.513  -2.812   8.724  0.00  0.00    -0.269 OA
ATOM     20  N   UNL     1       1.581  -2.753   9.461  0.00  0.00    -0.310 N 
ATOM     21  H   UNL     1       2.529  -2.785   9.258  0.00  0.00    +0.149 HD
BRANCH  20  22
ATOM     22  C   UNL     1       1.134  -2.594  10.848  0.00  0.00    +0.109 C 
BRANCH  22  23
ATOM     23  C   UNL     1       2.353  -2.505  11.769  0.00  0.00    +0.052 C 
BRANCH  23  24
ATOM     24  C   UNL     1       1.894  -2.342  13.195  0.00  0.00    -0.040 C 
ATOM     25  C   UNL     1       1.729  -3.321  14.113  0.00  0.00    -0.001 A 
ATOM     26  C   UNL     1       1.921  -4.776  14.061  0.00  0.00    +0.010 A 
ATOM     27  C   UNL     1       1.668  -5.511  15.168  0.00  0.00    +0.001 A 
ATOM     28  C   UNL     1       1.229  -4.920  16.360  0.00  0.00    +0.002 A 
ATOM     29  C   UNL     1       1.030  -3.591  16.486  0.00  0.00    +0.026 A 
ATOM     30  C   UNL     1       1.265  -2.722  15.385  0.00  0.00    +0.043 A 
ATOM     31  N   UNL     1       1.147  -1.422  15.257  0.00  0.00    -0.380 N 
ATOM     32  C   UNL     1       1.530  -1.050  13.891  0.00  0.00    +0.144 C 
ATOM     33  H   UNL     1       0.860  -0.809  15.952  0.00  0.00    +0.160 HD
ENDBRANCH  23  24
ENDBRANCH  22  23
ENDBRANCH  20  22
ENDBRANCH   2  18
BRANCH   2  34
ATOM     34  C   UNL     1       2.524  -3.061   6.770  0.00  0.00    +0.104 C 
ATOM     35  N   UNL     1       3.634  -3.099   6.532  0.00  0.00    -0.191 NA
ENDBRANCH   2  34
TORSDOF 7
