REMARK  Name = ZINC35565834
REMARK  13 active torsions:
REMARK  status: ('A' for Active; 'I' for Inactive)
REMARK    1  A    between atoms: C_1  and  C_2
REMARK    2  A    between atoms: C_2  and  O_3
REMARK    3  A    between atoms: O_3  and  C_4
REMARK    4  A    between atoms: C_4  and  C_6
REMARK    5  A    between atoms: C_7  and  C_37
REMARK    6  A    between atoms: C_12  and  C_28
REMARK    7  A    between atoms: C_14  and  C_19
REMARK    8  A    between atoms: C_19  and  C_21
REMARK    9  A    between atoms: C_22  and  C_27
REMARK   10  A    between atoms: C_24  and  C_26
REMARK   11  A    between atoms: C_31  and  C_34
REMARK   12  A    between atoms: C_34  and  C_35
REMARK   13  A    between atoms: C_34  and  C_36
REMARK                            x       y       z     vdW  Elec       q    Type
REMARK                         _______ _______ _______ _____ _____    ______ ____
ROOT
ATOM      1  C   UNL     1      -2.863  -1.508  -0.098  0.00  0.00    +0.120 A 
ATOM      2  C   UNL     1      -3.041  -2.846   0.231  0.00  0.00    +0.062 A 
ATOM      3  N   UNL     1      -4.276  -3.275   0.273  0.00  0.00    -0.229 NA
ATOM      4  C   UNL     1      -5.294  -2.473   0.016  0.00  0.00    +0.169 A 
ATOM      5  S   UNL     1      -4.560  -0.995  -0.311  0.00  0.00    -0.045 S 
ATOM      6  N   UNL     1      -6.643  -2.775   0.021  0.00  0.00    -0.232 N 
ATOM      7  C   UNL     1      -7.738  -1.845  -0.279  0.00  0.00    +0.152 C 
ATOM      8  C   UNL     1      -9.015  -2.641  -0.142  0.00  0.00    +0.077 C 
ATOM      9  C   UNL     1      -8.655  -3.900   0.202  0.00  0.00    +0.250 C 
ATOM     10  C   UNL     1      -7.184  -3.976   0.296  0.00  0.00    +0.293 C 
ATOM     11  O   UNL     1      -6.555  -4.976   0.582  0.00  0.00    -0.266 OA
ATOM     12  O   UNL     1      -9.509  -4.927   0.421  0.00  0.00    -0.282 OA
ATOM     13  C   UNL     1      -1.874  -3.755   0.522  0.00  0.00    +0.067 C 
ENDROOT
BRANCH   7  14
ATOM     14  C   UNL     1      -7.601  -1.319  -1.684  0.00  0.00    -0.022 A 
ATOM     15  C   UNL     1      -7.322  -2.187  -2.723  0.00  0.00    +0.006 A 
ATOM     16  C   UNL     1      -7.197  -1.704  -4.012  0.00  0.00    +0.004 A 
ATOM     17  C   UNL     1      -7.350  -0.354  -4.263  0.00  0.00    -0.045 A 
ATOM     18  C   UNL     1      -7.629   0.514  -3.224  0.00  0.00    +0.004 A 
ATOM     19  C   UNL     1      -7.759   0.031  -1.935  0.00  0.00    +0.006 A 
BRANCH  17  20
ATOM     20  C   UNL     1      -7.212   0.173  -5.668  0.00  0.00    +0.013 C 
ATOM     21  C   UNL     1      -8.519   0.846  -6.091  0.00  0.00    +0.012 C 
ATOM     22  C   UNL     1      -6.073   1.192  -5.721  0.00  0.00    +0.012 C 
ENDBRANCH  17  20
ENDBRANCH   7  14
BRANCH   1  23
ATOM     23  C   UNL     1      -1.630  -0.734  -0.228  0.00  0.00    +0.348 C 
ATOM     24  O   UNL     1      -0.553  -1.269  -0.041  0.00  0.00    -0.244 OA
BRANCH  23  25
ATOM     25  O   UNL     1      -1.686   0.573  -0.555  0.00  0.00    -0.461 OA
BRANCH  25  27
ATOM     26  C   UNL     1      -0.704   2.728  -1.041  0.00  0.00    +0.048 C 
ATOM     27  C   UNL     1      -0.442   1.268  -0.665  0.00  0.00    +0.229 C 
ENDBRANCH  25  27
ENDBRANCH  23  25
ENDBRANCH   1  23
BRANCH   8  28
ATOM     28  C   UNL     1     -10.381  -2.146  -0.344  0.00  0.00    +0.203 C 
ATOM     29  O   UNL     1     -11.061  -2.586  -1.254  0.00  0.00    -0.286 OA
BRANCH  28  30
ATOM     30  C   UNL     1     -10.928  -1.120   0.550  0.00  0.00    +0.082 A 
ATOM     31  C   UNL     1     -12.191  -0.538   0.568  0.00  0.00    +0.057 A 
ATOM     32  N   UNL     1     -12.399   0.364   1.494  0.00  0.00    -0.249 NA
ATOM     33  C   UNL     1     -11.465   0.698   2.356  0.00  0.00    +0.076 A 
ATOM     34  S   UNL     1     -10.161  -0.275   1.924  0.00  0.00    -0.069 S 
ATOM     35  C   UNL     1     -11.545   1.707   3.472  0.00  0.00    +0.073 C 
ATOM     36  C   UNL     1     -13.259  -0.923  -0.423  0.00  0.00    +0.067 C 
ENDBRANCH  28  30
ENDBRANCH   8  28
TORSDOF 7
