REMARK  Name = ZINC09493944
REMARK  9 active torsions:
REMARK  status: ('A' for Active; 'I' for Inactive)
REMARK    1  A    between atoms: C_1  and  C_2
REMARK    2  A    between atoms: C_2  and  N_59
REMARK    3  A    between atoms: C_8  and  C_10
REMARK    4  A    between atoms: C_10  and  C_12
REMARK    5  A    between atoms: C_10  and  S_13
REMARK    6  A    between atoms: S_13  and  C_14
REMARK    7  A    between atoms: C_17  and  C_25
REMARK    8  A    between atoms: N_18  and  C_19
REMARK    9  A    between atoms: C_28  and  N_31
REMARK                            x       y       z     vdW  Elec       q    Type
REMARK                         _______ _______ _______ _____ _____    ______ ____
ROOT
ATOM      1  C   UNL     1       0.595   4.304   0.950  0.00  0.00    +0.197 A 
ATOM      2  N   UNL     1       0.847   5.543   0.591  0.00  0.00    -0.122 NA
ATOM      3  N   UNL     1       1.492   5.559  -0.521  0.00  0.00    -0.128 NA
ATOM      4  C   UNL     1       1.696   4.332  -0.939  0.00  0.00    +0.169 A 
ATOM      5  N   UNL     1       1.124   3.488  -0.012  0.00  0.00    -0.270 N 
ENDROOT
BRANCH   5   6
ATOM      6  C   UNL     1       1.094   2.087  -0.046  0.00  0.00    +0.051 A 
ATOM      7  C   UNL     1      -0.109   1.421  -0.233  0.00  0.00    +0.026 A 
ATOM      8  C   UNL     1      -0.135   0.041  -0.266  0.00  0.00    +0.002 A 
ATOM      9  C   UNL     1       1.036  -0.678  -0.112  0.00  0.00    +0.000 A 
ATOM     10  C   UNL     1       2.237  -0.018   0.075  0.00  0.00    +0.002 A 
ATOM     11  C   UNL     1       2.269   1.363   0.109  0.00  0.00    +0.026 A 
ENDBRANCH   5   6
BRANCH   4  12
ATOM     12  C   UNL     1       2.404   3.931  -2.173  0.00  0.00    +0.020 A 
ATOM     13  C   UNL     1       3.240   4.837  -2.828  0.00  0.00    +0.014 A 
ATOM     14  C   UNL     1       3.903   4.455  -3.976  0.00  0.00    +0.033 A 
ATOM     15  C   UNL     1       3.731   3.180  -4.485  0.00  0.00    +0.126 A 
ATOM     16  C   UNL     1       2.899   2.278  -3.844  0.00  0.00    +0.033 A 
ATOM     17  C   UNL     1       2.235   2.646  -2.692  0.00  0.00    +0.014 A 
BRANCH  15  18
ATOM     18  N   UNL     1       4.440   2.778  -5.721  0.00  0.00    +0.056 N 
ATOM     19  O   UNL     1       4.290   1.657  -6.172  0.00  0.00    -0.126 OA
ATOM     20  O   UNL     1       5.173   3.569  -6.287  0.00  0.00    -0.126 OA
ENDBRANCH  15  18
ENDBRANCH   4  12
BRANCH   1  21
ATOM     21  S   UNL     1      -0.263   3.790   2.401  0.00  0.00    -0.073 S 
BRANCH  21  22
ATOM     22  C   UNL     1      -0.631   5.402   3.136  0.00  0.00    +0.137 C 
ATOM     23  C   UNL     1      -1.586   6.173   2.223  0.00  0.00    +0.029 C 
BRANCH  22  29
ATOM     24  C   UNL     1      -2.858   7.205   6.948  0.00  0.00    -0.060 C 
ATOM     25  C   UNL     1      -1.899   6.034   6.706  0.00  0.00    +0.089 C 
ATOM     26  N   UNL     1      -1.275   6.206   5.385  0.00  0.00    -0.304 N 
ATOM     27  C   UNL     1      -0.645   7.499   5.076  0.00  0.00    +0.089 C 
ATOM     28  C   UNL     1      -1.659   8.614   5.380  0.00  0.00    -0.060 C 
ATOM     29  C   UNL     1      -1.276   5.204   4.484  0.00  0.00    +0.229 C 
ATOM     30  O   UNL     1      -1.795   4.143   4.758  0.00  0.00    -0.274 OA
ATOM     31  N   UNL     1      -2.113   8.472   6.780  0.00  0.00    +0.382 N 
ATOM     32  H   UNL     1      -1.291   8.459   7.396  0.00  0.00    -0.082 HD
BRANCH  31  34
ATOM     33  C   UNL     1      -2.118  10.883   7.182  0.00  0.00    -0.017 C 
ATOM     34  C   UNL     1      -2.972   9.615   7.151  0.00  0.00    -0.082 C 
ENDBRANCH  31  34
ENDBRANCH  22  29
ENDBRANCH  21  22
ENDBRANCH   1  21
TORSDOF 7
