REMARK  Name = ZINC13213731
REMARK  8 active torsions:
REMARK  status: ('A' for Active; 'I' for Inactive)
REMARK    1  A    between atoms: C_1  and  C_2
REMARK    2  A    between atoms: C_2  and  O_3
REMARK    3  A    between atoms: O_3  and  C_4
REMARK    4  A    between atoms: C_9  and  C_10
REMARK    5  A    between atoms: C_12  and  C_27
REMARK    6  A    between atoms: N_16  and  C_17
REMARK    7  A    between atoms: C_21  and  C_23
REMARK    8  A    between atoms: C_27  and  C_29
REMARK                            x       y       z     vdW  Elec       q    Type
REMARK                         _______ _______ _______ _____ _____    ______ ____
ROOT
ATOM      1  C   UNL     1       1.720  -1.800  -3.050  0.00  0.00    +0.153 C 
ATOM      2  C   UNL     1       3.090  -1.173  -2.933  0.00  0.00    +0.077 C 
ATOM      3  C   UNL     1       3.762  -1.489  -4.065  0.00  0.00    +0.250 C 
ATOM      4  C   UNL     1       2.890  -2.304  -4.936  0.00  0.00    +0.292 C 
ATOM      5  O   UNL     1       3.206  -2.744  -6.023  0.00  0.00    -0.266 OA
ATOM      6  N   UNL     1       1.693  -2.488  -4.346  0.00  0.00    -0.253 N 
ATOM      7  O   UNL     1       5.030  -1.116  -4.354  0.00  0.00    -0.282 OA
ENDROOT
BRANCH   1  13
ATOM      8  C   UNL     1       0.956  -2.369  -0.731  0.00  0.00    +0.126 A 
ATOM      9  C   UNL     1       0.755  -3.283   0.294  0.00  0.00    +0.046 A 
ATOM     10  C   UNL     1       1.106  -4.607   0.115  0.00  0.00    +0.004 A 
ATOM     11  C   UNL     1       1.657  -5.022  -1.083  0.00  0.00    +0.001 A 
ATOM     12  C   UNL     1       1.860  -4.113  -2.105  0.00  0.00    +0.009 A 
ATOM     13  C   UNL     1       1.505  -2.789  -1.933  0.00  0.00    +0.020 A 
BRANCH   8  14
ATOM     14  O   UNL     1       0.611  -1.066  -0.557  0.00  0.00    -0.492 OA
BRANCH  14  16
ATOM     15  C   UNL     1      -0.295   0.784   0.706  0.00  0.00    +0.048 C 
ATOM     16  C   UNL     1       0.078  -0.700   0.717  0.00  0.00    +0.225 C 
ENDBRANCH  14  16
ENDBRANCH   8  14
ENDBRANCH   1  13
BRANCH   6  17
ATOM     17  C   UNL     1       0.617  -3.207  -4.873  0.00  0.00    +0.038 A 
ATOM     18  C   UNL     1      -0.569  -3.312  -4.154  0.00  0.00    +0.023 A 
ATOM     19  C   UNL     1      -1.636  -4.022  -4.670  0.00  0.00    +0.003 A 
ATOM     20  C   UNL     1      -1.534  -4.631  -5.904  0.00  0.00    +0.015 A 
ATOM     21  C   UNL     1      -0.348  -4.531  -6.636  0.00  0.00    +0.065 A 
ATOM     22  C   UNL     1       0.729  -3.810  -6.116  0.00  0.00    +0.038 A 
BRANCH  21  23
ATOM     23  C   UNL     1      -0.235  -5.182  -7.956  0.00  0.00    +0.387 C 
ATOM     24  O   UNL     1      -1.181  -5.810  -8.411  0.00  0.00    -0.241 OA
ATOM     25  O   UNL     1       0.804  -5.093  -8.595  0.00  0.00    -0.241 OA
ENDBRANCH  21  23
ENDBRANCH   6  17
BRANCH   2  26
ATOM     26  C   UNL     1       3.594  -0.377  -1.810  0.00  0.00    +0.195 C 
ATOM     27  O   UNL     1       4.505  -0.802  -1.123  0.00  0.00    -0.287 OA
BRANCH  26  28
ATOM     28  C   UNL     1       2.997   0.940  -1.512  0.00  0.00    +0.026 A 
ATOM     29  C   UNL     1       2.026   1.477  -2.361  0.00  0.00    +0.015 A 
ATOM     30  C   UNL     1       1.470   2.706  -2.081  0.00  0.00    +0.050 A 
ATOM     31  C   UNL     1       1.872   3.415  -0.956  0.00  0.00    +0.166 A 
ATOM     32  C   UNL     1       2.842   2.884  -0.104  0.00  0.00    +0.167 A 
ATOM     33  C   UNL     1       3.398   1.649  -0.376  0.00  0.00    +0.061 A 
ATOM     34  O   UNL     1       3.056   3.767   0.915  0.00  0.00    -0.453 OA
ATOM     35  C   UNL     1       2.511   5.019   0.459  0.00  0.00    +0.466 C 
ATOM     36  O   UNL     1       1.482   4.627  -0.469  0.00  0.00    -0.453 OA
ENDBRANCH  26  28
ENDBRANCH   2  26
TORSDOF 7
