REMARK  Name = ZINC09693921
REMARK  7 active torsions:
REMARK  status: ('A' for Active; 'I' for Inactive)
REMARK    1  A    between atoms: C_1  and  C_2
REMARK    2  A    between atoms: C_7  and  N_8
REMARK    3  A    between atoms: C_14  and  C_16
REMARK    4  A    between atoms: C_22  and  C_23
REMARK    5  A    between atoms: C_22  and  N_68
REMARK    6  A    between atoms: C_24  and  C_35
REMARK    7  A    between atoms: C_26  and  C_28
REMARK                            x       y       z     vdW  Elec       q    Type
REMARK                         _______ _______ _______ _____ _____    ______ ____
ROOT
ATOM      1  C   UNL     1      -1.928   1.236  -3.316  0.00  0.00    +0.059 C 
ATOM      2  C   UNL     1      -3.203   1.890  -2.777  0.00  0.00    +0.009 C 
ATOM      3  C   UNL     1      -4.072   2.342  -3.954  0.00  0.00    -0.018 C 
ATOM      4  C   UNL     1      -4.387   1.137  -4.843  0.00  0.00    -0.078 C 
ATOM      5  C   UNL     1      -2.305   0.063  -4.223  0.00  0.00    -0.066 C 
ATOM      6  N   UNL     1      -3.119   0.569  -5.348  0.00  0.00    +0.384 N 
ATOM      7  H   UNL     1      -2.595   1.306  -5.834  0.00  0.00    -0.081 HD
ENDROOT
BRANCH   1  14
ATOM      8  N   UNL     1       2.043   2.943  -0.796  0.00  0.00    -0.327 N 
ATOM      9  C   UNL     1       1.378   3.278  -2.062  0.00  0.00    +0.124 C 
ATOM     10  C   UNL     1      -0.119   2.973  -1.944  0.00  0.00    +0.126 C 
ATOM     11  N   UNL     1      -0.283   1.580  -1.501  0.00  0.00    -0.298 N 
ATOM     12  C   UNL     1       0.463   1.136  -0.313  0.00  0.00    +0.126 C 
ATOM     13  C   UNL     1       1.938   1.508  -0.497  0.00  0.00    +0.124 C 
ATOM     14  C   UNL     1      -1.095   0.734  -2.164  0.00  0.00    +0.217 C 
ATOM     15  O   UNL     1      -1.155  -0.432  -1.836  0.00  0.00    -0.275 OA
BRANCH   8  22
ATOM     16  C   UNL     1       2.844   4.959   1.044  0.00  0.00    +0.045 C 
ATOM     17  C   UNL     1       3.812   4.336   0.072  0.00  0.00    -0.029 A 
ATOM     18  C   UNL     1       5.133   4.741   0.058  0.00  0.00    +0.006 A 
ATOM     19  C   UNL     1       6.023   4.170  -0.833  0.00  0.00    +0.020 A 
ATOM     20  C   UNL     1       5.595   3.190  -1.712  0.00  0.00    +0.043 A 
ATOM     21  C   UNL     1       4.275   2.778  -1.699  0.00  0.00    +0.043 A 
ATOM     22  C   UNL     1       3.378   3.354  -0.809  0.00  0.00    +0.034 A 
ATOM     23 CL   UNL     1       6.716   2.475  -2.828  0.00  0.00    -0.083 Cl
ENDBRANCH   8  22
ENDBRANCH   1  14
BRANCH   6  24
ATOM     24  C   UNL     1      -3.401  -0.525  -6.300  0.00  0.00    -0.019 C 
BRANCH  24  25
ATOM     25  C   UNL     1      -4.038   0.058  -7.535  0.00  0.00    +0.066 A 
ATOM     26  C   UNL     1      -3.388   0.513  -8.622  0.00  0.00    +0.124 A 
ATOM     27  O   UNL     1      -4.320   0.947  -9.493  0.00  0.00    -0.440 OA
ATOM     28  C   UNL     1      -5.526   0.752  -8.932  0.00  0.00    +0.228 A 
ATOM     29  N   UNL     1      -5.353   0.209  -7.750  0.00  0.00    -0.216 NA
ATOM     30  C   UNL     1      -1.895   0.535  -8.826  0.00  0.00    +0.088 C 
BRANCH  28  31
ATOM     31  C   UNL     1      -6.828   1.087  -9.546  0.00  0.00    +0.037 A 
ATOM     32  C   UNL     1      -8.015   0.829  -8.857  0.00  0.00    +0.014 A 
ATOM     33  C   UNL     1      -9.226   1.149  -9.433  0.00  0.00    +0.021 A 
ATOM     34  C   UNL     1      -9.268   1.716 -10.696  0.00  0.00    +0.041 A 
ATOM     35  C   UNL     1      -8.094   1.969 -11.386  0.00  0.00    +0.021 A 
ATOM     36  C   UNL     1      -6.876   1.658 -10.819  0.00  0.00    +0.014 A 
ATOM     37 CL   UNL     1     -10.797   2.110 -11.416  0.00  0.00    -0.084 Cl
ENDBRANCH  28  31
ENDBRANCH  24  25
ENDBRANCH   6  24
TORSDOF 5
