REMARK  Name = ZINC08821234
REMARK  3 active torsions:
REMARK  status: ('A' for Active; 'I' for Inactive)
REMARK    1  A    between atoms: C_4  and  C_8
REMARK    2  A    between atoms: C_11  and  C_13
REMARK    3  A    between atoms: N_19  and  C_20
REMARK                            x       y       z     vdW  Elec       q    Type
REMARK                         _______ _______ _______ _____ _____    ______ ____
ROOT
ATOM      1  C   UNL     1       7.530  -0.552  -1.192  0.00  0.00    +0.066 C 
ATOM      2  C   UNL     1       7.401  -0.325  -2.531  0.00  0.00    +0.081 C 
ATOM      3  C   UNL     1       6.309   0.331  -3.266  0.00  0.00    +0.257 C 
ATOM      4  O   UNL     1       5.330   0.771  -2.690  0.00  0.00    -0.269 OA
ATOM      5  N   UNL     1       6.436   0.423  -4.579  0.00  0.00    -0.260 N 
ATOM      6  C   UNL     1       7.551  -0.081  -5.213  0.00  0.00    +0.166 C 
ATOM      7  N   UNL     1       7.836  -0.074  -6.496  0.00  0.00    -0.224 NA
ATOM      8  S   UNL     1       8.520  -0.736  -3.863  0.00  0.00    -0.049 S 
ATOM      9  H   UNL     1       5.738   0.848  -5.101  0.00  0.00    +0.157 HD
ENDROOT
BRANCH   7  10
ATOM     10  C   UNL     1       8.965  -0.700  -6.950  0.00  0.00    +0.085 A 
ATOM     11  C   UNL     1       9.235  -2.018  -6.575  0.00  0.00    +0.031 A 
ATOM     12  C   UNL     1      10.375  -2.644  -7.036  0.00  0.00    +0.022 A 
ATOM     13  C   UNL     1      11.251  -1.968  -7.868  0.00  0.00    +0.042 A 
ATOM     14  C   UNL     1      10.991  -0.661  -8.243  0.00  0.00    +0.042 A 
ATOM     15  C   UNL     1       9.850  -0.025  -7.795  0.00  0.00    +0.068 A 
ATOM     16 CL   UNL     1       9.521   1.611  -8.273  0.00  0.00    -0.081 Cl
ATOM     17 CL   UNL     1      12.683  -2.763  -8.444  0.00  0.00    -0.083 Cl
ENDBRANCH   7  10
BRANCH   1  21
ATOM     18  C   UNL     1       4.491   0.390   0.417  0.00  0.00    +0.138 A 
ATOM     19  C   UNL     1       5.174  -0.092   1.498  0.00  0.00    +0.050 A 
ATOM     20  C   UNL     1       6.424  -0.517   1.040  0.00  0.00    +0.050 A 
ATOM     21  C   UNL     1       6.453  -0.274  -0.322  0.00  0.00    +0.130 A 
ATOM     22  O   UNL     1       5.269   0.270  -0.675  0.00  0.00    -0.455 OA
BRANCH  18  26
ATOM     23  C   UNL     1       0.556   1.985   0.486  0.00  0.00    +0.003 A 
ATOM     24  C   UNL     1       1.624   2.801   0.155  0.00  0.00    +0.021 A 
ATOM     25  C   UNL     1       2.906   2.290   0.131  0.00  0.00    +0.053 A 
ATOM     26  C   UNL     1       3.124   0.944   0.441  0.00  0.00    +0.054 A 
ATOM     27  C   UNL     1       2.040   0.127   0.774  0.00  0.00    +0.053 A 
ATOM     28  C   UNL     1       0.764   0.653   0.795  0.00  0.00    +0.021 A 
ATOM     29 CL   UNL     1       2.298  -1.546   1.161  0.00  0.00    -0.083 Cl
ATOM     30 CL   UNL     1       4.244   3.316  -0.285  0.00  0.00    -0.083 Cl
ENDBRANCH  18  26
ENDBRANCH   1  21
TORSDOF 3
