REMARK  Name = ZINC16009611
REMARK  7 active torsions:
REMARK  status: ('A' for Active; 'I' for Inactive)
REMARK    1  A    between atoms: C_1  and  C_2
REMARK    2  A    between atoms: C_3  and  N_11
REMARK    3  A    between atoms: C_7  and  N_8
REMARK    4  A    between atoms: C_16  and  C_33
REMARK    5  A    between atoms: C_33  and  C_34
REMARK    6  A    between atoms: C_34  and  S_35
REMARK    7  A    between atoms: S_35  and  C_36
REMARK                            x       y       z     vdW  Elec       q    Type
REMARK                         _______ _______ _______ _____ _____    ______ ____
ROOT
ATOM      1  N   UNL     1      -0.721  -0.041  -2.331  0.00  0.00    -0.209 N 
ATOM      2  C   UNL     1       0.169   0.525  -3.155  0.00  0.00    +0.232 C 
ATOM      3  O   UNL     1       1.371   0.525  -2.994  0.00  0.00    -0.274 OA
ATOM      4  C   UNL     1      -0.557   1.164  -4.316  0.00  0.00    +0.107 C 
ATOM      5  C   UNL     1      -0.406   2.697  -4.232  0.00  0.00    +0.068 C 
ATOM      6  N   UNL     1      -1.519   3.143  -3.353  0.00  0.00    -0.295 NA
ATOM      7  C   UNL     1      -2.651   2.281  -3.738  0.00  0.00    +0.136 C 
ATOM      8  C   UNL     1      -2.053   0.877  -4.006  0.00  0.00    +0.123 C 
ATOM      9  C   UNL     1      -1.995   0.088  -2.717  0.00  0.00    +0.233 C 
ATOM     10  O   UNL     1      -2.955  -0.355  -2.123  0.00  0.00    -0.274 OA
ATOM     11  C   UNL     1      -3.362   2.811  -4.950  0.00  0.00    +0.003 A 
ATOM     12  C   UNL     1      -2.963   3.084  -6.239  0.00  0.00    +0.008 A 
ATOM     13  C   UNL     1      -3.874   3.579  -7.156  0.00  0.00    +0.000 A 
ATOM     14  C   UNL     1      -5.185   3.800  -6.773  0.00  0.00    +0.002 A 
ATOM     15  C   UNL     1      -5.589   3.528  -5.483  0.00  0.00    +0.023 A 
ATOM     16  C   UNL     1      -4.678   3.030  -4.554  0.00  0.00    +0.039 A 
ATOM     17  N   UNL     1      -4.842   2.683  -3.211  0.00  0.00    -0.283 N 
ATOM     18  C   UNL     1      -3.698   2.235  -2.658  0.00  0.00    +0.243 C 
ATOM     19  O   UNL     1      -3.543   1.865  -1.514  0.00  0.00    -0.273 OA
ATOM     20  H   UNL     1      -1.284   3.019  -2.380  0.00  0.00    +0.123 HD
ATOM     21  H   UNL     1      -5.682   2.757  -2.731  0.00  0.00    +0.155 HD
ENDROOT
BRANCH   1  24
ATOM     22  C   UNL     1      -0.537   1.447   0.089  0.00  0.00    +0.048 C 
ATOM     23  C   UNL     1      -0.246  -0.031   0.039  0.00  0.00    +0.002 A 
ATOM     24  C   UNL     1      -0.347  -0.719  -1.162  0.00  0.00    +0.049 A 
ATOM     25  C   UNL     1      -0.078  -2.080  -1.203  0.00  0.00    +0.024 A 
ATOM     26  C   UNL     1       0.289  -2.746  -0.050  0.00  0.00    +0.004 A 
ATOM     27  C   UNL     1       0.388  -2.058   1.145  0.00  0.00    +0.033 A 
ATOM     28  C   UNL     1       0.127  -0.700   1.188  0.00  0.00    +0.131 A 
BRANCH  28  29
ATOM     29  N   UNL     1       0.241   0.035   2.468  0.00  0.00    +0.057 N 
ATOM     30  O   UNL     1       0.676   1.163   2.481  0.00  0.00    -0.126 OA
ATOM     31  O   UNL     1      -0.100  -0.493   3.501  0.00  0.00    -0.126 OA
ENDBRANCH  28  29
ENDBRANCH   1  24
BRANCH   5  32
ATOM     32  C   UNL     1       0.945   3.066  -3.613  0.00  0.00    +0.030 C 
BRANCH  32  33
ATOM     33  C   UNL     1       1.127   4.584  -3.654  0.00  0.00    +0.070 C 
BRANCH  33  34
ATOM     34  S   UNL     1       2.727   5.021  -2.920  0.00  0.00    -0.164 S 
ATOM     35  C   UNL     1       2.788   6.830  -3.043  0.00  0.00    +0.084 C 
ENDBRANCH  33  34
ENDBRANCH  32  33
ENDBRANCH   5  32
TORSDOF 5
