REMARK  Name = ZINC05542002
REMARK  7 active torsions:
REMARK  status: ('A' for Active; 'I' for Inactive)
REMARK    1  A    between atoms: C_1  and  C_2
REMARK    2  A    between atoms: C_2  and  C_3
REMARK    3  A    between atoms: C_3  and  C_13
REMARK    4  A    between atoms: C_13  and  C_14
REMARK    5  A    between atoms: C_17  and  C_33
REMARK    6  A    between atoms: C_33  and  O_35
REMARK    7  A    between atoms: O_35  and  C_36
REMARK                            x       y       z     vdW  Elec       q    Type
REMARK                         _______ _______ _______ _____ _____    ______ ____
ROOT
ATOM      1  C   UNL     1      -1.268   2.789   3.030  0.00  0.00    +0.081 C 
ATOM      2  C   UNL     1      -2.566   2.322   2.327  0.00  0.00    +0.056 C 
ATOM      3  C   UNL     1      -2.017   1.298   1.319  0.00  0.00    +0.175 C 
ATOM      4  C   UNL     1      -2.782   1.365   0.020  0.00  0.00    +0.055 A 
ATOM      5  C   UNL     1      -2.202   1.630  -1.173  0.00  0.00    -0.015 A 
ATOM      6  C   UNL     1      -3.252   1.579  -2.171  0.00  0.00    +0.003 A 
ATOM      7  C   UNL     1      -3.249   1.760  -3.557  0.00  0.00    +0.010 A 
ATOM      8  C   UNL     1      -4.456   1.637  -4.202  0.00  0.00    +0.001 A 
ATOM      9  C   UNL     1      -5.627   1.349  -3.521  0.00  0.00    +0.002 A 
ATOM     10  C   UNL     1      -5.659   1.165  -2.150  0.00  0.00    +0.026 A 
ATOM     11  C   UNL     1      -4.449   1.282  -1.470  0.00  0.00    +0.047 A 
ATOM     12  N   UNL     1      -4.126   1.162  -0.149  0.00  0.00    -0.356 N 
ATOM     13  H   UNL     1      -4.754   0.964   0.563  0.00  0.00    +0.166 HD
ATOM     14  C   UNL     1      -0.737   1.920  -1.387  0.00  0.00    +0.056 C 
ATOM     15  C   UNL     1       0.071   1.364  -0.204  0.00  0.00    +0.114 C 
ATOM     16  N   UNL     1      -0.636   1.740   1.032  0.00  0.00    -0.280 N 
ATOM     17  C   UNL     1      -0.179   2.535   2.009  0.00  0.00    +0.220 C 
ATOM     18  O   UNL     1       0.945   2.985   2.067  0.00  0.00    -0.275 OA
ENDROOT
BRANCH   3  19
ATOM     19  C   UNL     1      -2.047  -0.096   1.892  0.00  0.00    +0.337 C 
ATOM     20  O   UNL     1      -2.870  -0.388   2.726  0.00  0.00    -0.248 OA
BRANCH  19  21
ATOM     21  O   UNL     1      -1.159  -1.012   1.476  0.00  0.00    -0.466 OA
ATOM     22  C   UNL     1      -1.247  -2.333   2.071  0.00  0.00    +0.280 C 
ENDBRANCH  19  21
ENDBRANCH   3  19
BRANCH   1  23
ATOM     23  C   UNL     1      -1.348   4.279   3.369  0.00  0.00    +0.050 C 
BRANCH  23  24
ATOM     24  C   UNL     1      -0.173   4.660   4.272  0.00  0.00    +0.096 C 
ATOM     25  C   UNL     1      -0.269   6.148   4.677  0.00  0.00    +0.198 C 
ATOM     26  O   UNL     1       1.110   6.589   4.623  0.00  0.00    -0.346 OA
ATOM     27  C   UNL     1       1.645   5.860   3.502  0.00  0.00    +0.171 C 
ATOM     28  O   UNL     1       1.069   4.548   3.552  0.00  0.00    -0.340 OA
ATOM     29  C   UNL     1       1.254   6.555   2.200  0.00  0.00    +0.065 C 
ATOM     30  C   UNL     1       1.820   5.772   1.013  0.00  0.00    +0.005 C 
ATOM     31  C   UNL     1       3.344   5.700   1.130  0.00  0.00    +0.000 C 
ATOM     32  C   UNL     1       3.724   4.989   2.430  0.00  0.00    +0.005 C 
ATOM     33  C   UNL     1       3.164   5.771   3.621  0.00  0.00    +0.065 C 
BRANCH  24  35
ATOM     34  C   UNL     1       0.953   4.246   6.463  0.00  0.00    +0.007 C 
ATOM     35  C   UNL     1      -0.149   3.769   5.516  0.00  0.00    +0.034 C 
ENDBRANCH  24  35
ENDBRANCH  23  24
ENDBRANCH   1  23
TORSDOF 5
