REMARK  Name = ZINC12541243
REMARK  8 active torsions:
REMARK  status: ('A' for Active; 'I' for Inactive)
REMARK    1  A    between atoms: C_1  and  C_2
REMARK    2  A    between atoms: C_2  and  C_3
REMARK    3  A    between atoms: C_6  and  N_9
REMARK    4  A    between atoms: C_11  and  C_16
REMARK    5  A    between atoms: C_16  and  O_18
REMARK    6  A    between atoms: O_18  and  C_19
REMARK    7  A    between atoms: C_19  and  C_20
REMARK    8  A    between atoms: C_25  and  C_28
REMARK                            x       y       z     vdW  Elec       q    Type
REMARK                         _______ _______ _______ _____ _____    ______ ____
ROOT
ATOM      1  C   UNL     1       3.347   5.820   0.905  0.00  0.00    +0.328 C 
ENDROOT
BRANCH   1   2
ATOM      2  C   UNL     1       4.826   5.838   0.616  0.00  0.00    +0.256 C 
ATOM      3  O   UNL     1       5.306   5.017  -0.137  0.00  0.00    -0.272 OA
ATOM      4  N   UNL     1       5.615   6.765   1.194  0.00  0.00    -0.262 N 
ATOM      5  C   UNL     1       6.978   6.781   0.927  0.00  0.00    +0.165 A 
ATOM      6  N   UNL     1       7.910   7.596   1.386  0.00  0.00    -0.225 NA
ATOM      7  C   UNL     1       9.177   7.466   1.023  0.00  0.00    +0.080 A 
ATOM      8  C   UNL     1       9.528   6.468   0.157  0.00  0.00    +0.076 A 
ATOM      9  S   UNL     1       7.938   5.699  -0.123  0.00  0.00    -0.060 S 
ATOM     10  H   UNL     1       5.231   7.421   1.796  0.00  0.00    +0.157 HD
BRANCH   7  11
ATOM     11  C   UNL     1      10.206   8.393   1.553  0.00  0.00    +0.002 A 
ATOM     12  C   UNL     1      11.540   8.249   1.173  0.00  0.00    +0.011 A 
ATOM     13  C   UNL     1      12.493   9.118   1.663  0.00  0.00    +0.022 A 
ATOM     14  C   UNL     1      12.129  10.125   2.541  0.00  0.00    +0.059 A 
ATOM     15  C   UNL     1      10.806  10.270   2.926  0.00  0.00    +0.060 A 
ATOM     16  C   UNL     1       9.844   9.409   2.436  0.00  0.00    +0.031 A 
ATOM     17 CL   UNL     1      10.357  11.536   4.025  0.00  0.00    -0.082 Cl
ATOM     18 CL   UNL     1      13.335  11.210   3.160  0.00  0.00    -0.082 Cl
ENDBRANCH   7  11
ENDBRANCH   1   2
BRANCH   1  19
ATOM     19  O   UNL     1       2.722   4.736   0.168  0.00  0.00    -0.455 OA
BRANCH  19  20
ATOM     20  C   UNL     1       1.397   4.582   0.317  0.00  0.00    +0.313 C 
ATOM     21  O   UNL     1       0.780   5.329   1.039  0.00  0.00    -0.250 OA
BRANCH  20  24
ATOM     22  N   UNL     1      -1.127   1.964   0.018  0.00  0.00    -0.271 N 
ATOM     23  C   UNL     1      -0.800   3.394   0.021  0.00  0.00    +0.128 C 
ATOM     24  C   UNL     1       0.680   3.478  -0.416  0.00  0.00    +0.124 C 
ATOM     25  C   UNL     1       1.214   2.092   0.012  0.00  0.00    +0.112 C 
ATOM     26  C   UNL     1      -0.014   1.209   0.024  0.00  0.00    +0.221 C 
ATOM     27  O   UNL     1       0.002  -0.004   0.032  0.00  0.00    -0.275 OA
BRANCH  22  31
ATOM     28  C   UNL     1      -5.003   0.438   0.003  0.00  0.00    -0.048 A 
ATOM     29  C   UNL     1      -3.924  -0.419  -0.112  0.00  0.00    +0.005 A 
ATOM     30  C   UNL     1      -2.638   0.083  -0.107  0.00  0.00    +0.024 A 
ATOM     31  C   UNL     1      -2.429   1.451   0.012  0.00  0.00    +0.036 A 
ATOM     32  C   UNL     1      -3.514   2.308   0.133  0.00  0.00    +0.024 A 
ATOM     33  C   UNL     1      -4.798   1.800   0.122  0.00  0.00    +0.005 A 
BRANCH  28  35
ATOM     34  C   UNL     1      -6.832  -0.434   1.432  0.00  0.00    +0.009 C 
ATOM     35  C   UNL     1      -6.405  -0.114  -0.002  0.00  0.00    +0.032 C 
ENDBRANCH  28  35
ENDBRANCH  22  31
ENDBRANCH  20  24
ENDBRANCH  19  20
ENDBRANCH   1  19
TORSDOF 7
