REMARK  Name = ZINC42888908
REMARK  5 active torsions:
REMARK  status: ('A' for Active; 'I' for Inactive)
REMARK    1  A    between atoms: C_1  and  C_2
REMARK    2  A    between atoms: C_5  and  N_8
REMARK    3  A    between atoms: N_8  and  C_9
REMARK    4  A    between atoms: C_10  and  C_12
REMARK    5  A    between atoms: C_12  and  C_13
REMARK                            x       y       z     vdW  Elec       q    Type
REMARK                         _______ _______ _______ _____ _____    ______ ____
ROOT
ATOM      1  N   UNL     1      -1.358  -2.098   2.449  0.00  0.00    -0.301 N 
ATOM      2  C   UNL     1      -1.414  -0.664   2.746  0.00  0.00    +0.132 C 
ATOM      3  C   UNL     1      -1.954  -2.981   3.275  0.00  0.00    +0.218 C 
ATOM      4  O   UNL     1      -1.908  -4.167   3.030  0.00  0.00    -0.276 OA
ENDROOT
BRANCH   1   9
ATOM      5  C   UNL     1      -3.358  -0.292  -1.240  0.00  0.00    +0.007 C 
ATOM      6  C   UNL     1      -2.213  -1.217  -0.825  0.00  0.00    -0.014 C 
ATOM      7  C   UNL     1      -2.776  -2.414  -0.056  0.00  0.00    +0.005 C 
ATOM      8  C   UNL     1      -1.631  -3.339   0.359  0.00  0.00    +0.023 C 
ATOM      9  C   UNL     1      -0.655  -2.572   1.255  0.00  0.00    +0.076 C 
ATOM     10  C   UNL     1      -0.091  -1.375   0.486  0.00  0.00    +0.023 C 
ATOM     11  C   UNL     1      -1.237  -0.450   0.070  0.00  0.00    +0.005 C 
ENDBRANCH   1   9
BRANCH   3  12
ATOM     12  C   UNL     1      -2.677  -2.493   4.504  0.00  0.00    +0.127 C 
BRANCH  12  13
ATOM     13  C   UNL     1      -3.258  -3.688   5.262  0.00  0.00    +0.169 C 
ATOM     14  C   UNL     1      -3.961  -3.229   6.524  0.00  0.00    +0.241 C 
ATOM     15  O   UNL     1      -3.469  -2.648   7.467  0.00  0.00    -0.273 OA
ATOM     16  N   UNL     1      -5.249  -3.602   6.380  0.00  0.00    -0.239 N 
ATOM     17  C   UNL     1      -5.454  -4.225   5.214  0.00  0.00    +0.307 C 
ATOM     18  O   UNL     1      -6.535  -4.654   4.858  0.00  0.00    -0.252 OA
ATOM     19  N   UNL     1      -4.329  -4.328   4.478  0.00  0.00    -0.287 N 
ATOM     20  H   UNL     1      -5.941  -3.438   7.040  0.00  0.00    +0.159 HD
ATOM     21  H   UNL     1      -4.240  -4.740   3.605  0.00  0.00    +0.151 HD
ENDBRANCH  12  13
ENDBRANCH   3  12
TORSDOF 3
