REMARK  Name = ZINC12861580
REMARK  5 active torsions:
REMARK  status: ('A' for Active; 'I' for Inactive)
REMARK    1  A    between atoms: C_4  and  C_7
REMARK    2  A    between atoms: C_16  and  C_17
REMARK    3  A    between atoms: C_16  and  N_47
REMARK    4  A    between atoms: N_19  and  C_20
REMARK    5  A    between atoms: C_23  and  N_27
REMARK                            x       y       z     vdW  Elec       q    Type
REMARK                         _______ _______ _______ _____ _____    ______ ____
ROOT
ATOM      1  C   UNL     1       8.458   2.004   0.118  0.00  0.00    -0.005 C 
ATOM      2  C   UNL     1       9.588   0.986   0.234  0.00  0.00    -0.047 A 
ATOM      3  C   UNL     1      10.890   1.217  -0.205  0.00  0.00    +0.010 A 
ATOM      4  C   UNL     1      11.832   0.256  -0.064  0.00  0.00    +0.045 A 
ATOM      5  S   UNL     1      10.905  -1.058   0.715  0.00  0.00    -0.101 S 
ATOM      6  C   UNL     1       9.342  -0.231   0.794  0.00  0.00    -0.010 A 
ATOM      7  C   UNL     1       8.038  -0.715   1.340  0.00  0.00    +0.024 C 
ATOM      8  C   UNL     1       7.111   0.503   1.486  0.00  0.00    -0.072 C 
ATOM      9  N   UNL     1       7.170   1.279   0.224  0.00  0.00    +0.393 N 
ATOM     10  H   UNL     1       7.090   0.630  -0.567  0.00  0.00    -0.080 HD
ENDROOT
BRANCH   1  14
ATOM     11  C   UNL     1       8.640   3.937  -3.687  0.00  0.00    +0.000 A 
ATOM     12  C   UNL     1       9.130   4.575  -2.563  0.00  0.00    +0.000 A 
ATOM     13  C   UNL     1       9.072   3.950  -1.332  0.00  0.00    +0.002 A 
ATOM     14  C   UNL     1       8.522   2.686  -1.224  0.00  0.00    -0.057 A 
ATOM     15  C   UNL     1       8.036   2.045  -2.349  0.00  0.00    +0.002 A 
ATOM     16  C   UNL     1       8.091   2.673  -3.579  0.00  0.00    +0.000 A 
ENDBRANCH   1  14
BRANCH   9  17
ATOM     17  C   UNL     1       6.049   2.238   0.171  0.00  0.00    +0.020 C 
BRANCH  17  18
ATOM     18  C   UNL     1       4.760   1.466   0.066  0.00  0.00    +0.201 C 
ATOM     19  O   UNL     1       4.778   0.253   0.059  0.00  0.00    -0.278 OA
ATOM     20  N   UNL     1       3.586   2.122  -0.021  0.00  0.00    -0.286 N 
ATOM     21  H   UNL     1       3.575   3.090  -0.082  0.00  0.00    +0.155 HD
BRANCH  20  22
ATOM     22  C   UNL     1       2.382   1.407  -0.024  0.00  0.00    +0.048 A 
ATOM     23  C   UNL     1       2.314   0.163  -0.636  0.00  0.00    +0.026 A 
ATOM     24  C   UNL     1       1.125  -0.541  -0.637  0.00  0.00    +0.034 A 
ATOM     25  C   UNL     1       0.003  -0.006  -0.030  0.00  0.00    +0.127 A 
ATOM     26  C   UNL     1       0.067   1.233   0.580  0.00  0.00    +0.049 A 
ATOM     27  C   UNL     1       1.254   1.942   0.585  0.00  0.00    +0.041 A 
ATOM     28 BR   UNL     1       1.341   3.636   1.419  0.00  0.00    -0.048 Br
BRANCH  25  29
ATOM     29  N   UNL     1      -1.269  -0.763  -0.034  0.00  0.00    +0.056 N 
ATOM     30  O   UNL     1      -2.258  -0.293   0.499  0.00  0.00    -0.126 OA
ATOM     31  O   UNL     1      -1.327  -1.854  -0.571  0.00  0.00    -0.126 OA
ENDBRANCH  25  29
ENDBRANCH  20  22
ENDBRANCH  17  18
ENDBRANCH   9  17
TORSDOF 5
