REMARK  Name = ZINC12794922
REMARK  6 active torsions:
REMARK  status: ('A' for Active; 'I' for Inactive)
REMARK    1  A    between atoms: C_4  and  S_27
REMARK    2  A    between atoms: C_5  and  N_7
REMARK    3  A    between atoms: C_8  and  C_10
REMARK    4  A    between atoms: C_10  and  N_64
REMARK    5  A    between atoms: C_14  and  C_17
REMARK    6  A    between atoms: S_27  and  C_28
REMARK                            x       y       z     vdW  Elec       q    Type
REMARK                         _______ _______ _______ _____ _____    ______ ____
ROOT
ATOM      1  N   UNL     1      -2.433   1.078  -0.126  0.00  0.00    -0.286 N 
ATOM      2  C   UNL     1      -2.446  -0.269  -0.095  0.00  0.00    +0.201 C 
ATOM      3  O   UNL     1      -1.401  -0.886  -0.096  0.00  0.00    -0.278 OA
ATOM      4  H   UNL     1      -3.266   1.570  -0.201  0.00  0.00    +0.155 HD
ENDROOT
BRANCH   1   9
ATOM      5  C   UNL     1       1.144   1.873  -0.465  0.00  0.00    +0.002 A 
ATOM      6  C   UNL     1       1.190   3.137   0.094  0.00  0.00    +0.001 A 
ATOM      7  C   UNL     1       0.040   3.723   0.586  0.00  0.00    +0.017 A 
ATOM      8  C   UNL     1      -1.168   3.042   0.519  0.00  0.00    +0.034 A 
ATOM      9  C   UNL     1      -1.216   1.769  -0.050  0.00  0.00    +0.047 A 
ATOM     10  C   UNL     1      -0.055   1.187  -0.536  0.00  0.00    +0.024 A 
BRANCH   8  11
ATOM     11  S   UNL     1      -2.638   3.786   1.144  0.00  0.00    -0.088 S 
BRANCH  11  12
ATOM     12  C   UNL     1      -2.092   5.335   1.784  0.00  0.00    +0.013 A 
ATOM     13  C   UNL     1      -1.583   5.414   3.075  0.00  0.00    +0.016 A 
ATOM     14  C   UNL     1      -1.152   6.628   3.572  0.00  0.00    +0.021 A 
ATOM     15  C   UNL     1      -1.237   7.767   2.790  0.00  0.00    +0.041 A 
ATOM     16  C   UNL     1      -1.748   7.692   1.506  0.00  0.00    +0.021 A 
ATOM     17  C   UNL     1      -2.176   6.480   1.002  0.00  0.00    +0.016 A 
ATOM     18 CL   UNL     1      -0.699   9.292   3.421  0.00  0.00    -0.084 Cl
ENDBRANCH  11  12
ENDBRANCH   8  11
ENDBRANCH   1   9
BRANCH   2  19
ATOM     19  C   UNL     1      -3.758  -1.009  -0.060  0.00  0.00    +0.019 C 
BRANCH  19  25
ATOM     20  C   UNL     1      -2.847  -2.849   1.222  0.00  0.00    -0.078 C 
ATOM     21  C   UNL     1      -2.730  -4.374   1.282  0.00  0.00    -0.018 C 
ATOM     22  C   UNL     1      -1.917  -4.865   0.081  0.00  0.00    +0.007 C 
ATOM     23  C   UNL     1      -2.596  -4.401  -1.210  0.00  0.00    +0.040 C 
ATOM     24  C   UNL     1      -2.717  -2.875  -1.197  0.00  0.00    -0.067 C 
ATOM     25  N   UNL     1      -3.531  -2.469  -0.032  0.00  0.00    +0.386 N 
ATOM     26  H   UNL     1      -4.438  -2.948  -0.075  0.00  0.00    -0.081 HD
BRANCH  23  27
ATOM     27  C   UNL     1      -1.770  -4.830  -2.396  0.00  0.00    +0.135 A 
ATOM     28  N   UNL     1      -0.533  -4.490  -2.644  0.00  0.00    -0.134 NA
ATOM     29  N   UNL     1      -0.141  -5.044  -3.737  0.00  0.00    -0.134 NA
ATOM     30  C   UNL     1      -1.108  -5.764  -4.232  0.00  0.00    +0.133 A 
ATOM     31  N   UNL     1      -2.168  -5.643  -3.399  0.00  0.00    -0.315 N 
ATOM     32  C   UNL     1      -3.489  -6.249  -3.576  0.00  0.00    +0.125 C 
ATOM     33  C   UNL     1      -3.345  -7.548  -4.373  0.00  0.00    +0.022 C 
ATOM     34  C   UNL     1      -3.454  -7.252  -5.868  0.00  0.00    +0.002 C 
ATOM     35  C   UNL     1      -2.336  -6.312  -6.309  0.00  0.00    +0.008 C 
ATOM     36  C   UNL     1      -1.074  -6.595  -5.488  0.00  0.00    +0.076 C 
ENDBRANCH  23  27
ENDBRANCH  19  25
ENDBRANCH   2  19
TORSDOF 6
