REMARK  Name = ZINC43279833
REMARK  10 active torsions:
REMARK  status: ('A' for Active; 'I' for Inactive)
REMARK    1  A    between atoms: C_1  and  C_2
REMARK    2  A    between atoms: C_5  and  O_26
REMARK    3  A    between atoms: C_6  and  N_8
REMARK    4  A    between atoms: N_11  and  C_12
REMARK    5  A    between atoms: N_11  and  C_13
REMARK    6  A    between atoms: C_13  and  C_15
REMARK    7  A    between atoms: C_13  and  C_16
REMARK    8  A    between atoms: C_19  and  S_22
REMARK    9  A    between atoms: S_22  and  N_25
REMARK   10  A    between atoms: O_26  and  C_27
REMARK                            x       y       z     vdW  Elec       q    Type
REMARK                         _______ _______ _______ _____ _____    ______ ____
ROOT
ATOM      1  N   UNL     1       0.056  -2.877   2.422  0.00  0.00    -0.266 N 
ATOM      2  C   UNL     1       0.157  -2.173   3.567  0.00  0.00    +0.307 C 
ATOM      3  O   UNL     1       0.163  -0.958   3.535  0.00  0.00    -0.252 OA
ATOM      4  N   UNL     1       0.249  -2.817   4.748  0.00  0.00    -0.282 N 
ATOM      5  C   UNL     1       0.241  -4.281   4.786  0.00  0.00    +0.134 C 
ATOM      6  H   UNL     1      -0.010  -3.844   2.451  0.00  0.00    +0.156 HD
ENDROOT
BRANCH   1  12
ATOM      7  C   UNL     1      -1.221   1.036  -0.269  0.00  0.00    +0.044 C 
ATOM      8  C   UNL     1      -0.563  -0.314  -0.145  0.00  0.00    -0.048 A 
ATOM      9  C   UNL     1       0.033  -0.896  -1.249  0.00  0.00    +0.007 A 
ATOM     10  C   UNL     1       0.637  -2.134  -1.141  0.00  0.00    +0.048 A 
ATOM     11  C   UNL     1       0.648  -2.796   0.076  0.00  0.00    +0.141 A 
ATOM     12  C   UNL     1       0.049  -2.212   1.189  0.00  0.00    +0.077 A 
ATOM     13  C   UNL     1      -0.551  -0.966   1.074  0.00  0.00    +0.030 A 
BRANCH  11  14
ATOM     14  O   UNL     1       1.242  -4.015   0.183  0.00  0.00    -0.493 OA
ATOM     15  C   UNL     1       1.836  -4.554  -1.000  0.00  0.00    +0.277 C 
ENDBRANCH  11  14
ENDBRANCH   1  12
BRANCH   4  16
ATOM     16  C   UNL     1       0.358  -2.052   5.992  0.00  0.00    +0.104 C 
ATOM     17  C   UNL     1       1.602  -2.502   6.761  0.00  0.00    +0.033 C 
BRANCH  16  18
ATOM     18  C   UNL     1      -0.867  -2.289   6.837  0.00  0.00    -0.027 A 
ATOM     19  C   UNL     1      -0.779  -2.230   8.215  0.00  0.00    +0.007 A 
ATOM     20  C   UNL     1      -1.903  -2.448   8.990  0.00  0.00    +0.029 A 
ATOM     21  C   UNL     1      -3.115  -2.725   8.386  0.00  0.00    +0.105 A 
ATOM     22  C   UNL     1      -3.204  -2.784   7.008  0.00  0.00    +0.029 A 
ATOM     23  C   UNL     1      -2.081  -2.562   6.233  0.00  0.00    +0.007 A 
BRANCH  21  24
ATOM     24  S   UNL     1      -4.548  -3.004   9.374  0.00  0.00    +0.056 S 
ATOM     25  O   UNL     1      -5.439  -3.782   8.586  0.00  0.00    -0.153 OA
ATOM     26  O   UNL     1      -4.085  -3.433  10.648  0.00  0.00    -0.153 OA
BRANCH  24  27
ATOM     27  N   UNL     1      -5.277  -1.536   9.604  0.00  0.00    -0.204 NA
ATOM     28  H   UNL     1      -4.891  -0.736   9.215  0.00  0.00    +0.144 HD
ATOM     29  H   UNL     1      -6.091  -1.476  10.128  0.00  0.00    +0.144 HD
ENDBRANCH  24  27
ENDBRANCH  21  24
ENDBRANCH  16  18
ENDBRANCH   4  16
TORSDOF 6
