REMARK  Name = ZINC48797041
REMARK  6 active torsions:
REMARK  status: ('A' for Active; 'I' for Inactive)
REMARK    1  A    between atoms: C_1  and  N_2
REMARK    2  A    between atoms: N_5  and  C_6
REMARK    3  A    between atoms: C_9  and  N_12
REMARK    4  A    between atoms: N_12  and  C_13
REMARK    5  A    between atoms: C_13  and  C_14
REMARK    6  A    between atoms: C_19  and  O_20
REMARK                            x       y       z     vdW  Elec       q    Type
REMARK                         _______ _______ _______ _____ _____    ______ ____
ROOT
ATOM      1  C   UNL     1       1.300  -2.648  -2.062  0.00  0.00    +0.035 A 
ATOM      2  C   UNL     1       1.953  -1.892  -3.026  0.00  0.00    +0.025 A 
ATOM      3  C   UNL     1       2.639  -2.519  -4.048  0.00  0.00    +0.025 A 
ATOM      4  C   UNL     1       2.676  -3.905  -4.111  0.00  0.00    +0.027 A 
ATOM      5  C   UNL     1       2.023  -4.662  -3.146  0.00  0.00    +0.025 A 
ATOM      6  C   UNL     1       1.341  -4.035  -2.122  0.00  0.00    +0.025 A 
ENDROOT
BRANCH   1  11
ATOM      7  C   UNL     1      -0.025  -2.492   2.566  0.00  0.00    +0.129 C 
ATOM      8  N   UNL     1      -0.005  -1.900   1.226  0.00  0.00    -0.302 N 
ATOM      9  C   UNL     1       0.585  -2.557   0.207  0.00  0.00    +0.304 C 
ATOM     10  O   UNL     1       1.100  -3.641   0.401  0.00  0.00    -0.253 OA
ATOM     11  N   UNL     1       0.603  -2.012  -1.025  0.00  0.00    -0.269 N 
ATOM     12  H   UNL     1      -0.416  -1.035   1.071  0.00  0.00    +0.150 HD
ATOM     13  H   UNL     1       0.135  -1.180  -1.195  0.00  0.00    +0.156 HD
ENDBRANCH   1  11
BRANCH   4  14
ATOM     14  N   UNL     1       3.371  -4.540  -5.146  0.00  0.00    -0.340 N 
ATOM     15  H   UNL     1       3.827  -4.012  -5.819  0.00  0.00    +0.146 HD
BRANCH  14  16
ATOM     16  C   UNL     1       3.410  -6.003  -5.212  0.00  0.00    +0.140 C 
BRANCH  16  17
ATOM     17  C   UNL     1       4.216  -6.431  -6.411  0.00  0.00    +0.012 A 
ATOM     18  C   UNL     1       3.576  -6.817  -7.573  0.00  0.00    +0.009 A 
ATOM     19  C   UNL     1       4.315  -7.209  -8.674  0.00  0.00    +0.002 A 
ATOM     20  C   UNL     1       5.696  -7.215  -8.616  0.00  0.00    +0.019 A 
ATOM     21  C   UNL     1       6.342  -6.830  -7.457  0.00  0.00    +0.060 A 
ATOM     22  C   UNL     1       5.602  -6.431  -6.351  0.00  0.00    +0.135 A 
ATOM     23 BR   UNL     1       8.231  -6.840  -7.377  0.00  0.00    -0.047 Br
BRANCH  22  24
ATOM     24  O   UNL     1       6.234  -6.047  -5.212  0.00  0.00    -0.505 OA
ATOM     25  H   UNL     1       6.404  -6.770  -4.593  0.00  0.00    +0.292 HD
ENDBRANCH  22  24
ENDBRANCH  16  17
ENDBRANCH  14  16
ENDBRANCH   4  14
TORSDOF 5
